MODEL 1
REMARK VINA RESULT:      -7.2      0.000      0.000
REMARK  Name = 
REMARK  7 active torsions:
REMARK  status: ('A' for Active; 'I' for Inactive)
REMARK    1  A    between atoms: C_1  and  C_2
REMARK    2  A    between atoms: C_2  and  C_4
REMARK    3  A    between atoms: C_5  and  C_6
REMARK    4  A    between atoms: C_8  and  C_9
REMARK    5  A    between atoms: C_10  and  C_11
REMARK    6  A    between atoms: C_11  and  C_12
REMARK    7  A    between atoms: C_14  and  C_15
REMARK                            x       y       z     vdW  Elec       q    Type
REMARK                         _______ _______ _______ _____ _____    ______ ____
ROOT
ATOM      1  C   UNL     1       3.516   3.614  18.442  0.00  0.00    +0.000 C 
ATOM      2  C   UNL     1       4.490   3.198  19.284  0.00  0.00    +0.000 C 
ATOM      3  C   UNL     1       4.402   2.067  20.276  0.00  0.00    +0.000 C 
ATOM      4  N   UNL     1       5.731   3.830  19.248  0.00  0.00    +0.000 N 
ATOM      5  C   UNL     1       6.183   4.602  18.187  0.00  0.00    +0.000 C 
ATOM      6  C   UNL     1       7.680   4.760  18.142  0.00  0.00    +0.000 C 
ATOM      7  C   UNL     1       5.293   5.067  17.281  0.00  0.00    +0.000 C 
ATOM      8  C   UNL     1       3.777   4.819  17.527  0.00  0.00    +0.000 C 
ATOM      9  H   UNL     1       6.436   3.440  19.871  0.00  0.00    +0.000 HD
ENDROOT
BRANCH   8  10
ATOM     10  C   UNL     1       3.082   6.078  18.065  0.00  0.00    +0.000 A 
ATOM     11  C   UNL     1       2.636   7.176  17.348  0.00  0.00    +0.000 A 
ATOM     12  C   UNL     1       2.091   8.191  18.185  0.00  0.00    +0.000 A 
ATOM     13  C   UNL     1       2.129   7.835  19.513  0.00  0.00    +0.000 A 
ATOM     14  S   UNL     1       2.778   6.271  19.743  0.00  0.00    +0.000 S 
ENDBRANCH   8  10
BRANCH   1  16
ATOM     15  C   UNL     1       1.186   3.271  19.534  0.00  0.00    +0.000 C 
ATOM     16  C   UNL     1       2.148   2.994  18.403  0.00  0.00    +0.000 C 
ATOM     17  O   UNL     1       1.806   2.259  17.478  0.00  0.00    +0.000 OA
ENDBRANCH   1  16
BRANCH   7  18
ATOM     18  C   UNL     1       5.546   5.773  15.975  0.00  0.00    +0.000 C 
ATOM     19  C   UNL     1       5.513   5.078  14.642  0.00  0.00    +0.000 C 
ATOM     20  O   UNL     1       5.784   6.985  15.986  0.00  0.00    +0.000 OA
ENDBRANCH   7  18
TORSDOF 3
ENDMDL
MODEL 2
REMARK VINA RESULT:      -7.2      2.063      4.910
REMARK  Name = 
REMARK  7 active torsions:
REMARK  status: ('A' for Active; 'I' for Inactive)
REMARK    1  A    between atoms: C_1  and  C_2
REMARK    2  A    between atoms: C_2  and  C_4
REMARK    3  A    between atoms: C_5  and  C_6
REMARK    4  A    between atoms: C_8  and  C_9
REMARK    5  A    between atoms: C_10  and  C_11
REMARK    6  A    between atoms: C_11  and  C_12
REMARK    7  A    between atoms: C_14  and  C_15
REMARK                            x       y       z     vdW  Elec       q    Type
REMARK                         _______ _______ _______ _____ _____    ______ ____
ROOT
ATOM      1  C   UNL     1       2.730   6.446  18.822  0.00  0.00    +0.000 C 
ATOM      2  C   UNL     1       2.245   6.539  20.081  0.00  0.00    +0.000 C 
ATOM      3  C   UNL     1       1.728   7.782  20.758  0.00  0.00    +0.000 C 
ATOM      4  N   UNL     1       2.168   5.390  20.865  0.00  0.00    +0.000 N 
ATOM      5  C   UNL     1       2.200   4.098  20.359  0.00  0.00    +0.000 C 
ATOM      6  C   UNL     1       1.617   3.065  21.287  0.00  0.00    +0.000 C 
ATOM      7  C   UNL     1       2.662   3.889  19.106  0.00  0.00    +0.000 C 
ATOM      8  C   UNL     1       3.254   5.093  18.318  0.00  0.00    +0.000 C 
ATOM      9  H   UNL     1       1.750   5.518  21.785  0.00  0.00    +0.000 HD
ENDROOT
BRANCH   8  10
ATOM     10  C   UNL     1       4.789   5.065  18.317  0.00  0.00    +0.000 A 
ATOM     11  C   UNL     1       5.648   5.430  19.341  0.00  0.00    +0.000 A 
ATOM     12  C   UNL     1       7.018   5.332  18.967  0.00  0.00    +0.000 A 
ATOM     13  C   UNL     1       7.165   4.889  17.673  0.00  0.00    +0.000 A 
ATOM     14  S   UNL     1       5.663   4.552  16.933  0.00  0.00    +0.000 S 
ENDBRANCH   8  10
BRANCH   1  16
ATOM     15  C   UNL     1       1.680   8.575  17.773  0.00  0.00    +0.000 C 
ATOM     16  C   UNL     1       2.849   7.626  17.901  0.00  0.00    +0.000 C 
ATOM     17  O   UNL     1       3.870   7.824  17.245  0.00  0.00    +0.000 OA
ENDBRANCH   1  16
BRANCH   7  18
ATOM     18  C   UNL     1       2.645   2.628  18.283  0.00  0.00    +0.000 C 
ATOM     19  C   UNL     1       3.593   1.483  18.508  0.00  0.00    +0.000 C 
ATOM     20  O   UNL     1       1.809   2.514  17.380  0.00  0.00    +0.000 OA
ENDBRANCH   7  18
TORSDOF 3
ENDMDL
MODEL 3
REMARK VINA RESULT:      -7.2      1.079      1.274
REMARK  Name = 
REMARK  7 active torsions:
REMARK  status: ('A' for Active; 'I' for Inactive)
REMARK    1  A    between atoms: C_1  and  C_2
REMARK    2  A    between atoms: C_2  and  C_4
REMARK    3  A    between atoms: C_5  and  C_6
REMARK    4  A    between atoms: C_8  and  C_9
REMARK    5  A    between atoms: C_10  and  C_11
REMARK    6  A    between atoms: C_11  and  C_12
REMARK    7  A    between atoms: C_14  and  C_15
REMARK                            x       y       z     vdW  Elec       q    Type
REMARK                         _______ _______ _______ _____ _____    ______ ____
ROOT
ATOM      1  C   UNL     1       3.574   4.072  18.487  0.00  0.00    +0.000 C 
ATOM      2  C   UNL     1       4.476   3.512  19.324  0.00  0.00    +0.000 C 
ATOM      3  C   UNL     1       4.343   2.193  20.041  0.00  0.00    +0.000 C 
ATOM      4  N   UNL     1       5.681   4.169  19.561  0.00  0.00    +0.000 N 
ATOM      5  C   UNL     1       6.201   5.162  18.742  0.00  0.00    +0.000 C 
ATOM      6  C   UNL     1       7.685   5.366  18.897  0.00  0.00    +0.000 C 
ATOM      7  C   UNL     1       5.387   5.787  17.861  0.00  0.00    +0.000 C 
ATOM      8  C   UNL     1       3.868   5.451  17.880  0.00  0.00    +0.000 C 
ATOM      9  H   UNL     1       6.336   3.674  20.162  0.00  0.00    +0.000 HD
ENDROOT
BRANCH   8  10
ATOM     10  C   UNL     1       3.059   6.547  18.590  0.00  0.00    +0.000 A 
ATOM     11  C   UNL     1       2.612   6.561  19.900  0.00  0.00    +0.000 A 
ATOM     12  C   UNL     1       1.836   7.716  20.202  0.00  0.00    +0.000 A 
ATOM     13  C   UNL     1       1.721   8.553  19.116  0.00  0.00    +0.000 A 
ATOM     14  S   UNL     1       2.579   7.969  17.759  0.00  0.00    +0.000 S 
ENDBRANCH   8  10
BRANCH   1  16
ATOM     15  C   UNL     1       1.183   3.394  19.235  0.00  0.00    +0.000 C 
ATOM     16  C   UNL     1       2.250   3.439  18.167  0.00  0.00    +0.000 C 
ATOM     17  O   UNL     1       2.026   2.948  17.061  0.00  0.00    +0.000 OA
ENDBRANCH   1  16
BRANCH   7  18
ATOM     18  C   UNL     1       5.737   6.762  16.768  0.00  0.00    +0.000 C 
ATOM     19  C   UNL     1       5.239   6.632  15.355  0.00  0.00    +0.000 C 
ATOM     20  O   UNL     1       6.462   7.726  17.036  0.00  0.00    +0.000 OA
ENDBRANCH   7  18
TORSDOF 3
ENDMDL
MODEL 4
REMARK VINA RESULT:      -7.1      1.117      1.309
REMARK  Name = 
REMARK  7 active torsions:
REMARK  status: ('A' for Active; 'I' for Inactive)
REMARK    1  A    between atoms: C_1  and  C_2
REMARK    2  A    between atoms: C_2  and  C_4
REMARK    3  A    between atoms: C_5  and  C_6
REMARK    4  A    between atoms: C_8  and  C_9
REMARK    5  A    between atoms: C_10  and  C_11
REMARK    6  A    between atoms: C_11  and  C_12
REMARK    7  A    between atoms: C_14  and  C_15
REMARK                            x       y       z     vdW  Elec       q    Type
REMARK                         _______ _______ _______ _____ _____    ______ ____
ROOT
ATOM      1  C   UNL     1       3.701   4.192  18.275  0.00  0.00    +0.000 C 
ATOM      2  C   UNL     1       4.435   3.631  19.263  0.00  0.00    +0.000 C 
ATOM      3  C   UNL     1       4.172   2.311  19.942  0.00  0.00    +0.000 C 
ATOM      4  N   UNL     1       5.577   4.287  19.715  0.00  0.00    +0.000 N 
ATOM      5  C   UNL     1       6.238   5.280  19.006  0.00  0.00    +0.000 C 
ATOM      6  C   UNL     1       7.670   5.482  19.429  0.00  0.00    +0.000 C 
ATOM      7  C   UNL     1       5.600   5.906  17.991  0.00  0.00    +0.000 C 
ATOM      8  C   UNL     1       4.102   5.572  17.733  0.00  0.00    +0.000 C 
ATOM      9  H   UNL     1       6.111   3.791  20.426  0.00  0.00    +0.000 HD
ENDROOT
BRANCH   8  10
ATOM     10  C   UNL     1       3.179   6.668  18.284  0.00  0.00    +0.000 A 
ATOM     11  C   UNL     1       2.751   7.820  17.646  0.00  0.00    +0.000 A 
ATOM     12  C   UNL     1       1.946   8.643  18.485  0.00  0.00    +0.000 A 
ATOM     13  C   UNL     1       1.778   8.092  19.734  0.00  0.00    +0.000 A 
ATOM     14  S   UNL     1       2.548   6.573  19.877  0.00  0.00    +0.000 S 
ENDBRANCH   8  10
BRANCH   1  16
ATOM     15  C   UNL     1       1.209   3.529  18.568  0.00  0.00    +0.000 C 
ATOM     16  C   UNL     1       2.457   3.560  17.718  0.00  0.00    +0.000 C 
ATOM     17  O   UNL     1       2.443   3.060  16.594  0.00  0.00    +0.000 OA
ENDBRANCH   1  16
BRANCH   7  18
ATOM     18  C   UNL     1       6.144   6.881  16.982  0.00  0.00    +0.000 C 
ATOM     19  C   UNL     1       7.193   7.908  17.308  0.00  0.00    +0.000 C 
ATOM     20  O   UNL     1       5.722   6.840  15.822  0.00  0.00    +0.000 OA
ENDBRANCH   7  18
TORSDOF 3
ENDMDL
MODEL 5
REMARK VINA RESULT:      -6.9      1.886      4.876
REMARK  Name = 
REMARK  7 active torsions:
REMARK  status: ('A' for Active; 'I' for Inactive)
REMARK    1  A    between atoms: C_1  and  C_2
REMARK    2  A    between atoms: C_2  and  C_4
REMARK    3  A    between atoms: C_5  and  C_6
REMARK    4  A    between atoms: C_8  and  C_9
REMARK    5  A    between atoms: C_10  and  C_11
REMARK    6  A    between atoms: C_11  and  C_12
REMARK    7  A    between atoms: C_14  and  C_15
REMARK                            x       y       z     vdW  Elec       q    Type
REMARK                         _______ _______ _______ _____ _____    ______ ____
ROOT
ATOM      1  C   UNL     1       2.337   6.847  18.804  0.00  0.00    +0.000 C 
ATOM      2  C   UNL     1       2.116   6.927  20.136  0.00  0.00    +0.000 C 
ATOM      3  C   UNL     1       1.783   8.168  20.922  0.00  0.00    +0.000 C 
ATOM      4  N   UNL     1       2.160   5.763  20.901  0.00  0.00    +0.000 N 
ATOM      5  C   UNL     1       2.051   4.482  20.378  0.00  0.00    +0.000 C 
ATOM      6  C   UNL     1       1.632   3.445  21.387  0.00  0.00    +0.000 C 
ATOM      7  C   UNL     1       2.248   4.288  19.054  0.00  0.00    +0.000 C 
ATOM      8  C   UNL     1       2.708   5.492  18.184  0.00  0.00    +0.000 C 
ATOM      9  H   UNL     1       1.938   5.882  21.887  0.00  0.00    +0.000 HD
ENDROOT
BRANCH   8  10
ATOM     10  C   UNL     1       4.211   5.422  17.876  0.00  0.00    +0.000 A 
ATOM     11  C   UNL     1       4.829   5.469  16.638  0.00  0.00    +0.000 A 
ATOM     12  C   UNL     1       6.242   5.314  16.726  0.00  0.00    +0.000 A 
ATOM     13  C   UNL     1       6.660   5.162  18.027  0.00  0.00    +0.000 A 
ATOM     14  S   UNL     1       5.363   5.249  19.135  0.00  0.00    +0.000 S 
ENDBRANCH   8  10
BRANCH   1  16
ATOM     15  C   UNL     1       1.040   8.861  17.805  0.00  0.00    +0.000 C 
ATOM     16  C   UNL     1       2.307   8.044  17.897  0.00  0.00    +0.000 C 
ATOM     17  O   UNL     1       3.287   8.360  17.223  0.00  0.00    +0.000 OA
ENDBRANCH   1  16
BRANCH   7  18
ATOM     18  C   UNL     1       2.028   3.046  18.231  0.00  0.00    +0.000 C 
ATOM     19  C   UNL     1       3.134   2.101  17.853  0.00  0.00    +0.000 C 
ATOM     20  O   UNL     1       0.884   2.776  17.850  0.00  0.00    +0.000 OA
ENDBRANCH   7  18
TORSDOF 3
ENDMDL
MODEL 6
REMARK VINA RESULT:      -6.9      2.548      4.183
REMARK  Name = 
REMARK  7 active torsions:
REMARK  status: ('A' for Active; 'I' for Inactive)
REMARK    1  A    between atoms: C_1  and  C_2
REMARK    2  A    between atoms: C_2  and  C_4
REMARK    3  A    between atoms: C_5  and  C_6
REMARK    4  A    between atoms: C_8  and  C_9
REMARK    5  A    between atoms: C_10  and  C_11
REMARK    6  A    between atoms: C_11  and  C_12
REMARK    7  A    between atoms: C_14  and  C_15
REMARK                            x       y       z     vdW  Elec       q    Type
REMARK                         _______ _______ _______ _____ _____    ______ ____
ROOT
ATOM      1  C   UNL     1       3.075   6.259  19.181  0.00  0.00    +0.000 C 
ATOM      2  C   UNL     1       2.964   7.142  18.163  0.00  0.00    +0.000 C 
ATOM      3  C   UNL     1       1.854   8.139  17.951  0.00  0.00    +0.000 C 
ATOM      4  N   UNL     1       3.969   7.194  17.199  0.00  0.00    +0.000 N 
ATOM      5  C   UNL     1       5.247   6.684  17.377  0.00  0.00    +0.000 C 
ATOM      6  C   UNL     1       6.275   7.274  16.447  0.00  0.00    +0.000 C 
ATOM      7  C   UNL     1       5.473   5.796  18.372  0.00  0.00    +0.000 C 
ATOM      8  C   UNL     1       4.263   5.286  19.206  0.00  0.00    +0.000 C 
ATOM      9  H   UNL     1       3.851   7.912  16.486  0.00  0.00    +0.000 HD
ENDROOT
BRANCH   8  10
ATOM     10  C   UNL     1       3.830   3.880  18.768  0.00  0.00    +0.000 A 
ATOM     11  C   UNL     1       3.120   3.522  17.635  0.00  0.00    +0.000 A 
ATOM     12  C   UNL     1       2.841   2.127  17.581  0.00  0.00    +0.000 A 
ATOM     13  C   UNL     1       3.353   1.460  18.670  0.00  0.00    +0.000 A 
ATOM     14  S   UNL     1       4.200   2.504  19.724  0.00  0.00    +0.000 S 
ENDBRANCH   8  10
BRANCH   1  16
ATOM     15  C   UNL     1       1.317   4.818  20.435  0.00  0.00    +0.000 C 
ATOM     16  C   UNL     1       2.047   6.130  20.269  0.00  0.00    +0.000 C 
ATOM     17  O   UNL     1       1.783   7.074  21.013  0.00  0.00    +0.000 OA
ENDBRANCH   1  16
BRANCH   7  18
ATOM     18  C   UNL     1       6.779   5.233  18.867  0.00  0.00    +0.000 C 
ATOM     19  C   UNL     1       7.773   4.545  17.973  0.00  0.00    +0.000 C 
ATOM     20  O   UNL     1       7.062   5.343  20.064  0.00  0.00    +0.000 OA
ENDBRANCH   7  18
TORSDOF 3
ENDMDL
MODEL 7
REMARK VINA RESULT:      -6.7      1.961      4.434
REMARK  Name = 
REMARK  7 active torsions:
REMARK  status: ('A' for Active; 'I' for Inactive)
REMARK    1  A    between atoms: C_1  and  C_2
REMARK    2  A    between atoms: C_2  and  C_4
REMARK    3  A    between atoms: C_5  and  C_6
REMARK    4  A    between atoms: C_8  and  C_9
REMARK    5  A    between atoms: C_10  and  C_11
REMARK    6  A    between atoms: C_11  and  C_12
REMARK    7  A    between atoms: C_14  and  C_15
REMARK                            x       y       z     vdW  Elec       q    Type
REMARK                         _______ _______ _______ _____ _____    ______ ____
ROOT
ATOM      1  C   UNL     1       5.048   4.923  18.401  0.00  0.00    +0.000 C 
ATOM      2  C   UNL     1       5.014   4.099  17.330  0.00  0.00    +0.000 C 
ATOM      3  C   UNL     1       6.138   3.832  16.361  0.00  0.00    +0.000 C 
ATOM      4  N   UNL     1       3.853   3.376  17.067  0.00  0.00    +0.000 N 
ATOM      5  C   UNL     1       2.852   3.143  18.000  0.00  0.00    +0.000 C 
ATOM      6  C   UNL     1       1.972   1.966  17.670  0.00  0.00    +0.000 C 
ATOM      7  C   UNL     1       2.795   3.907  19.115  0.00  0.00    +0.000 C 
ATOM      8  C   UNL     1       3.783   5.101  19.253  0.00  0.00    +0.000 C 
ATOM      9  H   UNL     1       3.906   2.738  16.275  0.00  0.00    +0.000 HD
ENDROOT
BRANCH   8  10
ATOM     10  C   UNL     1       3.096   6.438  18.943  0.00  0.00    +0.000 A 
ATOM     11  C   UNL     1       3.128   7.158  17.760  0.00  0.00    +0.000 A 
ATOM     12  C   UNL     1       2.422   8.391  17.851  0.00  0.00    +0.000 A 
ATOM     13  C   UNL     1       1.866   8.573  19.096  0.00  0.00    +0.000 A 
ATOM     14  S   UNL     1       2.157   7.245  20.131  0.00  0.00    +0.000 S 
ENDBRANCH   8  10
BRANCH   1  16
ATOM     15  C   UNL     1       6.704   6.841  17.836  0.00  0.00    +0.000 C 
ATOM     16  C   UNL     1       6.255   5.740  18.767  0.00  0.00    +0.000 C 
ATOM     17  O   UNL     1       6.885   5.520  19.801  0.00  0.00    +0.000 OA
ENDBRANCH   1  16
BRANCH   7  18
ATOM     18  C   UNL     1       1.924   3.749  20.333  0.00  0.00    +0.000 C 
ATOM     19  C   UNL     1       2.426   3.200  21.640  0.00  0.00    +0.000 C 
ATOM     20  O   UNL     1       0.740   4.093  20.271  0.00  0.00    +0.000 OA
ENDBRANCH   7  18
TORSDOF 3
ENDMDL
MODEL 8
REMARK VINA RESULT:      -6.6      2.049      4.497
REMARK  Name = 
REMARK  7 active torsions:
REMARK  status: ('A' for Active; 'I' for Inactive)
REMARK    1  A    between atoms: C_1  and  C_2
REMARK    2  A    between atoms: C_2  and  C_4
REMARK    3  A    between atoms: C_5  and  C_6
REMARK    4  A    between atoms: C_8  and  C_9
REMARK    5  A    between atoms: C_10  and  C_11
REMARK    6  A    between atoms: C_11  and  C_12
REMARK    7  A    between atoms: C_14  and  C_15
REMARK                            x       y       z     vdW  Elec       q    Type
REMARK                         _______ _______ _______ _____ _____    ______ ____
ROOT
ATOM      1  C   UNL     1       5.505   4.909  18.464  0.00  0.00    +0.000 C 
ATOM      2  C   UNL     1       5.533   4.160  17.338  0.00  0.00    +0.000 C 
ATOM      3  C   UNL     1       6.679   4.031  16.369  0.00  0.00    +0.000 C 
ATOM      4  N   UNL     1       4.421   3.387  17.011  0.00  0.00    +0.000 N 
ATOM      5  C   UNL     1       3.429   3.027  17.913  0.00  0.00    +0.000 C 
ATOM      6  C   UNL     1       2.628   1.824  17.491  0.00  0.00    +0.000 C 
ATOM      7  C   UNL     1       3.313   3.707  19.076  0.00  0.00    +0.000 C 
ATOM      8  C   UNL     1       4.223   4.948  19.309  0.00  0.00    +0.000 C 
ATOM      9  H   UNL     1       4.522   2.809  16.179  0.00  0.00    +0.000 HD
ENDROOT
BRANCH   8  10
ATOM     10  C   UNL     1       3.455   6.258  19.082  0.00  0.00    +0.000 A 
ATOM     11  C   UNL     1       2.598   6.904  19.957  0.00  0.00    +0.000 A 
ATOM     12  C   UNL     1       2.012   8.071  19.387  0.00  0.00    +0.000 A 
ATOM     13  C   UNL     1       2.446   8.285  18.100  0.00  0.00    +0.000 A 
ATOM     14  S   UNL     1       3.583   7.112  17.599  0.00  0.00    +0.000 S 
ENDBRANCH   8  10
BRANCH   1  16
ATOM     15  C   UNL     1       7.163   6.843  17.966  0.00  0.00    +0.000 C 
ATOM     16  C   UNL     1       6.654   5.772  18.902  0.00  0.00    +0.000 C 
ATOM     17  O   UNL     1       7.191   5.613  19.998  0.00  0.00    +0.000 OA
ENDBRANCH   1  16
BRANCH   7  18
ATOM     18  C   UNL     1       2.443   3.412  20.269  0.00  0.00    +0.000 C 
ATOM     19  C   UNL     1       0.971   3.715  20.313  0.00  0.00    +0.000 C 
ATOM     20  O   UNL     1       2.952   2.886  21.265  0.00  0.00    +0.000 OA
ENDBRANCH   7  18
TORSDOF 3
ENDMDL
MODEL 9
REMARK VINA RESULT:      -6.5      2.419      4.477
REMARK  Name = 
REMARK  7 active torsions:
REMARK  status: ('A' for Active; 'I' for Inactive)
REMARK    1  A    between atoms: C_1  and  C_2
REMARK    2  A    between atoms: C_2  and  C_4
REMARK    3  A    between atoms: C_5  and  C_6
REMARK    4  A    between atoms: C_8  and  C_9
REMARK    5  A    between atoms: C_10  and  C_11
REMARK    6  A    between atoms: C_11  and  C_12
REMARK    7  A    between atoms: C_14  and  C_15
REMARK                            x       y       z     vdW  Elec       q    Type
REMARK                         _______ _______ _______ _____ _____    ______ ____
ROOT
ATOM      1  C   UNL     1       2.474   7.048  19.421  0.00  0.00    +0.000 C 
ATOM      2  C   UNL     1       2.479   7.737  18.257  0.00  0.00    +0.000 C 
ATOM      3  C   UNL     1       1.651   8.952  17.925  0.00  0.00    +0.000 C 
ATOM      4  N   UNL     1       3.340   7.338  17.237  0.00  0.00    +0.000 N 
ATOM      5  C   UNL     1       4.452   6.530  17.428  0.00  0.00    +0.000 C 
ATOM      6  C   UNL     1       5.480   6.639  16.332  0.00  0.00    +0.000 C 
ATOM      7  C   UNL     1       4.554   5.800  18.562  0.00  0.00    +0.000 C 
ATOM      8  C   UNL     1       3.361   5.802  19.560  0.00  0.00    +0.000 C 
ATOM      9  H   UNL     1       3.330   7.925  16.405  0.00  0.00    +0.000 HD
ENDROOT
BRANCH   8  10
ATOM     10  C   UNL     1       2.526   4.519  19.441  0.00  0.00    +0.000 A 
ATOM     11  C   UNL     1       1.803   4.072  18.348  0.00  0.00    +0.000 A 
ATOM     12  C   UNL     1       1.097   2.865  18.615  0.00  0.00    +0.000 A 
ATOM     13  C   UNL     1       1.307   2.422  19.900  0.00  0.00    +0.000 A 
ATOM     14  S   UNL     1       2.383   3.432  20.761  0.00  0.00    +0.000 S 
ENDBRANCH   8  10
BRANCH   1  16
ATOM     15  C   UNL     1       1.708   8.772  21.204  0.00  0.00    +0.000 C 
ATOM     16  C   UNL     1       1.585   7.403  20.579  0.00  0.00    +0.000 C 
ATOM     17  O   UNL     1       0.772   6.597  21.030  0.00  0.00    +0.000 OA
ENDBRANCH   1  16
BRANCH   7  18
ATOM     18  C   UNL     1       5.717   4.989  19.071  0.00  0.00    +0.000 C 
ATOM     19  C   UNL     1       7.046   5.590  19.432  0.00  0.00    +0.000 C 
ATOM     20  O   UNL     1       5.579   3.770  19.211  0.00  0.00    +0.000 OA
ENDBRANCH   7  18
TORSDOF 3
ENDMDL
