MODEL 1
REMARK VINA RESULT:      -8.3      0.000      0.000
REMARK  Name = 
REMARK  9 active torsions:
REMARK  status: ('A' for Active; 'I' for Inactive)
REMARK    1  A    between atoms: C_1  and  N_2
REMARK    2  A    between atoms: N_2  and  C_3
REMARK    3  A    between atoms: C_7  and  C_8
REMARK    4  A    between atoms: C_11  and  C_12
REMARK    5  A    between atoms: C_15  and  O_16
REMARK    6  A    between atoms: O_16  and  C_17
REMARK    7  A    between atoms: C_17  and  C_18
REMARK    8  A    between atoms: C_17  and  C_19
REMARK    9  A    between atoms: C_20  and  C_21
REMARK                            x       y       z     vdW  Elec       q    Type
REMARK                         _______ _______ _______ _____ _____    ______ ____
ROOT
ATOM      1  C   UNL     1       7.284   6.719  17.589  0.00  0.00    +0.000 A 
ATOM      2  N   UNL     1       8.078   6.463  18.644  0.00  0.00    +0.000 NA
ATOM      3  O   UNL     1       8.621   7.707  18.955  0.00  0.00    +0.000 OA
ATOM      4  C   UNL     1       8.090   8.595  18.069  0.00  0.00    +0.000 A 
ATOM      5  N   UNL     1       7.235   8.047  17.237  0.00  0.00    +0.000 NA
ENDROOT
BRANCH   1  10
ATOM      6  C   UNL     1       3.354   3.864  17.012  0.00  0.00    +0.000 C 
ATOM      7  C   UNL     1       3.212   4.935  18.119  0.00  0.00    +0.000 C 
ATOM      8  C   UNL     1       4.619   5.402  18.501  0.00  0.00    +0.000 C 
ATOM      9  C   UNL     1       5.392   5.134  17.242  0.00  0.00    +0.000 A 
ATOM     10  C   UNL     1       6.606   5.684  16.825  0.00  0.00    +0.000 A 
ATOM     11  C   UNL     1       7.125   5.267  15.586  0.00  0.00    +0.000 A 
ATOM     12  C   UNL     1       6.455   4.318  14.804  0.00  0.00    +0.000 A 
ATOM     13  C   UNL     1       5.236   3.794  15.226  0.00  0.00    +0.000 A 
ATOM     14  C   UNL     1       4.703   4.214  16.439  0.00  0.00    +0.000 A 
BRANCH   6  16
ATOM     15  C   UNL     1       2.115   2.387  18.485  0.00  0.00    +0.000 C 
ATOM     16  N   UNL     1       3.236   2.518  17.566  0.00  0.00    +0.000 NA
ATOM     17  H   UNL     1       3.163   1.832  16.819  0.00  0.00    +0.000 HD
ENDBRANCH   6  16
ENDBRANCH   1  10
BRANCH   4  18
ATOM     18  C   UNL     1       8.558   9.970  18.127  0.00  0.00    +0.000 A 
ATOM     19  C   UNL     1       7.911  11.008  17.454  0.00  0.00    +0.000 A 
ATOM     20  C   UNL     1       8.383  12.319  17.560  0.00  0.00    +0.000 A 
ATOM     21  C   UNL     1       9.499  12.638  18.346  0.00  0.00    +0.000 A 
ATOM     22  C   UNL     1      10.164  11.600  19.011  0.00  0.00    +0.000 A 
ATOM     23  C   UNL     1       9.682  10.281  18.903  0.00  0.00    +0.000 A 
BRANCH  22  24
ATOM     24  C   UNL     1      11.348  11.769  19.792  0.00  0.00    +0.000 C 
ATOM     25  N   UNL     1      12.330  11.936  20.394  0.00  0.00    +0.000 NA
ENDBRANCH  22  24
BRANCH  21  26
ATOM     26  O   UNL     1       9.825  13.965  18.274  0.00  0.00    +0.000 OA
BRANCH  26  27
ATOM     27  C   UNL     1      10.815  14.426  17.350  0.00  0.00    +0.000 C 
ATOM     28  C   UNL     1      11.931  15.092  18.149  0.00  0.00    +0.000 C 
ATOM     29  C   UNL     1      11.359  13.220  16.591  0.00  0.00    +0.000 C 
ENDBRANCH  26  27
ENDBRANCH  21  26
ENDBRANCH   4  18
TORSDOF 6
ENDMDL
MODEL 2
REMARK VINA RESULT:      -8.2      0.830      1.076
REMARK  Name = 
REMARK  9 active torsions:
REMARK  status: ('A' for Active; 'I' for Inactive)
REMARK    1  A    between atoms: C_1  and  N_2
REMARK    2  A    between atoms: N_2  and  C_3
REMARK    3  A    between atoms: C_7  and  C_8
REMARK    4  A    between atoms: C_11  and  C_12
REMARK    5  A    between atoms: C_15  and  O_16
REMARK    6  A    between atoms: O_16  and  C_17
REMARK    7  A    between atoms: C_17  and  C_18
REMARK    8  A    between atoms: C_17  and  C_19
REMARK    9  A    between atoms: C_20  and  C_21
REMARK                            x       y       z     vdW  Elec       q    Type
REMARK                         _______ _______ _______ _____ _____    ______ ____
ROOT
ATOM      1  C   UNL     1       7.255   6.781  17.628  0.00  0.00    +0.000 A 
ATOM      2  N   UNL     1       8.062   6.565  18.681  0.00  0.00    +0.000 NA
ATOM      3  O   UNL     1       8.595   7.823  18.951  0.00  0.00    +0.000 OA
ATOM      4  C   UNL     1       8.046   8.678  18.044  0.00  0.00    +0.000 A 
ATOM      5  N   UNL     1       7.189   8.097  17.238  0.00  0.00    +0.000 NA
ENDROOT
BRANCH   1  10
ATOM      6  C   UNL     1       3.391   3.808  17.229  0.00  0.00    +0.000 C 
ATOM      7  C   UNL     1       3.258   4.888  18.327  0.00  0.00    +0.000 C 
ATOM      8  C   UNL     1       4.664   5.401  18.652  0.00  0.00    +0.000 C 
ATOM      9  C   UNL     1       5.398   5.139  17.369  0.00  0.00    +0.000 A 
ATOM     10  C   UNL     1       6.580   5.718  16.901  0.00  0.00    +0.000 A 
ATOM     11  C   UNL     1       7.065   5.299  15.650  0.00  0.00    +0.000 A 
ATOM     12  C   UNL     1       6.396   4.321  14.904  0.00  0.00    +0.000 A 
ATOM     13  C   UNL     1       5.208   3.768  15.376  0.00  0.00    +0.000 A 
ATOM     14  C   UNL     1       4.708   4.188  16.602  0.00  0.00    +0.000 A 
BRANCH   6  16
ATOM     15  C   UNL     1       2.007   2.126  18.297  0.00  0.00    +0.000 C 
ATOM     16  N   UNL     1       3.333   2.467  17.803  0.00  0.00    +0.000 NA
ATOM     17  H   UNL     1       3.644   1.776  17.125  0.00  0.00    +0.000 HD
ENDBRANCH   6  16
ENDBRANCH   1  10
BRANCH   4  18
ATOM     18  C   UNL     1       8.500  10.060  18.057  0.00  0.00    +0.000 A 
ATOM     19  C   UNL     1       7.818  11.076  17.387  0.00  0.00    +0.000 A 
ATOM     20  C   UNL     1       8.278  12.394  17.448  0.00  0.00    +0.000 A 
ATOM     21  C   UNL     1       9.419  12.741  18.187  0.00  0.00    +0.000 A 
ATOM     22  C   UNL     1      10.119  11.724  18.848  0.00  0.00    +0.000 A 
ATOM     23  C   UNL     1       9.648  10.398  18.785  0.00  0.00    +0.000 A 
BRANCH  22  24
ATOM     24  C   UNL     1      11.328  11.922  19.582  0.00  0.00    +0.000 C 
ATOM     25  N   UNL     1      12.333  12.103  20.141  0.00  0.00    +0.000 NA
ENDBRANCH  22  24
BRANCH  21  26
ATOM     26  O   UNL     1       9.727  14.069  18.076  0.00  0.00    +0.000 OA
BRANCH  26  27
ATOM     27  C   UNL     1       9.767  14.910  19.233  0.00  0.00    +0.000 C 
ATOM     28  C   UNL     1      10.390  16.242  18.826  0.00  0.00    +0.000 C 
ATOM     29  C   UNL     1       8.337  15.126  19.718  0.00  0.00    +0.000 C 
ENDBRANCH  26  27
ENDBRANCH  21  26
ENDBRANCH   4  18
TORSDOF 6
ENDMDL
MODEL 3
REMARK VINA RESULT:      -8.1      1.552      2.111
REMARK  Name = 
REMARK  9 active torsions:
REMARK  status: ('A' for Active; 'I' for Inactive)
REMARK    1  A    between atoms: C_1  and  N_2
REMARK    2  A    between atoms: N_2  and  C_3
REMARK    3  A    between atoms: C_7  and  C_8
REMARK    4  A    between atoms: C_11  and  C_12
REMARK    5  A    between atoms: C_15  and  O_16
REMARK    6  A    between atoms: O_16  and  C_17
REMARK    7  A    between atoms: C_17  and  C_18
REMARK    8  A    between atoms: C_17  and  C_19
REMARK    9  A    between atoms: C_20  and  C_21
REMARK                            x       y       z     vdW  Elec       q    Type
REMARK                         _______ _______ _______ _____ _____    ______ ____
ROOT
ATOM      1  C   UNL     1       7.444   7.127  17.613  0.00  0.00    +0.000 A 
ATOM      2  N   UNL     1       8.170   6.911  18.724  0.00  0.00    +0.000 NA
ATOM      3  O   UNL     1       8.750   8.149  18.984  0.00  0.00    +0.000 OA
ATOM      4  C   UNL     1       8.306   8.996  18.013  0.00  0.00    +0.000 A 
ATOM      5  N   UNL     1       7.473   8.429  17.173  0.00  0.00    +0.000 NA
ENDROOT
BRANCH   1  10
ATOM      6  C   UNL     1       3.847   3.815  17.462  0.00  0.00    +0.000 C 
ATOM      7  C   UNL     1       3.792   4.767  18.679  0.00  0.00    +0.000 C 
ATOM      8  C   UNL     1       5.179   5.391  18.848  0.00  0.00    +0.000 C 
ATOM      9  C   UNL     1       5.724   5.330  17.451  0.00  0.00    +0.000 A 
ATOM     10  C   UNL     1       6.762   6.071  16.881  0.00  0.00    +0.000 A 
ATOM     11  C   UNL     1       7.081   5.826  15.534  0.00  0.00    +0.000 A 
ATOM     12  C   UNL     1       6.394   4.858  14.792  0.00  0.00    +0.000 A 
ATOM     13  C   UNL     1       5.349   4.141  15.370  0.00  0.00    +0.000 A 
ATOM     14  C   UNL     1       5.011   4.389  16.694  0.00  0.00    +0.000 A 
BRANCH   6  16
ATOM     15  C   UNL     1       3.386   2.168  19.182  0.00  0.00    +0.000 C 
ATOM     16  N   UNL     1       4.000   2.427  17.889  0.00  0.00    +0.000 NA
ATOM     17  H   UNL     1       3.621   1.796  17.186  0.00  0.00    +0.000 HD
ENDBRANCH   6  16
ENDBRANCH   1  10
BRANCH   4  18
ATOM     18  C   UNL     1       8.831  10.352  18.007  0.00  0.00    +0.000 A 
ATOM     19  C   UNL     1      10.188  10.628  18.179  0.00  0.00    +0.000 A 
ATOM     20  C   UNL     1      10.650  11.947  18.141  0.00  0.00    +0.000 A 
ATOM     21  C   UNL     1       9.781  13.025  17.918  0.00  0.00    +0.000 A 
ATOM     22  C   UNL     1       8.415  12.757  17.762  0.00  0.00    +0.000 A 
ATOM     23  C   UNL     1       7.956  11.426  17.798  0.00  0.00    +0.000 A 
BRANCH  22  24
ATOM     24  C   UNL     1       7.411  13.759  17.592  0.00  0.00    +0.000 C 
ATOM     25  N   UNL     1       6.587  14.577  17.503  0.00  0.00    +0.000 NA
ENDBRANCH  22  24
BRANCH  21  26
ATOM     26  O   UNL     1      10.424  14.231  17.968  0.00  0.00    +0.000 OA
BRANCH  26  27
ATOM     27  C   UNL     1      11.265  14.566  19.075  0.00  0.00    +0.000 C 
ATOM     28  C   UNL     1      12.043  15.827  18.711  0.00  0.00    +0.000 C 
ATOM     29  C   UNL     1      10.378  14.828  20.288  0.00  0.00    +0.000 C 
ENDBRANCH  26  27
ENDBRANCH  21  26
ENDBRANCH   4  18
TORSDOF 6
ENDMDL
MODEL 4
REMARK VINA RESULT:      -8.1      6.289      9.756
REMARK  Name = 
REMARK  9 active torsions:
REMARK  status: ('A' for Active; 'I' for Inactive)
REMARK    1  A    between atoms: C_1  and  N_2
REMARK    2  A    between atoms: N_2  and  C_3
REMARK    3  A    between atoms: C_7  and  C_8
REMARK    4  A    between atoms: C_11  and  C_12
REMARK    5  A    between atoms: C_15  and  O_16
REMARK    6  A    between atoms: O_16  and  C_17
REMARK    7  A    between atoms: C_17  and  C_18
REMARK    8  A    between atoms: C_17  and  C_19
REMARK    9  A    between atoms: C_20  and  C_21
REMARK                            x       y       z     vdW  Elec       q    Type
REMARK                         _______ _______ _______ _____ _____    ______ ____
ROOT
ATOM      1  C   UNL     1       0.633   9.686  19.830  0.00  0.00    +0.000 A 
ATOM      2  N   UNL     1       0.952   9.070  20.980  0.00  0.00    +0.000 NA
ATOM      3  O   UNL     1       1.799   8.040  20.578  0.00  0.00    +0.000 OA
ATOM      4  C   UNL     1       1.920   8.146  19.225  0.00  0.00    +0.000 A 
ATOM      5  N   UNL     1       1.258   9.162  18.723  0.00  0.00    +0.000 NA
ENDROOT
BRANCH   1  10
ATOM      6  C   UNL     1      -3.646  11.263  18.058  0.00  0.00    +0.000 C 
ATOM      7  C   UNL     1      -3.350   9.771  17.786  0.00  0.00    +0.000 C 
ATOM      8  C   UNL     1      -1.844   9.553  17.954  0.00  0.00    +0.000 C 
ATOM      9  C   UNL     1      -1.473  10.651  18.909  0.00  0.00    +0.000 A 
ATOM     10  C   UNL     1      -0.352  10.753  19.735  0.00  0.00    +0.000 A 
ATOM     11  C   UNL     1      -0.237  11.893  20.550  0.00  0.00    +0.000 A 
ATOM     12  C   UNL     1      -1.207  12.903  20.521  0.00  0.00    +0.000 A 
ATOM     13  C   UNL     1      -2.328  12.777  19.705  0.00  0.00    +0.000 A 
ATOM     14  C   UNL     1      -2.462  11.645  18.911  0.00  0.00    +0.000 A 
BRANCH   6  16
ATOM     15  C   UNL     1      -3.848  11.138  15.644  0.00  0.00    +0.000 C 
ATOM     16  N   UNL     1      -3.786  12.007  16.810  0.00  0.00    +0.000 NA
ATOM     17  H   UNL     1      -4.605  12.609  16.845  0.00  0.00    +0.000 HD
ENDBRANCH   6  16
ENDBRANCH   1  10
BRANCH   4  18
ATOM     18  C   UNL     1       2.699   7.130  18.535  0.00  0.00    +0.000 A 
ATOM     19  C   UNL     1       3.713   7.451  17.631  0.00  0.00    +0.000 A 
ATOM     20  C   UNL     1       4.452   6.440  17.011  0.00  0.00    +0.000 A 
ATOM     21  C   UNL     1       4.214   5.085  17.280  0.00  0.00    +0.000 A 
ATOM     22  C   UNL     1       3.187   4.753  18.172  0.00  0.00    +0.000 A 
ATOM     23  C   UNL     1       2.448   5.777  18.797  0.00  0.00    +0.000 A 
BRANCH  22  24
ATOM     24  C   UNL     1       2.794   3.417  18.490  0.00  0.00    +0.000 C 
ATOM     25  N   UNL     1       2.429   2.345  18.759  0.00  0.00    +0.000 NA
ENDBRANCH  22  24
BRANCH  21  26
ATOM     26  O   UNL     1       5.009   4.259  16.534  0.00  0.00    +0.000 OA
BRANCH  26  27
ATOM     27  C   UNL     1       6.144   4.774  15.831  0.00  0.00    +0.000 C 
ATOM     28  C   UNL     1       7.391   4.450  16.649  0.00  0.00    +0.000 C 
ATOM     29  C   UNL     1       6.216   4.090  14.471  0.00  0.00    +0.000 C 
ENDBRANCH  26  27
ENDBRANCH  21  26
ENDBRANCH   4  18
TORSDOF 6
ENDMDL
MODEL 5
REMARK VINA RESULT:      -8.1      6.491      8.548
REMARK  Name = 
REMARK  9 active torsions:
REMARK  status: ('A' for Active; 'I' for Inactive)
REMARK    1  A    between atoms: C_1  and  N_2
REMARK    2  A    between atoms: N_2  and  C_3
REMARK    3  A    between atoms: C_7  and  C_8
REMARK    4  A    between atoms: C_11  and  C_12
REMARK    5  A    between atoms: C_15  and  O_16
REMARK    6  A    between atoms: O_16  and  C_17
REMARK    7  A    between atoms: C_17  and  C_18
REMARK    8  A    between atoms: C_17  and  C_19
REMARK    9  A    between atoms: C_20  and  C_21
REMARK                            x       y       z     vdW  Elec       q    Type
REMARK                         _______ _______ _______ _____ _____    ______ ____
ROOT
ATOM      1  C   UNL     1       2.371   7.348  18.318  0.00  0.00    +0.000 A 
ATOM      2  N   UNL     1       2.335   8.406  17.489  0.00  0.00    +0.000 NA
ATOM      3  O   UNL     1       1.764   9.412  18.264  0.00  0.00    +0.000 OA
ATOM      4  C   UNL     1       1.525   8.868  19.490  0.00  0.00    +0.000 A 
ATOM      5  N   UNL     1       1.916   7.619  19.586  0.00  0.00    +0.000 NA
ENDROOT
BRANCH   1  10
ATOM      6  C   UNL     1       5.856   4.385  16.586  0.00  0.00    +0.000 C 
ATOM      7  C   UNL     1       6.344   5.807  16.943  0.00  0.00    +0.000 C 
ATOM      8  C   UNL     1       5.117   6.722  17.000  0.00  0.00    +0.000 C 
ATOM      9  C   UNL     1       4.020   5.755  17.341  0.00  0.00    +0.000 A 
ATOM     10  C   UNL     1       2.767   6.013  17.900  0.00  0.00    +0.000 A 
ATOM     11  C   UNL     1       1.913   4.920  18.129  0.00  0.00    +0.000 A 
ATOM     12  C   UNL     1       2.298   3.616  17.792  0.00  0.00    +0.000 A 
ATOM     13  C   UNL     1       3.560   3.375  17.254  0.00  0.00    +0.000 A 
ATOM     14  C   UNL     1       4.420   4.445  17.041  0.00  0.00    +0.000 A 
BRANCH   6  16
ATOM     15  C   UNL     1       7.149   4.869  14.591  0.00  0.00    +0.000 C 
ATOM     16  N   UNL     1       6.054   4.102  15.168  0.00  0.00    +0.000 NA
ATOM     17  H   UNL     1       6.206   3.107  15.021  0.00  0.00    +0.000 HD
ENDBRANCH   6  16
ENDBRANCH   1  10
BRANCH   4  18
ATOM     18  C   UNL     1       0.851   9.696  20.477  0.00  0.00    +0.000 A 
ATOM     19  C   UNL     1       0.178   9.153  21.572  0.00  0.00    +0.000 A 
ATOM     20  C   UNL     1      -0.435   9.990  22.510  0.00  0.00    +0.000 A 
ATOM     21  C   UNL     1      -0.383  11.386  22.393  0.00  0.00    +0.000 A 
ATOM     22  C   UNL     1       0.276  11.938  21.288  0.00  0.00    +0.000 A 
ATOM     23  C   UNL     1       0.894  11.090  20.348  0.00  0.00    +0.000 A 
BRANCH  22  24
ATOM     24  C   UNL     1       0.352  13.337  21.009  0.00  0.00    +0.000 C 
ATOM     25  N   UNL     1       0.365  14.480  20.783  0.00  0.00    +0.000 NA
ENDBRANCH  22  24
BRANCH  21  26
ATOM     26  O   UNL     1      -1.085  12.017  23.383  0.00  0.00    +0.000 OA
BRANCH  26  27
ATOM     27  C   UNL     1      -2.168  12.896  23.066  0.00  0.00    +0.000 C 
ATOM     28  C   UNL     1      -3.453  12.274  23.604  0.00  0.00    +0.000 C 
ATOM     29  C   UNL     1      -1.910  14.238  23.744  0.00  0.00    +0.000 C 
ENDBRANCH  26  27
ENDBRANCH  21  26
ENDBRANCH   4  18
TORSDOF 6
ENDMDL
MODEL 6
REMARK VINA RESULT:      -8.0      6.614     10.123
REMARK  Name = 
REMARK  9 active torsions:
REMARK  status: ('A' for Active; 'I' for Inactive)
REMARK    1  A    between atoms: C_1  and  N_2
REMARK    2  A    between atoms: N_2  and  C_3
REMARK    3  A    between atoms: C_7  and  C_8
REMARK    4  A    between atoms: C_11  and  C_12
REMARK    5  A    between atoms: C_15  and  O_16
REMARK    6  A    between atoms: O_16  and  C_17
REMARK    7  A    between atoms: C_17  and  C_18
REMARK    8  A    between atoms: C_17  and  C_19
REMARK    9  A    between atoms: C_20  and  C_21
REMARK                            x       y       z     vdW  Elec       q    Type
REMARK                         _______ _______ _______ _____ _____    ______ ____
ROOT
ATOM      1  C   UNL     1       0.662  10.352  18.512  0.00  0.00    +0.000 A 
ATOM      2  N   UNL     1       1.809  10.901  18.075  0.00  0.00    +0.000 NA
ATOM      3  O   UNL     1       2.679   9.817  17.987  0.00  0.00    +0.000 OA
ATOM      4  C   UNL     1       1.968   8.718  18.365  0.00  0.00    +0.000 A 
ATOM      5  N   UNL     1       0.717   8.987  18.657  0.00  0.00    +0.000 NA
ENDROOT
BRANCH   1  10
ATOM      6  C   UNL     1      -4.118  11.227  17.944  0.00  0.00    +0.000 C 
ATOM      7  C   UNL     1      -3.601   9.977  17.197  0.00  0.00    +0.000 C 
ATOM      8  C   UNL     1      -2.081  10.102  17.069  0.00  0.00    +0.000 C 
ATOM      9  C   UNL     1      -1.737  10.972  18.243  0.00  0.00    +0.000 A 
ATOM     10  C   UNL     1      -0.509  11.129  18.888  0.00  0.00    +0.000 A 
ATOM     11  C   UNL     1      -0.449  12.012  19.981  0.00  0.00    +0.000 A 
ATOM     12  C   UNL     1      -1.580  12.723  20.399  0.00  0.00    +0.000 A 
ATOM     13  C   UNL     1      -2.802  12.539  19.757  0.00  0.00    +0.000 A 
ATOM     14  C   UNL     1      -2.878  11.655  18.689  0.00  0.00    +0.000 A 
BRANCH   6  16
ATOM     15  C   UNL     1      -6.049  12.541  17.292  0.00  0.00    +0.000 C 
ATOM     16  N   UNL     1      -4.661  12.210  17.011  0.00  0.00    +0.000 NA
ATOM     17  H   UNL     1      -4.090  13.052  17.011  0.00  0.00    +0.000 HD
ENDBRANCH   6  16
ENDBRANCH   1  10
BRANCH   4  18
ATOM     18  C   UNL     1       2.673   7.449  18.438  0.00  0.00    +0.000 A 
ATOM     19  C   UNL     1       2.341   6.462  19.367  0.00  0.00    +0.000 A 
ATOM     20  C   UNL     1       3.031   5.247  19.383  0.00  0.00    +0.000 A 
ATOM     21  C   UNL     1       4.060   4.973  18.470  0.00  0.00    +0.000 A 
ATOM     22  C   UNL     1       4.411   5.965  17.546  0.00  0.00    +0.000 A 
ATOM     23  C   UNL     1       3.709   7.186  17.532  0.00  0.00    +0.000 A 
BRANCH  22  24
ATOM     24  C   UNL     1       5.477   5.848  16.602  0.00  0.00    +0.000 C 
ATOM     25  N   UNL     1       6.377   5.744  15.870  0.00  0.00    +0.000 NA
ENDBRANCH  22  24
BRANCH  21  26
ATOM     26  O   UNL     1       4.637   3.752  18.687  0.00  0.00    +0.000 OA
BRANCH  26  27
ATOM     27  C   UNL     1       3.881   2.675  19.247  0.00  0.00    +0.000 C 
ATOM     28  C   UNL     1       3.527   1.711  18.118  0.00  0.00    +0.000 C 
ATOM     29  C   UNL     1       4.749   1.971  20.286  0.00  0.00    +0.000 C 
ENDBRANCH  26  27
ENDBRANCH  21  26
ENDBRANCH   4  18
TORSDOF 6
ENDMDL
MODEL 7
REMARK VINA RESULT:      -8.0      6.280      9.580
REMARK  Name = 
REMARK  9 active torsions:
REMARK  status: ('A' for Active; 'I' for Inactive)
REMARK    1  A    between atoms: C_1  and  N_2
REMARK    2  A    between atoms: N_2  and  C_3
REMARK    3  A    between atoms: C_7  and  C_8
REMARK    4  A    between atoms: C_11  and  C_12
REMARK    5  A    between atoms: C_15  and  O_16
REMARK    6  A    between atoms: O_16  and  C_17
REMARK    7  A    between atoms: C_17  and  C_18
REMARK    8  A    between atoms: C_17  and  C_19
REMARK    9  A    between atoms: C_20  and  C_21
REMARK                            x       y       z     vdW  Elec       q    Type
REMARK                         _______ _______ _______ _____ _____    ______ ____
ROOT
ATOM      1  C   UNL     1       1.199   8.417  20.425  0.00  0.00    +0.000 A 
ATOM      2  N   UNL     1       1.113   7.332  21.214  0.00  0.00    +0.000 NA
ATOM      3  O   UNL     1       1.883   6.380  20.549  0.00  0.00    +0.000 OA
ATOM      4  C   UNL     1       2.371   6.989  19.433  0.00  0.00    +0.000 A 
ATOM      5  N   UNL     1       2.014   8.248  19.332  0.00  0.00    +0.000 NA
ENDROOT
BRANCH   1  10
ATOM      6  C   UNL     1      -1.866  11.792  18.653  0.00  0.00    +0.000 C 
ATOM      7  C   UNL     1      -1.625  10.589  17.713  0.00  0.00    +0.000 C 
ATOM      8  C   UNL     1      -0.335   9.896  18.161  0.00  0.00    +0.000 C 
ATOM      9  C   UNL     1      -0.272  10.259  19.617  0.00  0.00    +0.000 A 
ATOM     10  C   UNL     1       0.434   9.634  20.646  0.00  0.00    +0.000 A 
ATOM     11  C   UNL     1       0.321  10.171  21.941  0.00  0.00    +0.000 A 
ATOM     12  C   UNL     1      -0.461  11.307  22.187  0.00  0.00    +0.000 A 
ATOM     13  C   UNL     1      -1.175  11.906  21.152  0.00  0.00    +0.000 A 
ATOM     14  C   UNL     1      -1.087  11.372  19.873  0.00  0.00    +0.000 A 
BRANCH   6  16
ATOM     15  C   UNL     1      -0.186  13.541  18.589  0.00  0.00    +0.000 C 
ATOM     16  N   UNL     1      -1.432  13.040  18.030  0.00  0.00    +0.000 NA
ATOM     17  H   UNL     1      -1.344  12.922  17.023  0.00  0.00    +0.000 HD
ENDBRANCH   6  16
ENDBRANCH   1  10
BRANCH   4  18
ATOM     18  C   UNL     1       3.154   6.182  18.510  0.00  0.00    +0.000 A 
ATOM     19  C   UNL     1       3.961   6.748  17.523  0.00  0.00    +0.000 A 
ATOM     20  C   UNL     1       4.715   5.932  16.675  0.00  0.00    +0.000 A 
ATOM     21  C   UNL     1       4.700   4.535  16.793  0.00  0.00    +0.000 A 
ATOM     22  C   UNL     1       3.879   3.959  17.770  0.00  0.00    +0.000 A 
ATOM     23  C   UNL     1       3.124   4.786  18.625  0.00  0.00    +0.000 A 
BRANCH  22  24
ATOM     24  C   UNL     1       3.717   2.552  17.961  0.00  0.00    +0.000 C 
ATOM     25  N   UNL     1       3.579   1.414  18.165  0.00  0.00    +0.000 NA
ENDBRANCH  22  24
BRANCH  21  26
ATOM     26  O   UNL     1       5.465   3.923  15.839  0.00  0.00    +0.000 OA
BRANCH  26  27
ATOM     27  C   UNL     1       5.855   4.624  14.654  0.00  0.00    +0.000 C 
ATOM     28  C   UNL     1       7.355   4.893  14.738  0.00  0.00    +0.000 C 
ATOM     29  C   UNL     1       5.547   3.739  13.451  0.00  0.00    +0.000 C 
ENDBRANCH  26  27
ENDBRANCH  21  26
ENDBRANCH   4  18
TORSDOF 6
ENDMDL
MODEL 8
REMARK VINA RESULT:      -8.0      6.228      7.900
REMARK  Name = 
REMARK  9 active torsions:
REMARK  status: ('A' for Active; 'I' for Inactive)
REMARK    1  A    between atoms: C_1  and  N_2
REMARK    2  A    between atoms: N_2  and  C_3
REMARK    3  A    between atoms: C_7  and  C_8
REMARK    4  A    between atoms: C_11  and  C_12
REMARK    5  A    between atoms: C_15  and  O_16
REMARK    6  A    between atoms: O_16  and  C_17
REMARK    7  A    between atoms: C_17  and  C_18
REMARK    8  A    between atoms: C_17  and  C_19
REMARK    9  A    between atoms: C_20  and  C_21
REMARK                            x       y       z     vdW  Elec       q    Type
REMARK                         _______ _______ _______ _____ _____    ______ ____
ROOT
ATOM      1  C   UNL     1       2.489   7.297  18.620  0.00  0.00    +0.000 A 
ATOM      2  N   UNL     1       2.224   7.345  19.937  0.00  0.00    +0.000 NA
ATOM      3  O   UNL     1       1.573   8.566  20.097  0.00  0.00    +0.000 OA
ATOM      4  C   UNL     1       1.494   9.128  18.858  0.00  0.00    +0.000 A 
ATOM      5  N   UNL     1       2.005   8.373  17.914  0.00  0.00    +0.000 NA
ENDROOT
BRANCH   1  10
ATOM      6  C   UNL     1       3.046   2.563  17.523  0.00  0.00    +0.000 C 
ATOM      7  C   UNL     1       1.675   2.921  18.141  0.00  0.00    +0.000 C 
ATOM      8  C   UNL     1       1.819   4.270  18.850  0.00  0.00    +0.000 C 
ATOM      9  C   UNL     1       2.948   4.905  18.091  0.00  0.00    +0.000 A 
ATOM     10  C   UNL     1       3.292   6.255  17.999  0.00  0.00    +0.000 A 
ATOM     11  C   UNL     1       4.404   6.597  17.210  0.00  0.00    +0.000 A 
ATOM     12  C   UNL     1       5.155   5.615  16.552  0.00  0.00    +0.000 A 
ATOM     13  C   UNL     1       4.786   4.275  16.639  0.00  0.00    +0.000 A 
ATOM     14  C   UNL     1       3.677   3.926  17.400  0.00  0.00    +0.000 A 
BRANCH   6  16
ATOM     15  C   UNL     1       4.204   2.195  19.624  0.00  0.00    +0.000 C 
ATOM     16  N   UNL     1       3.768   1.611  18.364  0.00  0.00    +0.000 NA
ATOM     17  H   UNL     1       3.199   0.786  18.536  0.00  0.00    +0.000 HD
ENDBRANCH   6  16
ENDBRANCH   1  10
BRANCH   4  18
ATOM     18  C   UNL     1       0.920  10.460  18.755  0.00  0.00    +0.000 A 
ATOM     19  C   UNL     1       1.707  11.602  18.603  0.00  0.00    +0.000 A 
ATOM     20  C   UNL     1       1.110  12.860  18.483  0.00  0.00    +0.000 A 
ATOM     21  C   UNL     1      -0.284  13.016  18.498  0.00  0.00    +0.000 A 
ATOM     22  C   UNL     1      -1.080  11.878  18.668  0.00  0.00    +0.000 A 
ATOM     23  C   UNL     1      -0.472  10.612  18.785  0.00  0.00    +0.000 A 
BRANCH  22  24
ATOM     24  C   UNL     1      -2.505  11.896  18.765  0.00  0.00    +0.000 C 
ATOM     25  N   UNL     1      -3.669  11.898  18.798  0.00  0.00    +0.000 NA
ENDBRANCH  22  24
BRANCH  21  26
ATOM     26  O   UNL     1      -0.661  14.329  18.418  0.00  0.00    +0.000 OA
BRANCH  26  27
ATOM     27  C   UNL     1      -0.218  15.278  19.393  0.00  0.00    +0.000 C 
ATOM     28  C   UNL     1      -0.238  16.660  18.748  0.00  0.00    +0.000 C 
ATOM     29  C   UNL     1      -1.183  15.236  20.574  0.00  0.00    +0.000 C 
ENDBRANCH  26  27
ENDBRANCH  21  26
ENDBRANCH   4  18
TORSDOF 6
ENDMDL
MODEL 9
REMARK VINA RESULT:      -8.0      6.345      8.767
REMARK  Name = 
REMARK  9 active torsions:
REMARK  status: ('A' for Active; 'I' for Inactive)
REMARK    1  A    between atoms: C_1  and  N_2
REMARK    2  A    between atoms: N_2  and  C_3
REMARK    3  A    between atoms: C_7  and  C_8
REMARK    4  A    between atoms: C_11  and  C_12
REMARK    5  A    between atoms: C_15  and  O_16
REMARK    6  A    between atoms: O_16  and  C_17
REMARK    7  A    between atoms: C_17  and  C_18
REMARK    8  A    between atoms: C_17  and  C_19
REMARK    9  A    between atoms: C_20  and  C_21
REMARK                            x       y       z     vdW  Elec       q    Type
REMARK                         _______ _______ _______ _____ _____    ______ ____
ROOT
ATOM      1  C   UNL     1       2.918   7.448  17.896  0.00  0.00    +0.000 A 
ATOM      2  N   UNL     1       2.947   8.378  16.925  0.00  0.00    +0.000 NA
ATOM      3  O   UNL     1       2.109   9.381  17.405  0.00  0.00    +0.000 OA
ATOM      4  C   UNL     1       1.668   8.966  18.626  0.00  0.00    +0.000 A 
ATOM      5  N   UNL     1       2.166   7.807  18.989  0.00  0.00    +0.000 NA
ENDROOT
BRANCH   1  10
ATOM      6  C   UNL     1       7.022   4.804  17.593  0.00  0.00    +0.000 C 
ATOM      7  C   UNL     1       7.246   6.304  17.891  0.00  0.00    +0.000 C 
ATOM      8  C   UNL     1       5.975   7.057  17.488  0.00  0.00    +0.000 C 
ATOM      9  C   UNL     1       4.924   5.994  17.627  0.00  0.00    +0.000 A 
ATOM     10  C   UNL     1       3.543   6.141  17.776  0.00  0.00    +0.000 A 
ATOM     11  C   UNL     1       2.767   4.974  17.891  0.00  0.00    +0.000 A 
ATOM     12  C   UNL     1       3.357   3.705  17.841  0.00  0.00    +0.000 A 
ATOM     13  C   UNL     1       4.738   3.577  17.712  0.00  0.00    +0.000 A 
ATOM     14  C   UNL     1       5.517   4.723  17.617  0.00  0.00    +0.000 A 
BRANCH   6  16
ATOM     15  C   UNL     1       6.794   4.657  15.183  0.00  0.00    +0.000 C 
ATOM     16  N   UNL     1       7.652   4.419  16.334  0.00  0.00    +0.000 NA
ATOM     17  H   UNL     1       8.540   4.903  16.218  0.00  0.00    +0.000 HD
ENDBRANCH   6  16
ENDBRANCH   1  10
BRANCH   4  18
ATOM     18  C   UNL     1       0.704   9.806  19.318  0.00  0.00    +0.000 A 
ATOM     19  C   UNL     1       0.874  10.199  20.646  0.00  0.00    +0.000 A 
ATOM     20  C   UNL     1      -0.067  11.028  21.263  0.00  0.00    +0.000 A 
ATOM     21  C   UNL     1      -1.193  11.502  20.574  0.00  0.00    +0.000 A 
ATOM     22  C   UNL     1      -1.379  11.099  19.246  0.00  0.00    +0.000 A 
ATOM     23  C   UNL     1      -0.426  10.265  18.629  0.00  0.00    +0.000 A 
BRANCH  22  24
ATOM     24  C   UNL     1      -2.509  11.451  18.446  0.00  0.00    +0.000 C 
ATOM     25  N   UNL     1      -3.417  11.704  17.762  0.00  0.00    +0.000 NA
ENDBRANCH  22  24
BRANCH  21  26
ATOM     26  O   UNL     1      -2.011  12.256  21.370  0.00  0.00    +0.000 OA
BRANCH  26  27
ATOM     27  C   UNL     1      -1.722  12.429  22.760  0.00  0.00    +0.000 C 
ATOM     28  C   UNL     1      -1.412  13.904  22.996  0.00  0.00    +0.000 C 
ATOM     29  C   UNL     1      -2.953  12.017  23.560  0.00  0.00    +0.000 C 
ENDBRANCH  26  27
ENDBRANCH  21  26
ENDBRANCH   4  18
TORSDOF 6
ENDMDL
