MODEL 1
REMARK VINA RESULT:      -8.3      0.000      0.000
REMARK  Name = 
REMARK  2 active torsions:
REMARK  status: ('A' for Active; 'I' for Inactive)
REMARK    1  A    between atoms: C_2  and  C_3
REMARK    2  A    between atoms: N_18  and  C_19
REMARK                            x       y       z     vdW  Elec       q    Type
REMARK                         _______ _______ _______ _____ _____    ______ ____
ROOT
ATOM      1  O   UNL     1      -0.035   8.258  21.962  0.00  0.00    +0.000 OA
ATOM      2  C   UNL     1       0.529   8.865  21.054  0.00  0.00    +0.000 C 
ATOM      3  N   UNL     1       0.443  10.249  20.891  0.00  0.00    +0.000 N 
ATOM      4  C   UNL     1       1.167  11.028  19.879  0.00  0.00    +0.000 C 
ATOM      5  C   UNL     1       0.919  12.523  20.117  0.00  0.00    +0.000 C 
ATOM      6  C   UNL     1       0.356  13.219  18.883  0.00  0.00    +0.000 C 
ATOM      7  C   UNL     1       1.482  14.093  18.360  0.00  0.00    +0.000 C 
ATOM      8  N   UNL     1       2.439  14.312  19.450  0.00  0.00    +0.000 NA
ATOM      9  C   UNL     1       2.231  13.247  20.440  0.00  0.00    +0.000 C 
ATOM     10  C   UNL     1      -0.043  12.470  21.279  0.00  0.00    +0.000 A 
ATOM     11  C   UNL     1      -0.642  13.550  21.919  0.00  0.00    +0.000 A 
ATOM     12  C   UNL     1      -1.457  13.303  23.021  0.00  0.00    +0.000 A 
ATOM     13  C   UNL     1      -1.665  11.988  23.466  0.00  0.00    +0.000 A 
ATOM     14  C   UNL     1      -1.072  10.904  22.805  0.00  0.00    +0.000 A 
ATOM     15  C   UNL     1      -0.265  11.155  21.707  0.00  0.00    +0.000 A 
ENDROOT
BRANCH   2  16
ATOM     16  C   UNL     1       1.408   8.127  20.145  0.00  0.00    +0.000 A 
ATOM     17  C   UNL     1       1.846   8.355  18.849  0.00  0.00    +0.000 A 
ATOM     18  C   UNL     1       2.843   7.410  18.523  0.00  0.00    +0.000 A 
ATOM     19  C   UNL     1       3.693   7.252  17.415  0.00  0.00    +0.000 A 
ATOM     20  C   UNL     1       4.547   6.153  17.385  0.00  0.00    +0.000 A 
ATOM     21 CL   UNL     1       5.583   5.934  16.026  0.00  0.00    +0.000 Cl
ATOM     22  C   UNL     1       4.567   5.228  18.429  0.00  0.00    +0.000 A 
ATOM     23  C   UNL     1       3.742   5.389  19.552  0.00  0.00    +0.000 A 
ATOM     24  C   UNL     1       2.891   6.498  19.572  0.00  0.00    +0.000 A 
ATOM     25  N   UNL     1       1.982   6.923  20.514  0.00  0.00    +0.000 N 
ATOM     26  H   UNL     1       1.803   6.472  21.407  0.00  0.00    +0.000 HD
ENDBRANCH   2  16
BRANCH   8  27
ATOM     27  C   UNL     1       2.478  15.684  19.991  0.00  0.00    +0.000 C 
ATOM     28  C   UNL     1       2.400  16.746  18.869  0.00  0.00    +0.000 C 
ATOM     29  C   UNL     1       3.676  16.796  18.026  0.00  0.00    +0.000 C 
ATOM     30  N   UNL     1       4.862  17.082  18.837  0.00  0.00    +0.000 NA
ATOM     31  C   UNL     1       5.008  16.093  19.908  0.00  0.00    +0.000 C 
ATOM     32  C   UNL     1       3.763  16.020  20.791  0.00  0.00    +0.000 C 
ATOM     33  H   UNL     1       4.772  18.010  19.248  0.00  0.00    +0.000 HD
ENDBRANCH   8  27
TORSDOF 2
ENDMDL
MODEL 2
REMARK VINA RESULT:      -8.0      1.274      1.663
REMARK  Name = 
REMARK  2 active torsions:
REMARK  status: ('A' for Active; 'I' for Inactive)
REMARK    1  A    between atoms: C_2  and  C_3
REMARK    2  A    between atoms: N_18  and  C_19
REMARK                            x       y       z     vdW  Elec       q    Type
REMARK                         _______ _______ _______ _____ _____    ______ ____
ROOT
ATOM      1  O   UNL     1       1.216   6.794  21.265  0.00  0.00    +0.000 OA
ATOM      2  C   UNL     1       1.459   7.543  20.321  0.00  0.00    +0.000 C 
ATOM      3  N   UNL     1       1.062   8.881  20.284  0.00  0.00    +0.000 N 
ATOM      4  C   UNL     1       1.404   9.836  19.223  0.00  0.00    +0.000 C 
ATOM      5  C   UNL     1       0.906  11.232  19.618  0.00  0.00    +0.000 C 
ATOM      6  C   UNL     1      -0.014  11.838  18.563  0.00  0.00    +0.000 C 
ATOM      7  C   UNL     1       0.789  12.953  17.916  0.00  0.00    +0.000 C 
ATOM      8  N   UNL     1       1.872  13.330  18.831  0.00  0.00    +0.000 NA
ATOM      9  C   UNL     1       2.080  12.209  19.756  0.00  0.00    +0.000 C 
ATOM     10  C   UNL     1       0.217  10.929  20.926  0.00  0.00    +0.000 A 
ATOM     11  C   UNL     1      -0.456  11.829  21.746  0.00  0.00    +0.000 A 
ATOM     12  C   UNL     1      -0.976  11.370  22.953  0.00  0.00    +0.000 A 
ATOM     13  C   UNL     1      -0.822  10.026  23.324  0.00  0.00    +0.000 A 
ATOM     14  C   UNL     1      -0.158   9.120  22.484  0.00  0.00    +0.000 A 
ATOM     15  C   UNL     1       0.355   9.582  21.282  0.00  0.00    +0.000 A 
ENDROOT
BRANCH   2  16
ATOM     16  C   UNL     1       2.279   7.047  19.213  0.00  0.00    +0.000 A 
ATOM     17  C   UNL     1       3.116   7.665  18.297  0.00  0.00    +0.000 A 
ATOM     18  C   UNL     1       3.809   6.677  17.563  0.00  0.00    +0.000 A 
ATOM     19  C   UNL     1       4.844   6.734  16.614  0.00  0.00    +0.000 A 
ATOM     20  C   UNL     1       5.275   5.546  16.030  0.00  0.00    +0.000 A 
ATOM     21 CL   UNL     1       6.529   5.599  14.850  0.00  0.00    +0.000 Cl
ATOM     22  C   UNL     1       4.701   4.324  16.378  0.00  0.00    +0.000 A 
ATOM     23  C   UNL     1       3.686   4.251  17.343  0.00  0.00    +0.000 A 
ATOM     24  C   UNL     1       3.264   5.450  17.925  0.00  0.00    +0.000 A 
ATOM     25  N   UNL     1       2.309   5.703  18.883  0.00  0.00    +0.000 N 
ATOM     26  H   UNL     1       1.749   5.001  19.358  0.00  0.00    +0.000 HD
ENDBRANCH   2  16
BRANCH   8  27
ATOM     27  C   UNL     1       1.733  14.657  19.461  0.00  0.00    +0.000 C 
ATOM     28  C   UNL     1       1.768  15.797  18.415  0.00  0.00    +0.000 C 
ATOM     29  C   UNL     1       3.158  15.979  17.801  0.00  0.00    +0.000 C 
ATOM     30  N   UNL     1       4.176  16.265  18.816  0.00  0.00    +0.000 NA
ATOM     31  C   UNL     1       4.211  15.206  19.827  0.00  0.00    +0.000 C 
ATOM     32  C   UNL     1       2.847  14.999  20.484  0.00  0.00    +0.000 C 
ATOM     33  H   UNL     1       3.960  17.153  19.267  0.00  0.00    +0.000 HD
ENDBRANCH   8  27
TORSDOF 2
ENDMDL
MODEL 3
REMARK VINA RESULT:      -7.9      2.529      4.241
REMARK  Name = 
REMARK  2 active torsions:
REMARK  status: ('A' for Active; 'I' for Inactive)
REMARK    1  A    between atoms: C_2  and  C_3
REMARK    2  A    between atoms: N_18  and  C_19
REMARK                            x       y       z     vdW  Elec       q    Type
REMARK                         _______ _______ _______ _____ _____    ______ ____
ROOT
ATOM      1  O   UNL     1      -0.927  12.541  19.214  0.00  0.00    +0.000 OA
ATOM      2  C   UNL     1       0.285  12.397  19.076  0.00  0.00    +0.000 C 
ATOM      3  N   UNL     1       1.162  13.462  18.860  0.00  0.00    +0.000 N 
ATOM      4  C   UNL     1       2.623  13.351  18.777  0.00  0.00    +0.000 C 
ATOM      5  C   UNL     1       3.233  14.755  18.678  0.00  0.00    +0.000 C 
ATOM      6  C   UNL     1       4.123  14.914  17.450  0.00  0.00    +0.000 C 
ATOM      7  C   UNL     1       5.544  14.976  17.982  0.00  0.00    +0.000 C 
ATOM      8  N   UNL     1       5.488  15.350  19.399  0.00  0.00    +0.000 NA
ATOM      9  C   UNL     1       4.136  15.042  19.884  0.00  0.00    +0.000 C 
ATOM     10  C   UNL     1       1.987  15.605  18.642  0.00  0.00    +0.000 A 
ATOM     11  C   UNL     1       1.921  16.990  18.529  0.00  0.00    +0.000 A 
ATOM     12  C   UNL     1       0.672  17.604  18.578  0.00  0.00    +0.000 A 
ATOM     13  C   UNL     1      -0.489  16.832  18.734  0.00  0.00    +0.000 A 
ATOM     14  C   UNL     1      -0.417  15.435  18.829  0.00  0.00    +0.000 A 
ATOM     15  C   UNL     1       0.829  14.830  18.777  0.00  0.00    +0.000 A 
ENDROOT
BRANCH   2  16
ATOM     16  C   UNL     1       0.865  11.061  19.230  0.00  0.00    +0.000 A 
ATOM     17  C   UNL     1       0.970  10.186  20.300  0.00  0.00    +0.000 A 
ATOM     18  C   UNL     1       1.458   8.944  19.837  0.00  0.00    +0.000 A 
ATOM     19  C   UNL     1       1.641   7.693  20.451  0.00  0.00    +0.000 A 
ATOM     20  C   UNL     1       2.208   6.664  19.705  0.00  0.00    +0.000 A 
ATOM     21 CL   UNL     1       2.458   5.129  20.447  0.00  0.00    +0.000 Cl
ATOM     22  C   UNL     1       2.583   6.861  18.376  0.00  0.00    +0.000 A 
ATOM     23  C   UNL     1       2.382   8.096  17.744  0.00  0.00    +0.000 A 
ATOM     24  C   UNL     1       1.808   9.122  18.502  0.00  0.00    +0.000 A 
ATOM     25  N   UNL     1       1.488  10.419  18.174  0.00  0.00    +0.000 N 
ATOM     26  H   UNL     1       1.609  10.843  17.258  0.00  0.00    +0.000 HD
ENDBRANCH   2  16
BRANCH   8  27
ATOM     27  C   UNL     1       5.985  16.702  19.718  0.00  0.00    +0.000 C 
ATOM     28  C   UNL     1       7.397  16.947  19.134  0.00  0.00    +0.000 C 
ATOM     29  C   UNL     1       8.473  16.132  19.855  0.00  0.00    +0.000 C 
ATOM     30  N   UNL     1       8.519  16.427  21.290  0.00  0.00    +0.000 NA
ATOM     31  C   UNL     1       7.213  16.190  21.909  0.00  0.00    +0.000 C 
ATOM     32  C   UNL     1       6.106  16.999  21.234  0.00  0.00    +0.000 C 
ATOM     33  H   UNL     1       8.782  17.402  21.423  0.00  0.00    +0.000 HD
ENDBRANCH   8  27
TORSDOF 2
ENDMDL
MODEL 4
REMARK VINA RESULT:      -7.8      2.407      3.989
REMARK  Name = 
REMARK  2 active torsions:
REMARK  status: ('A' for Active; 'I' for Inactive)
REMARK    1  A    between atoms: C_2  and  C_3
REMARK    2  A    between atoms: N_18  and  C_19
REMARK                            x       y       z     vdW  Elec       q    Type
REMARK                         _______ _______ _______ _____ _____    ______ ____
ROOT
ATOM      1  O   UNL     1      -1.231  12.663  19.374  0.00  0.00    +0.000 OA
ATOM      2  C   UNL     1      -0.045  12.481  19.109  0.00  0.00    +0.000 C 
ATOM      3  N   UNL     1       0.872  13.523  18.954  0.00  0.00    +0.000 N 
ATOM      4  C   UNL     1       2.312  13.355  18.727  0.00  0.00    +0.000 C 
ATOM      5  C   UNL     1       2.994  14.729  18.756  0.00  0.00    +0.000 C 
ATOM      6  C   UNL     1       3.786  15.008  17.483  0.00  0.00    +0.000 C 
ATOM      7  C   UNL     1       5.248  14.932  17.889  0.00  0.00    +0.000 C 
ATOM      8  N   UNL     1       5.331  15.114  19.342  0.00  0.00    +0.000 NA
ATOM      9  C   UNL     1       4.009  14.809  19.903  0.00  0.00    +0.000 C 
ATOM     10  C   UNL     1       1.801  15.635  18.942  0.00  0.00    +0.000 A 
ATOM     11  C   UNL     1       1.808  17.023  19.016  0.00  0.00    +0.000 A 
ATOM     12  C   UNL     1       0.605  17.683  19.256  0.00  0.00    +0.000 A 
ATOM     13  C   UNL     1      -0.582  16.954  19.415  0.00  0.00    +0.000 A 
ATOM     14  C   UNL     1      -0.585  15.555  19.322  0.00  0.00    +0.000 A 
ATOM     15  C   UNL     1       0.614  14.904  19.079  0.00  0.00    +0.000 A 
ENDROOT
BRANCH   2  16
ATOM     16  C   UNL     1       0.466  11.111  19.037  0.00  0.00    +0.000 A 
ATOM     17  C   UNL     1       0.962  10.332  18.003  0.00  0.00    +0.000 A 
ATOM     18  C   UNL     1       1.495   9.138  18.536  0.00  0.00    +0.000 A 
ATOM     19  C   UNL     1       2.214   8.070  17.971  0.00  0.00    +0.000 A 
ATOM     20  C   UNL     1       2.554   6.994  18.787  0.00  0.00    +0.000 A 
ATOM     21 CL   UNL     1       3.418   5.668  18.108  0.00  0.00    +0.000 Cl
ATOM     22  C   UNL     1       2.196   6.972  20.135  0.00  0.00    +0.000 A 
ATOM     23  C   UNL     1       1.502   8.044  20.716  0.00  0.00    +0.000 A 
ATOM     24  C   UNL     1       1.170   9.120  19.887  0.00  0.00    +0.000 A 
ATOM     25  N   UNL     1       0.506  10.296  20.155  0.00  0.00    +0.000 N 
ATOM     26  H   UNL     1       0.157  10.582  21.065  0.00  0.00    +0.000 HD
ENDBRANCH   2  16
BRANCH   8  27
ATOM     27  C   UNL     1       5.932  16.386  19.786  0.00  0.00    +0.000 C 
ATOM     28  C   UNL     1       7.281  16.661  19.080  0.00  0.00    +0.000 C 
ATOM     29  C   UNL     1       8.386  15.712  19.549  0.00  0.00    +0.000 C 
ATOM     30  N   UNL     1       8.607  15.792  20.995  0.00  0.00    +0.000 NA
ATOM     31  C   UNL     1       7.366  15.517  21.725  0.00  0.00    +0.000 C 
ATOM     32  C   UNL     1       6.236  16.455  21.304  0.00  0.00    +0.000 C 
ATOM     33  H   UNL     1       8.934  16.727  21.233  0.00  0.00    +0.000 HD
ENDBRANCH   8  27
TORSDOF 2
ENDMDL
MODEL 5
REMARK VINA RESULT:      -7.7      2.074      3.093
REMARK  Name = 
REMARK  2 active torsions:
REMARK  status: ('A' for Active; 'I' for Inactive)
REMARK    1  A    between atoms: C_2  and  C_3
REMARK    2  A    between atoms: N_18  and  C_19
REMARK                            x       y       z     vdW  Elec       q    Type
REMARK                         _______ _______ _______ _____ _____    ______ ____
ROOT
ATOM      1  O   UNL     1      -1.066  11.350  19.636  0.00  0.00    +0.000 OA
ATOM      2  C   UNL     1       0.099  11.423  19.253  0.00  0.00    +0.000 C 
ATOM      3  N   UNL     1       0.798  12.628  19.155  0.00  0.00    +0.000 N 
ATOM      4  C   UNL     1       2.214  12.757  18.790  0.00  0.00    +0.000 C 
ATOM      5  C   UNL     1       2.644  14.222  18.936  0.00  0.00    +0.000 C 
ATOM      6  C   UNL     1       3.237  14.782  17.647  0.00  0.00    +0.000 C 
ATOM      7  C   UNL     1       4.724  14.935  17.918  0.00  0.00    +0.000 C 
ATOM      8  N   UNL     1       4.925  14.970  19.370  0.00  0.00    +0.000 NA
ATOM      9  C   UNL     1       3.743  14.364  19.995  0.00  0.00    +0.000 C 
ATOM     10  C   UNL     1       1.336  14.864  19.333  0.00  0.00    +0.000 A 
ATOM     11  C   UNL     1       1.108  16.213  19.581  0.00  0.00    +0.000 A 
ATOM     12  C   UNL     1      -0.160  16.607  20.001  0.00  0.00    +0.000 A 
ATOM     13  C   UNL     1      -1.178  15.656  20.165  0.00  0.00    +0.000 A 
ATOM     14  C   UNL     1      -0.945  14.300  19.896  0.00  0.00    +0.000 A 
ATOM     15  C   UNL     1       0.317  13.914  19.475  0.00  0.00    +0.000 A 
ENDROOT
BRANCH   2  16
ATOM     16  C   UNL     1       0.832  10.188  18.965  0.00  0.00    +0.000 A 
ATOM     17  C   UNL     1       1.527   9.728  17.858  0.00  0.00    +0.000 A 
ATOM     18  C   UNL     1       2.206   8.538  18.198  0.00  0.00    +0.000 A 
ATOM     19  C   UNL     1       3.131   7.730  17.514  0.00  0.00    +0.000 A 
ATOM     20  C   UNL     1       3.579   6.565  18.132  0.00  0.00    +0.000 A 
ATOM     21 CL   UNL     1       4.698   5.553  17.302  0.00  0.00    +0.000 Cl
ATOM     22  C   UNL     1       3.127   6.205  19.401  0.00  0.00    +0.000 A 
ATOM     23  C   UNL     1       2.224   7.016  20.104  0.00  0.00    +0.000 A 
ATOM     24  C   UNL     1       1.785   8.185  19.475  0.00  0.00    +0.000 A 
ATOM     25  N   UNL     1       0.919   9.167  19.897  0.00  0.00    +0.000 N 
ATOM     26  H   UNL     1       0.459   9.200  20.802  0.00  0.00    +0.000 HD
ENDBRANCH   2  16
BRANCH   8  27
ATOM     27  C   UNL     1       5.337  16.275  19.920  0.00  0.00    +0.000 C 
ATOM     28  C   UNL     1       6.540  16.870  19.150  0.00  0.00    +0.000 C 
ATOM     29  C   UNL     1       7.835  16.095  19.407  0.00  0.00    +0.000 C 
ATOM     30  N   UNL     1       8.182  16.059  20.830  0.00  0.00    +0.000 NA
ATOM     31  C   UNL     1       7.089  15.481  21.615  0.00  0.00    +0.000 C 
ATOM     32  C   UNL     1       5.776  16.234  21.406  0.00  0.00    +0.000 C 
ATOM     33  H   UNL     1       8.364  17.007  21.155  0.00  0.00    +0.000 HD
ENDBRANCH   8  27
TORSDOF 2
ENDMDL
MODEL 6
REMARK VINA RESULT:      -7.7      0.929      1.352
REMARK  Name = 
REMARK  2 active torsions:
REMARK  status: ('A' for Active; 'I' for Inactive)
REMARK    1  A    between atoms: C_2  and  C_3
REMARK    2  A    between atoms: N_18  and  C_19
REMARK                            x       y       z     vdW  Elec       q    Type
REMARK                         _______ _______ _______ _____ _____    ______ ____
ROOT
ATOM      1  O   UNL     1      -0.613   8.720  22.538  0.00  0.00    +0.000 OA
ATOM      2  C   UNL     1       0.038   9.217  21.622  0.00  0.00    +0.000 C 
ATOM      3  N   UNL     1      -0.006  10.575  21.301  0.00  0.00    +0.000 N 
ATOM      4  C   UNL     1       0.817  11.229  20.277  0.00  0.00    +0.000 C 
ATOM      5  C   UNL     1       0.580  12.744  20.328  0.00  0.00    +0.000 C 
ATOM      6  C   UNL     1       0.138  13.306  18.981  0.00  0.00    +0.000 C 
ATOM      7  C   UNL     1       1.322  14.104  18.465  0.00  0.00    +0.000 C 
ATOM      8  N   UNL     1       2.186  14.432  19.604  0.00  0.00    +0.000 NA
ATOM      9  C   UNL     1       1.874  13.486  20.683  0.00  0.00    +0.000 C 
ATOM     10  C   UNL     1      -0.479  12.831  21.401  0.00  0.00    +0.000 A 
ATOM     11  C   UNL     1      -1.108  13.981  21.864  0.00  0.00    +0.000 A 
ATOM     12  C   UNL     1      -2.019  13.866  22.911  0.00  0.00    +0.000 A 
ATOM     13  C   UNL     1      -2.291  12.611  23.477  0.00  0.00    +0.000 A 
ATOM     14  C   UNL     1      -1.665  11.454  22.993  0.00  0.00    +0.000 A 
ATOM     15  C   UNL     1      -0.762  11.574  21.948  0.00  0.00    +0.000 A 
ENDROOT
BRANCH   2  16
ATOM     16  C   UNL     1       0.977   8.374  20.878  0.00  0.00    +0.000 A 
ATOM     17  C   UNL     1       1.511   7.115  21.103  0.00  0.00    +0.000 A 
ATOM     18  C   UNL     1       2.223   6.702  19.956  0.00  0.00    +0.000 A 
ATOM     19  C   UNL     1       2.849   5.496  19.595  0.00  0.00    +0.000 A 
ATOM     20  C   UNL     1       3.527   5.437  18.380  0.00  0.00    +0.000 A 
ATOM     21 CL   UNL     1       4.315   3.974  17.930  0.00  0.00    +0.000 Cl
ATOM     22  C   UNL     1       3.583   6.544  17.534  0.00  0.00    +0.000 A 
ATOM     23  C   UNL     1       2.940   7.745  17.871  0.00  0.00    +0.000 A 
ATOM     24  C   UNL     1       2.260   7.790  19.091  0.00  0.00    +0.000 A 
ATOM     25  N   UNL     1       1.545   8.802  19.691  0.00  0.00    +0.000 N 
ATOM     26  H   UNL     1       1.376   9.721  19.292  0.00  0.00    +0.000 HD
ENDBRANCH   2  16
BRANCH   8  27
ATOM     27  C   UNL     1       2.207  15.855  19.993  0.00  0.00    +0.000 C 
ATOM     28  C   UNL     1       2.267  16.787  18.759  0.00  0.00    +0.000 C 
ATOM     29  C   UNL     1       3.622  16.724  18.049  0.00  0.00    +0.000 C 
ATOM     30  N   UNL     1       4.729  17.082  18.940  0.00  0.00    +0.000 NA
ATOM     31  C   UNL     1       4.742  16.216  20.122  0.00  0.00    +0.000 C 
ATOM     32  C   UNL     1       3.414  16.260  20.877  0.00  0.00    +0.000 C 
ATOM     33  H   UNL     1       4.622  18.051  19.235  0.00  0.00    +0.000 HD
ENDBRANCH   8  27
TORSDOF 2
ENDMDL
MODEL 7
REMARK VINA RESULT:      -7.6      3.571      6.630
REMARK  Name = 
REMARK  2 active torsions:
REMARK  status: ('A' for Active; 'I' for Inactive)
REMARK    1  A    between atoms: C_2  and  C_3
REMARK    2  A    between atoms: N_18  and  C_19
REMARK                            x       y       z     vdW  Elec       q    Type
REMARK                         _______ _______ _______ _____ _____    ______ ____
ROOT
ATOM      1  O   UNL     1       1.369  13.294  18.204  0.00  0.00    +0.000 OA
ATOM      2  C   UNL     1       0.708  12.626  18.996  0.00  0.00    +0.000 C 
ATOM      3  N   UNL     1      -0.327  13.158  19.767  0.00  0.00    +0.000 N 
ATOM      4  C   UNL     1      -1.202  12.385  20.658  0.00  0.00    +0.000 C 
ATOM      5  C   UNL     1      -2.299  13.303  21.212  0.00  0.00    +0.000 C 
ATOM      6  C   UNL     1      -2.333  13.309  22.737  0.00  0.00    +0.000 C 
ATOM      7  C   UNL     1      -3.594  12.553  23.118  0.00  0.00    +0.000 C 
ATOM      8  N   UNL     1      -4.497  12.552  21.962  0.00  0.00    +0.000 NA
ATOM      9  C   UNL     1      -3.686  12.822  20.768  0.00  0.00    +0.000 C 
ATOM     10  C   UNL     1      -1.897  14.626  20.607  0.00  0.00    +0.000 A 
ATOM     11  C   UNL     1      -2.527  15.853  20.784  0.00  0.00    +0.000 A 
ATOM     12  C   UNL     1      -2.042  16.957  20.087  0.00  0.00    +0.000 A 
ATOM     13  C   UNL     1      -0.941  16.823  19.228  0.00  0.00    +0.000 A 
ATOM     14  C   UNL     1      -0.301  15.586  19.068  0.00  0.00    +0.000 A 
ATOM     15  C   UNL     1      -0.785  14.492  19.767  0.00  0.00    +0.000 A 
ENDROOT
BRANCH   2  16
ATOM     16  C   UNL     1       0.946  11.184  19.082  0.00  0.00    +0.000 A 
ATOM     17  C   UNL     1       1.355  10.229  18.164  0.00  0.00    +0.000 A 
ATOM     18  C   UNL     1       1.605   9.014  18.839  0.00  0.00    +0.000 A 
ATOM     19  C   UNL     1       2.142   7.780  18.431  0.00  0.00    +0.000 A 
ATOM     20  C   UNL     1       2.204   6.744  19.359  0.00  0.00    +0.000 A 
ATOM     21 CL   UNL     1       2.841   5.220  18.872  0.00  0.00    +0.000 Cl
ATOM     22  C   UNL     1       1.751   6.922  20.666  0.00  0.00    +0.000 A 
ATOM     23  C   UNL     1       1.239   8.155  21.093  0.00  0.00    +0.000 A 
ATOM     24  C   UNL     1       1.184   9.189  20.153  0.00  0.00    +0.000 A 
ATOM     25  N   UNL     1       0.744  10.488  20.262  0.00  0.00    +0.000 N 
ATOM     26  H   UNL     1       0.392  10.922  21.111  0.00  0.00    +0.000 HD
ENDBRANCH   2  16
BRANCH   8  27
ATOM     27  C   UNL     1      -5.710  13.379  22.106  0.00  0.00    +0.000 C 
ATOM     28  C   UNL     1      -6.158  13.489  23.583  0.00  0.00    +0.000 C 
ATOM     29  C   UNL     1      -6.716  12.169  24.120  0.00  0.00    +0.000 C 
ATOM     30  N   UNL     1      -7.858  11.692  23.335  0.00  0.00    +0.000 NA
ATOM     31  C   UNL     1      -7.491  11.543  21.925  0.00  0.00    +0.000 C 
ATOM     32  C   UNL     1      -6.945  12.843  21.337  0.00  0.00    +0.000 C 
ATOM     33  H   UNL     1      -8.622  12.361  23.414  0.00  0.00    +0.000 HD
ENDBRANCH   8  27
TORSDOF 2
ENDMDL
MODEL 8
REMARK VINA RESULT:      -7.6      3.475      6.145
REMARK  Name = 
REMARK  2 active torsions:
REMARK  status: ('A' for Active; 'I' for Inactive)
REMARK    1  A    between atoms: C_2  and  C_3
REMARK    2  A    between atoms: N_18  and  C_19
REMARK                            x       y       z     vdW  Elec       q    Type
REMARK                         _______ _______ _______ _____ _____    ______ ____
ROOT
ATOM      1  O   UNL     1       2.096  12.869  18.090  0.00  0.00    +0.000 OA
ATOM      2  C   UNL     1       1.314  12.240  18.800  0.00  0.00    +0.000 C 
ATOM      3  N   UNL     1       0.254  12.837  19.485  0.00  0.00    +0.000 N 
ATOM      4  C   UNL     1      -0.756  12.118  20.271  0.00  0.00    +0.000 C 
ATOM      5  C   UNL     1      -1.829  13.108  20.743  0.00  0.00    +0.000 C 
ATOM      6  C   UNL     1      -2.007  13.089  22.257  0.00  0.00    +0.000 C 
ATOM      7  C   UNL     1      -3.352  12.427  22.501  0.00  0.00    +0.000 C 
ATOM      8  N   UNL     1      -4.138  12.517  21.266  0.00  0.00    +0.000 NA
ATOM      9  C   UNL     1      -3.200  12.744  20.159  0.00  0.00    +0.000 C 
ATOM     10  C   UNL     1      -1.273  14.406  20.211  0.00  0.00    +0.000 A 
ATOM     11  C   UNL     1      -1.822  15.676  20.360  0.00  0.00    +0.000 A 
ATOM     12  C   UNL     1      -1.191  16.751  19.739  0.00  0.00    +0.000 A 
ATOM     13  C   UNL     1      -0.027  16.548  18.983  0.00  0.00    +0.000 A 
ATOM     14  C   UNL     1       0.530  15.268  18.852  0.00  0.00    +0.000 A 
ATOM     15  C   UNL     1      -0.099  14.202  19.475  0.00  0.00    +0.000 A 
ENDROOT
BRANCH   2  16
ATOM     16  C   UNL     1       1.434  10.782  18.871  0.00  0.00    +0.000 A 
ATOM     17  C   UNL     1       1.792   9.809  17.951  0.00  0.00    +0.000 A 
ATOM     18  C   UNL     1       1.924   8.570  18.614  0.00  0.00    +0.000 A 
ATOM     19  C   UNL     1       2.372   7.302  18.203  0.00  0.00    +0.000 A 
ATOM     20  C   UNL     1       2.324   6.253  19.118  0.00  0.00    +0.000 A 
ATOM     21 CL   UNL     1       2.851   4.689  18.626  0.00  0.00    +0.000 Cl
ATOM     22  C   UNL     1       1.849   6.450  20.414  0.00  0.00    +0.000 A 
ATOM     23  C   UNL     1       1.425   7.715  20.844  0.00  0.00    +0.000 A 
ATOM     24  C   UNL     1       1.481   8.762  19.918  0.00  0.00    +0.000 A 
ATOM     25  N   UNL     1       1.143  10.091  20.034  0.00  0.00    +0.000 N 
ATOM     26  H   UNL     1       0.803  10.541  20.879  0.00  0.00    +0.000 HD
ENDBRANCH   2  16
BRANCH   8  27
ATOM     27  C   UNL     1      -5.294  13.432  21.317  0.00  0.00    +0.000 C 
ATOM     28  C   UNL     1      -6.549  12.740  21.900  0.00  0.00    +0.000 C 
ATOM     29  C   UNL     1      -7.130  11.693  20.947  0.00  0.00    +0.000 C 
ATOM     30  N   UNL     1      -7.492  12.267  19.649  0.00  0.00    +0.000 NA
ATOM     31  C   UNL     1      -6.335  12.920  19.031  0.00  0.00    +0.000 C 
ATOM     32  C   UNL     1      -5.730  13.990  19.939  0.00  0.00    +0.000 C 
ATOM     33  H   UNL     1      -8.233  12.954  19.781  0.00  0.00    +0.000 HD
ENDBRANCH   8  27
TORSDOF 2
ENDMDL
MODEL 9
REMARK VINA RESULT:      -7.4      6.212      9.097
REMARK  Name = 
REMARK  2 active torsions:
REMARK  status: ('A' for Active; 'I' for Inactive)
REMARK    1  A    between atoms: C_2  and  C_3
REMARK    2  A    between atoms: N_18  and  C_19
REMARK                            x       y       z     vdW  Elec       q    Type
REMARK                         _______ _______ _______ _____ _____    ______ ____
ROOT
ATOM      1  O   UNL     1       3.729  13.764  22.346  0.00  0.00    +0.000 OA
ATOM      2  C   UNL     1       4.469  14.439  21.634  0.00  0.00    +0.000 C 
ATOM      3  N   UNL     1       5.861  14.339  21.665  0.00  0.00    +0.000 N 
ATOM      4  C   UNL     1       6.781  15.056  20.774  0.00  0.00    +0.000 C 
ATOM      5  C   UNL     1       8.214  14.569  21.027  0.00  0.00    +0.000 C 
ATOM      6  C   UNL     1       9.161  15.713  21.373  0.00  0.00    +0.000 C 
ATOM      7  C   UNL     1      10.061  15.877  20.161  0.00  0.00    +0.000 C 
ATOM      8  N   UNL     1      10.018  14.633  19.385  0.00  0.00    +0.000 NA
ATOM      9  C   UNL     1       8.796  13.915  19.768  0.00  0.00    +0.000 C 
ATOM     10  C   UNL     1       7.989  13.599  22.162  0.00  0.00    +0.000 A 
ATOM     11  C   UNL     1       8.956  12.858  22.833  0.00  0.00    +0.000 A 
ATOM     12  C   UNL     1       8.544  11.963  23.817  0.00  0.00    +0.000 A 
ATOM     13  C   UNL     1       7.181  11.822  24.119  0.00  0.00    +0.000 A 
ATOM     14  C   UNL     1       6.214  12.585  23.451  0.00  0.00    +0.000 A 
ATOM     15  C   UNL     1       6.630  13.477  22.475  0.00  0.00    +0.000 A 
ENDROOT
BRANCH   2  16
ATOM     16  C   UNL     1       3.875  15.332  20.636  0.00  0.00    +0.000 A 
ATOM     17  C   UNL     1       3.896  15.361  19.251  0.00  0.00    +0.000 A 
ATOM     18  C   UNL     1       2.988  16.341  18.793  0.00  0.00    +0.000 A 
ATOM     19  C   UNL     1       2.529  16.705  17.515  0.00  0.00    +0.000 A 
ATOM     20  C   UNL     1       1.649  17.779  17.407  0.00  0.00    +0.000 A 
ATOM     21 CL   UNL     1       1.091  18.252  15.848  0.00  0.00    +0.000 Cl
ATOM     22  C   UNL     1       1.225  18.478  18.537  0.00  0.00    +0.000 A 
ATOM     23  C   UNL     1       1.655  18.107  19.820  0.00  0.00    +0.000 A 
ATOM     24  C   UNL     1       2.535  17.026  19.916  0.00  0.00    +0.000 A 
ATOM     25  N   UNL     1       3.123  16.433  21.010  0.00  0.00    +0.000 N 
ATOM     26  H   UNL     1       2.971  16.700  21.978  0.00  0.00    +0.000 HD
ENDBRANCH   2  16
BRANCH   8  27
ATOM     27  C   UNL     1      11.258  13.833  19.404  0.00  0.00    +0.000 C 
ATOM     28  C   UNL     1      12.087  14.028  18.112  0.00  0.00    +0.000 C 
ATOM     29  C   UNL     1      11.420  13.386  16.893  0.00  0.00    +0.000 C 
ATOM     30  N   UNL     1      11.199  11.950  17.077  0.00  0.00    +0.000 NA
ATOM     31  C   UNL     1      10.396  11.699  18.276  0.00  0.00    +0.000 C 
ATOM     32  C   UNL     1      11.032  12.305  19.526  0.00  0.00    +0.000 C 
ATOM     33  H   UNL     1      12.099  11.481  17.171  0.00  0.00    +0.000 HD
ENDBRANCH   8  27
TORSDOF 2
ENDMDL
