MODEL 1
REMARK VINA RESULT:      -9.6      0.000      0.000
REMARK  Name = 
REMARK  3 active torsions:
REMARK  status: ('A' for Active; 'I' for Inactive)
REMARK    1  A    between atoms: C_2  and  C_3
REMARK    2  A    between atoms: C_2  and  C_9
REMARK    3  A    between atoms: N_22  and  C_23
REMARK                            x       y       z     vdW  Elec       q    Type
REMARK                         _______ _______ _______ _____ _____    ______ ____
ROOT
ATOM      1  C   UNL     1       1.178   7.907  20.708  0.00  0.00    +0.000 A 
ATOM      2  C   UNL     1       1.205   6.566  21.101  0.00  0.00    +0.000 A 
ATOM      3  C   UNL     1       2.101   5.676  20.485  0.00  0.00    +0.000 A 
ATOM      4  C   UNL     1       2.912   6.105  19.425  0.00  0.00    +0.000 A 
ATOM      5  C   UNL     1       2.623   7.377  18.872  0.00  0.00    +0.000 A 
ATOM      6  C   UNL     1       1.815   8.282  19.535  0.00  0.00    +0.000 A 
ATOM      7  N   UNL     1       3.116   7.765  17.629  0.00  0.00    +0.000 NA
ATOM      8  C   UNL     1       4.401   7.829  17.649  0.00  0.00    +0.000 C 
ATOM      9  C   UNL     1       5.131   6.622  17.284  0.00  0.00    +0.000 A 
ATOM     10  C   UNL     1       5.025   5.558  18.100  0.00  0.00    +0.000 A 
ATOM     11  N   UNL     1       6.038   4.645  17.947  0.00  0.00    +0.000 N 
ATOM     12  C   UNL     1       6.915   4.668  16.883  0.00  0.00    +0.000 A 
ATOM     13  O   UNL     1       8.042   4.195  17.020  0.00  0.00    +0.000 OA
ATOM     14  N   UNL     1       6.407   5.272  15.728  0.00  0.00    +0.000 N 
ATOM     15  C   UNL     1       5.553   6.352  15.901  0.00  0.00    +0.000 A 
ATOM     16  O   UNL     1       5.044   7.053  15.037  0.00  0.00    +0.000 OA
ATOM     17  N   UNL     1       4.093   5.351  19.114  0.00  0.00    +0.000 N 
ATOM     18  H   UNL     1       6.355   4.125  18.756  0.00  0.00    +0.000 HD
ATOM     19  H   UNL     1       3.973   4.363  19.321  0.00  0.00    +0.000 HD
ENDROOT
BRANCH  14  20
ATOM     20  C   UNL     1       6.648   4.695  14.433  0.00  0.00    +0.000 A 
ATOM     21  C   UNL     1       5.801   3.693  13.924  0.00  0.00    +0.000 A 
ATOM     22  C   UNL     1       5.891   3.260  12.596  0.00  0.00    +0.000 A 
ATOM     23  C   UNL     1       6.832   3.815  11.739  0.00  0.00    +0.000 A 
ATOM     24  C   UNL     1       7.709   4.773  12.223  0.00  0.00    +0.000 A 
ATOM     25  C   UNL     1       7.633   5.185  13.558  0.00  0.00    +0.000 A 
ENDBRANCH  14  20
BRANCH   1  27
ATOM     26  O   UNL     1       0.557   8.948  22.698  0.00  0.00    +0.000 OA
ATOM     27  C   UNL     1       0.546   9.008  21.471  0.00  0.00    +0.000 C 
BRANCH  27  28
ATOM     28  C   UNL     1      -0.204  10.115  20.823  0.00  0.00    +0.000 A 
ATOM     29  C   UNL     1      -0.398  11.281  21.575  0.00  0.00    +0.000 A 
ATOM     30  C   UNL     1      -1.109  12.355  21.047  0.00  0.00    +0.000 A 
ATOM     31  C   UNL     1      -1.624  12.281  19.761  0.00  0.00    +0.000 A 
ATOM     32  C   UNL     1      -1.463  11.116  19.008  0.00  0.00    +0.000 A 
ATOM     33  C   UNL     1      -0.772  10.027  19.544  0.00  0.00    +0.000 A 
ENDBRANCH  27  28
ENDBRANCH   1  27
TORSDOF 3
ENDMDL
MODEL 2
REMARK VINA RESULT:      -9.5      3.182     10.614
REMARK  Name = 
REMARK  3 active torsions:
REMARK  status: ('A' for Active; 'I' for Inactive)
REMARK    1  A    between atoms: C_2  and  C_3
REMARK    2  A    between atoms: C_2  and  C_9
REMARK    3  A    between atoms: N_22  and  C_23
REMARK                            x       y       z     vdW  Elec       q    Type
REMARK                         _______ _______ _______ _____ _____    ______ ____
ROOT
ATOM      1  C   UNL     1       2.865   6.766  18.801  0.00  0.00    +0.000 A 
ATOM      2  C   UNL     1       2.599   7.581  17.697  0.00  0.00    +0.000 A 
ATOM      3  C   UNL     1       1.938   8.807  17.878  0.00  0.00    +0.000 A 
ATOM      4  C   UNL     1       1.472   9.183  19.146  0.00  0.00    +0.000 A 
ATOM      5  C   UNL     1       1.496   8.190  20.157  0.00  0.00    +0.000 A 
ATOM      6  C   UNL     1       2.229   7.027  20.005  0.00  0.00    +0.000 A 
ATOM      7  N   UNL     1       0.765   8.325  21.334  0.00  0.00    +0.000 NA
ATOM      8  C   UNL     1       1.184   9.333  22.016  0.00  0.00    +0.000 C 
ATOM      9  C   UNL     1       0.543  10.617  21.764  0.00  0.00    +0.000 A 
ATOM     10  C   UNL     1       0.721  11.176  20.554  0.00  0.00    +0.000 A 
ATOM     11  N   UNL     1       0.474  12.526  20.531  0.00  0.00    +0.000 N 
ATOM     12  C   UNL     1      -0.159  13.191  21.559  0.00  0.00    +0.000 A 
ATOM     13  O   UNL     1       0.071  14.386  21.736  0.00  0.00    +0.000 OA
ATOM     14  N   UNL     1      -1.009  12.390  22.329  0.00  0.00    +0.000 N 
ATOM     15  C   UNL     1      -0.624  11.073  22.536  0.00  0.00    +0.000 A 
ATOM     16  O   UNL     1      -1.184  10.224  23.215  0.00  0.00    +0.000 OA
ATOM     17  N   UNL     1       1.213  10.571  19.400  0.00  0.00    +0.000 N 
ATOM     18  H   UNL     1       1.015  13.112  19.906  0.00  0.00    +0.000 HD
ATOM     19  H   UNL     1       0.907  11.056  18.559  0.00  0.00    +0.000 HD
ENDROOT
BRANCH  14  20
ATOM     20  C   UNL     1      -2.292  12.881  22.755  0.00  0.00    +0.000 A 
ATOM     21  C   UNL     1      -3.442  12.654  21.975  0.00  0.00    +0.000 A 
ATOM     22  C   UNL     1      -4.723  12.942  22.458  0.00  0.00    +0.000 A 
ATOM     23  C   UNL     1      -4.893  13.465  23.732  0.00  0.00    +0.000 A 
ATOM     24  C   UNL     1      -3.777  13.740  24.507  0.00  0.00    +0.000 A 
ATOM     25  C   UNL     1      -2.496  13.475  24.012  0.00  0.00    +0.000 A 
ENDBRANCH  14  20
BRANCH   1  27
ATOM     26  O   UNL     1       3.813   4.879  19.786  0.00  0.00    +0.000 OA
ATOM     27  C   UNL     1       3.821   5.635  18.818  0.00  0.00    +0.000 C 
BRANCH  27  28
ATOM     28  C   UNL     1       4.867   5.445  17.780  0.00  0.00    +0.000 A 
ATOM     29  C   UNL     1       4.632   4.464  16.808  0.00  0.00    +0.000 A 
ATOM     30  C   UNL     1       5.574   4.210  15.814  0.00  0.00    +0.000 A 
ATOM     31  C   UNL     1       6.755   4.939  15.776  0.00  0.00    +0.000 A 
ATOM     32  C   UNL     1       7.017   5.900  16.754  0.00  0.00    +0.000 A 
ATOM     33  C   UNL     1       6.085   6.140  17.766  0.00  0.00    +0.000 A 
ENDBRANCH  27  28
ENDBRANCH   1  27
TORSDOF 3
ENDMDL
MODEL 3
REMARK VINA RESULT:      -9.4      3.902     10.539
REMARK  Name = 
REMARK  3 active torsions:
REMARK  status: ('A' for Active; 'I' for Inactive)
REMARK    1  A    between atoms: C_2  and  C_3
REMARK    2  A    between atoms: C_2  and  C_9
REMARK    3  A    between atoms: N_22  and  C_23
REMARK                            x       y       z     vdW  Elec       q    Type
REMARK                         _______ _______ _______ _____ _____    ______ ____
ROOT
ATOM      1  C   UNL     1       3.006   6.956  18.516  0.00  0.00    +0.000 A 
ATOM      2  C   UNL     1       2.719   7.834  17.466  0.00  0.00    +0.000 A 
ATOM      3  C   UNL     1       2.005   9.016  17.720  0.00  0.00    +0.000 A 
ATOM      4  C   UNL     1       1.510   9.286  19.005  0.00  0.00    +0.000 A 
ATOM      5  C   UNL     1       1.564   8.228  19.946  0.00  0.00    +0.000 A 
ATOM      6  C   UNL     1       2.347   7.110  19.726  0.00  0.00    +0.000 A 
ATOM      7  N   UNL     1       0.816   8.253  21.119  0.00  0.00    +0.000 NA
ATOM      8  C   UNL     1       1.184   9.228  21.873  0.00  0.00    +0.000 C 
ATOM      9  C   UNL     1       0.493  10.499  21.699  0.00  0.00    +0.000 A 
ATOM     10  C   UNL     1       0.660  11.146  20.533  0.00  0.00    +0.000 A 
ATOM     11  N   UNL     1       0.358  12.483  20.597  0.00  0.00    +0.000 N 
ATOM     12  C   UNL     1      -0.314  13.050  21.660  0.00  0.00    +0.000 A 
ATOM     13  O   UNL     1      -0.137  14.239  21.920  0.00  0.00    +0.000 OA
ATOM     14  N   UNL     1      -1.138  12.164  22.362  0.00  0.00    +0.000 N 
ATOM     15  C   UNL     1      -0.700  10.854  22.484  0.00  0.00    +0.000 A 
ATOM     16  O   UNL     1      -1.232   9.938  23.097  0.00  0.00    +0.000 OA
ATOM     17  N   UNL     1       1.190  10.641  19.347  0.00  0.00    +0.000 N 
ATOM     18  H   UNL     1       0.880  13.132  20.021  0.00  0.00    +0.000 HD
ATOM     19  H   UNL     1       0.874  11.169  18.537  0.00  0.00    +0.000 HD
ENDROOT
BRANCH  14  20
ATOM     20  C   UNL     1      -2.445  12.572  22.802  0.00  0.00    +0.000 A 
ATOM     21  C   UNL     1      -3.504  12.700  21.883  0.00  0.00    +0.000 A 
ATOM     22  C   UNL     1      -4.823  12.898  22.307  0.00  0.00    +0.000 A 
ATOM     23  C   UNL     1      -5.122  12.975  23.660  0.00  0.00    +0.000 A 
ATOM     24  C   UNL     1      -4.094  12.897  24.588  0.00  0.00    +0.000 A 
ATOM     25  C   UNL     1      -2.774  12.724  24.160  0.00  0.00    +0.000 A 
ENDBRANCH  14  20
BRANCH   1  27
ATOM     26  O   UNL     1       5.191   6.170  18.322  0.00  0.00    +0.000 OA
ATOM     27  C   UNL     1       4.009   5.868  18.470  0.00  0.00    +0.000 C 
BRANCH  27  28
ATOM     28  C   UNL     1       3.642   4.428  18.473  0.00  0.00    +0.000 A 
ATOM     29  C   UNL     1       4.303   3.602  19.392  0.00  0.00    +0.000 A 
ATOM     30  C   UNL     1       4.031   2.238  19.442  0.00  0.00    +0.000 A 
ATOM     31  C   UNL     1       3.090   1.686  18.584  0.00  0.00    +0.000 A 
ATOM     32  C   UNL     1       2.442   2.491  17.645  0.00  0.00    +0.000 A 
ATOM     33  C   UNL     1       2.731   3.855  17.574  0.00  0.00    +0.000 A 
ENDBRANCH  27  28
ENDBRANCH   1  27
TORSDOF 3
ENDMDL
MODEL 4
REMARK VINA RESULT:      -9.4      4.091     10.652
REMARK  Name = 
REMARK  3 active torsions:
REMARK  status: ('A' for Active; 'I' for Inactive)
REMARK    1  A    between atoms: C_2  and  C_3
REMARK    2  A    between atoms: C_2  and  C_9
REMARK    3  A    between atoms: N_22  and  C_23
REMARK                            x       y       z     vdW  Elec       q    Type
REMARK                         _______ _______ _______ _____ _____    ______ ____
ROOT
ATOM      1  C   UNL     1       2.812   7.048  18.586  0.00  0.00    +0.000 A 
ATOM      2  C   UNL     1       2.484   7.901  17.528  0.00  0.00    +0.000 A 
ATOM      3  C   UNL     1       1.797   9.099  17.783  0.00  0.00    +0.000 A 
ATOM      4  C   UNL     1       1.367   9.408  19.081  0.00  0.00    +0.000 A 
ATOM      5  C   UNL     1       1.455   8.376  20.048  0.00  0.00    +0.000 A 
ATOM      6  C   UNL     1       2.214   7.242  19.822  0.00  0.00    +0.000 A 
ATOM      7  N   UNL     1       0.764   8.442  21.255  0.00  0.00    +0.000 NA
ATOM      8  C   UNL     1       1.179   9.432  21.963  0.00  0.00    +0.000 C 
ATOM      9  C   UNL     1       0.494  10.706  21.788  0.00  0.00    +0.000 A 
ATOM     10  C   UNL     1       0.612  11.320  20.597  0.00  0.00    +0.000 A 
ATOM     11  N   UNL     1       0.328  12.661  20.639  0.00  0.00    +0.000 N 
ATOM     12  C   UNL     1      -0.286  13.265  21.716  0.00  0.00    +0.000 A 
ATOM     13  O   UNL     1      -0.083  14.458  21.935  0.00  0.00    +0.000 OA
ATOM     14  N   UNL     1      -1.085  12.408  22.481  0.00  0.00    +0.000 N 
ATOM     15  C   UNL     1      -0.656  11.096  22.618  0.00  0.00    +0.000 A 
ATOM     16  O   UNL     1      -1.168  10.203  23.281  0.00  0.00    +0.000 OA
ATOM     17  N   UNL     1       1.078  10.777  19.402  0.00  0.00    +0.000 N 
ATOM     18  H   UNL     1       0.829  13.287  20.021  0.00  0.00    +0.000 HD
ATOM     19  H   UNL     1       0.730  11.286  18.594  0.00  0.00    +0.000 HD
ENDROOT
BRANCH  14  20
ATOM     20  C   UNL     1      -2.365  12.844  22.972  0.00  0.00    +0.000 A 
ATOM     21  C   UNL     1      -2.455  13.658  24.117  0.00  0.00    +0.000 A 
ATOM     22  C   UNL     1      -3.660  14.258  24.498  0.00  0.00    +0.000 A 
ATOM     23  C   UNL     1      -4.811  14.061  23.747  0.00  0.00    +0.000 A 
ATOM     24  C   UNL     1      -4.763  13.229  22.638  0.00  0.00    +0.000 A 
ATOM     25  C   UNL     1      -3.563  12.611  22.275  0.00  0.00    +0.000 A 
ENDBRANCH  14  20
BRANCH   1  27
ATOM     26  O   UNL     1       4.971   6.227  18.277  0.00  0.00    +0.000 OA
ATOM     27  C   UNL     1       3.800   5.947  18.522  0.00  0.00    +0.000 C 
BRANCH  27  28
ATOM     28  C   UNL     1       3.421   4.514  18.620  0.00  0.00    +0.000 A 
ATOM     29  C   UNL     1       2.200   4.135  18.047  0.00  0.00    +0.000 A 
ATOM     30  C   UNL     1       1.764   2.814  18.116  0.00  0.00    +0.000 A 
ATOM     31  C   UNL     1       2.547   1.858  18.748  0.00  0.00    +0.000 A 
ATOM     32  C   UNL     1       3.754   2.224  19.347  0.00  0.00    +0.000 A 
ATOM     33  C   UNL     1       4.181   3.553  19.302  0.00  0.00    +0.000 A 
ENDBRANCH  27  28
ENDBRANCH   1  27
TORSDOF 3
ENDMDL
MODEL 5
REMARK VINA RESULT:      -9.1      3.670     10.537
REMARK  Name = 
REMARK  3 active torsions:
REMARK  status: ('A' for Active; 'I' for Inactive)
REMARK    1  A    between atoms: C_2  and  C_3
REMARK    2  A    between atoms: C_2  and  C_9
REMARK    3  A    between atoms: N_22  and  C_23
REMARK                            x       y       z     vdW  Elec       q    Type
REMARK                         _______ _______ _______ _____ _____    ______ ____
ROOT
ATOM      1  C   UNL     1       2.870   6.861  18.555  0.00  0.00    +0.000 A 
ATOM      2  C   UNL     1       2.542   7.694  17.482  0.00  0.00    +0.000 A 
ATOM      3  C   UNL     1       1.839   8.888  17.714  0.00  0.00    +0.000 A 
ATOM      4  C   UNL     1       1.395   9.211  19.004  0.00  0.00    +0.000 A 
ATOM      5  C   UNL     1       1.485   8.194  19.986  0.00  0.00    +0.000 A 
ATOM      6  C   UNL     1       2.259   7.066  19.782  0.00  0.00    +0.000 A 
ATOM      7  N   UNL     1       0.783   8.269  21.185  0.00  0.00    +0.000 NA
ATOM      8  C   UNL     1       1.181   9.275  21.883  0.00  0.00    +0.000 C 
ATOM      9  C   UNL     1       0.483  10.538  21.683  0.00  0.00    +0.000 A 
ATOM     10  C   UNL     1       0.605  11.136  20.484  0.00  0.00    +0.000 A 
ATOM     11  N   UNL     1       0.305  12.474  20.504  0.00  0.00    +0.000 N 
ATOM     12  C   UNL     1      -0.324  13.086  21.568  0.00  0.00    +0.000 A 
ATOM     13  O   UNL     1      -0.137  14.285  21.771  0.00  0.00    +0.000 OA
ATOM     14  N   UNL     1      -1.120  12.232  22.338  0.00  0.00    +0.000 N 
ATOM     15  C   UNL     1      -0.679  10.927  22.498  0.00  0.00    +0.000 A 
ATOM     16  O   UNL     1      -1.186  10.038  23.169  0.00  0.00    +0.000 OA
ATOM     17  N   UNL     1       1.088  10.581  19.302  0.00  0.00    +0.000 N 
ATOM     18  H   UNL     1       0.805  13.097  19.882  0.00  0.00    +0.000 HD
ATOM     19  H   UNL     1       0.741  11.075  18.483  0.00  0.00    +0.000 HD
ENDROOT
BRANCH  14  20
ATOM     20  C   UNL     1      -2.409  12.661  22.811  0.00  0.00    +0.000 A 
ATOM     21  C   UNL     1      -3.501  12.760  21.928  0.00  0.00    +0.000 A 
ATOM     22  C   UNL     1      -4.803  12.977  22.393  0.00  0.00    +0.000 A 
ATOM     23  C   UNL     1      -5.052  13.103  23.753  0.00  0.00    +0.000 A 
ATOM     24  C   UNL     1      -3.990  13.054  24.644  0.00  0.00    +0.000 A 
ATOM     25  C   UNL     1      -2.687  12.862  24.174  0.00  0.00    +0.000 A 
ENDBRANCH  14  20
BRANCH   1  27
ATOM     26  O   UNL     1       3.480   4.615  18.674  0.00  0.00    +0.000 OA
ATOM     27  C   UNL     1       3.870   5.770  18.516  0.00  0.00    +0.000 C 
BRANCH  27  28
ATOM     28  C   UNL     1       5.332   6.015  18.414  0.00  0.00    +0.000 A 
ATOM     29  C   UNL     1       6.149   5.420  19.384  0.00  0.00    +0.000 A 
ATOM     30  C   UNL     1       7.527   5.619  19.370  0.00  0.00    +0.000 A 
ATOM     31  C   UNL     1       8.104   6.406  18.382  0.00  0.00    +0.000 A 
ATOM     32  C   UNL     1       7.301   7.028  17.425  0.00  0.00    +0.000 A 
ATOM     33  C   UNL     1       5.916   6.850  17.451  0.00  0.00    +0.000 A 
ENDBRANCH  27  28
ENDBRANCH   1  27
TORSDOF 3
ENDMDL
MODEL 6
REMARK VINA RESULT:      -9.1      4.546     10.882
REMARK  Name = 
REMARK  3 active torsions:
REMARK  status: ('A' for Active; 'I' for Inactive)
REMARK    1  A    between atoms: C_2  and  C_3
REMARK    2  A    between atoms: C_2  and  C_9
REMARK    3  A    between atoms: N_22  and  C_23
REMARK                            x       y       z     vdW  Elec       q    Type
REMARK                         _______ _______ _______ _____ _____    ______ ____
ROOT
ATOM      1  C   UNL     1       2.231   7.524  18.830  0.00  0.00    +0.000 A 
ATOM      2  C   UNL     1       2.242   8.515  17.844  0.00  0.00    +0.000 A 
ATOM      3  C   UNL     1       1.761   9.801  18.141  0.00  0.00    +0.000 A 
ATOM      4  C   UNL     1       1.196  10.076  19.395  0.00  0.00    +0.000 A 
ATOM      5  C   UNL     1       0.933   8.966  20.235  0.00  0.00    +0.000 A 
ATOM      6  C   UNL     1       1.491   7.726  19.984  0.00  0.00    +0.000 A 
ATOM      7  N   UNL     1       0.083   9.065  21.334  0.00  0.00    +0.000 NA
ATOM      8  C   UNL     1       0.560   9.884  22.205  0.00  0.00    +0.000 C 
ATOM      9  C   UNL     1       0.164  11.281  22.088  0.00  0.00    +0.000 A 
ATOM     10  C   UNL     1       0.584  11.960  21.005  0.00  0.00    +0.000 A 
ATOM     11  N   UNL     1       0.554  13.322  21.166  0.00  0.00    +0.000 N 
ATOM     12  C   UNL     1      -0.098  13.941  22.211  0.00  0.00    +0.000 A 
ATOM     13  O   UNL     1       0.288  15.044  22.595  0.00  0.00    +0.000 OA
ATOM     14  N   UNL     1      -1.156  13.202  22.752  0.00  0.00    +0.000 N 
ATOM     15  C   UNL     1      -1.010  11.823  22.791  0.00  0.00    +0.000 A 
ATOM     16  O   UNL     1      -1.779  10.998  23.266  0.00  0.00    +0.000 OA
ATOM     17  N   UNL     1       1.123  11.441  19.831  0.00  0.00    +0.000 N 
ATOM     18  H   UNL     1       1.256  13.885  20.702  0.00  0.00    +0.000 HD
ATOM     19  H   UNL     1       1.010  12.080  19.048  0.00  0.00    +0.000 HD
ENDROOT
BRANCH  14  20
ATOM     20  C   UNL     1      -2.392  13.844  23.108  0.00  0.00    +0.000 A 
ATOM     21  C   UNL     1      -2.579  14.376  24.399  0.00  0.00    +0.000 A 
ATOM     22  C   UNL     1      -3.683  15.177  24.710  0.00  0.00    +0.000 A 
ATOM     23  C   UNL     1      -4.633  15.469  23.742  0.00  0.00    +0.000 A 
ATOM     24  C   UNL     1      -4.500  14.924  22.473  0.00  0.00    +0.000 A 
ATOM     25  C   UNL     1      -3.409  14.103  22.173  0.00  0.00    +0.000 A 
ENDBRANCH  14  20
BRANCH   1  27
ATOM     26  O   UNL     1       4.113   6.268  18.272  0.00  0.00    +0.000 OA
ATOM     27  C   UNL     1       2.991   6.255  18.773  0.00  0.00    +0.000 C 
BRANCH  27  28
ATOM     28  C   UNL     1       2.415   4.948  19.182  0.00  0.00    +0.000 A 
ATOM     29  C   UNL     1       1.719   4.222  18.206  0.00  0.00    +0.000 A 
ATOM     30  C   UNL     1       1.132   2.998  18.517  0.00  0.00    +0.000 A 
ATOM     31  C   UNL     1       1.240   2.483  19.801  0.00  0.00    +0.000 A 
ATOM     32  C   UNL     1       1.906   3.207  20.792  0.00  0.00    +0.000 A 
ATOM     33  C   UNL     1       2.475   4.446  20.490  0.00  0.00    +0.000 A 
ENDBRANCH  27  28
ENDBRANCH   1  27
TORSDOF 3
ENDMDL
MODEL 7
REMARK VINA RESULT:      -8.7      2.939      9.624
REMARK  Name = 
REMARK  3 active torsions:
REMARK  status: ('A' for Active; 'I' for Inactive)
REMARK    1  A    between atoms: C_2  and  C_3
REMARK    2  A    between atoms: C_2  and  C_9
REMARK    3  A    between atoms: N_22  and  C_23
REMARK                            x       y       z     vdW  Elec       q    Type
REMARK                         _______ _______ _______ _____ _____    ______ ____
ROOT
ATOM      1  C   UNL     1       3.119   5.519  18.587  0.00  0.00    +0.000 A 
ATOM      2  C   UNL     1       2.774   5.364  19.932  0.00  0.00    +0.000 A 
ATOM      3  C   UNL     1       2.111   6.402  20.607  0.00  0.00    +0.000 A 
ATOM      4  C   UNL     1       1.863   7.623  19.964  0.00  0.00    +0.000 A 
ATOM      5  C   UNL     1       2.502   7.830  18.716  0.00  0.00    +0.000 A 
ATOM      6  C   UNL     1       3.068   6.781  18.016  0.00  0.00    +0.000 A 
ATOM      7  N   UNL     1       2.611   9.098  18.151  0.00  0.00    +0.000 NA
ATOM      8  C   UNL     1       1.448   9.576  17.876  0.00  0.00    +0.000 C 
ATOM      9  C   UNL     1       0.795  10.366  18.911  0.00  0.00    +0.000 A 
ATOM     10  C   UNL     1       0.430   9.735  20.042  0.00  0.00    +0.000 A 
ATOM     11  N   UNL     1      -0.532  10.402  20.757  0.00  0.00    +0.000 N 
ATOM     12  C   UNL     1      -0.886  11.710  20.501  0.00  0.00    +0.000 A 
ATOM     13  O   UNL     1      -2.017  12.096  20.790  0.00  0.00    +0.000 OA
ATOM     14  N   UNL     1       0.119  12.473  19.898  0.00  0.00    +0.000 N 
ATOM     15  C   UNL     1       0.948  11.827  18.992  0.00  0.00    +0.000 A 
ATOM     16  O   UNL     1       1.846  12.312  18.317  0.00  0.00    +0.000 OA
ATOM     17  N   UNL     1       0.833   8.477  20.483  0.00  0.00    +0.000 N 
ATOM     18  H   UNL     1      -1.212   9.866  21.282  0.00  0.00    +0.000 HD
ATOM     19  H   UNL     1       0.739   8.382  21.491  0.00  0.00    +0.000 HD
ENDROOT
BRANCH  14  20
ATOM     20  C   UNL     1       0.363  13.827  20.317  0.00  0.00    +0.000 A 
ATOM     21  C   UNL     1      -0.166  14.911  19.590  0.00  0.00    +0.000 A 
ATOM     22  C   UNL     1      -0.116  16.219  20.082  0.00  0.00    +0.000 A 
ATOM     23  C   UNL     1       0.466  16.484  21.314  0.00  0.00    +0.000 A 
ATOM     24  C   UNL     1       1.034  15.444  22.034  0.00  0.00    +0.000 A 
ATOM     25  C   UNL     1       1.004  14.141  21.528  0.00  0.00    +0.000 A 
ENDBRANCH  14  20
BRANCH   1  27
ATOM     26  O   UNL     1       2.828   3.398  17.667  0.00  0.00    +0.000 OA
ATOM     27  C   UNL     1       3.509   4.421  17.673  0.00  0.00    +0.000 C 
BRANCH  27  28
ATOM     28  C   UNL     1       4.748   4.450  16.854  0.00  0.00    +0.000 A 
ATOM     29  C   UNL     1       5.964   4.574  17.539  0.00  0.00    +0.000 A 
ATOM     30  C   UNL     1       7.168   4.630  16.842  0.00  0.00    +0.000 A 
ATOM     31  C   UNL     1       7.171   4.555  15.456  0.00  0.00    +0.000 A 
ATOM     32  C   UNL     1       5.966   4.460  14.757  0.00  0.00    +0.000 A 
ATOM     33  C   UNL     1       4.755   4.428  15.452  0.00  0.00    +0.000 A 
ENDBRANCH  27  28
ENDBRANCH   1  27
TORSDOF 3
ENDMDL
MODEL 8
REMARK VINA RESULT:      -8.6      2.993      9.611
REMARK  Name = 
REMARK  3 active torsions:
REMARK  status: ('A' for Active; 'I' for Inactive)
REMARK    1  A    between atoms: C_2  and  C_3
REMARK    2  A    between atoms: C_2  and  C_9
REMARK    3  A    between atoms: N_22  and  C_23
REMARK                            x       y       z     vdW  Elec       q    Type
REMARK                         _______ _______ _______ _____ _____    ______ ____
ROOT
ATOM      1  C   UNL     1       3.097   5.558  18.638  0.00  0.00    +0.000 A 
ATOM      2  C   UNL     1       2.672   5.394  19.959  0.00  0.00    +0.000 A 
ATOM      3  C   UNL     1       1.979   6.432  20.604  0.00  0.00    +0.000 A 
ATOM      4  C   UNL     1       1.780   7.661  19.959  0.00  0.00    +0.000 A 
ATOM      5  C   UNL     1       2.494   7.874  18.753  0.00  0.00    +0.000 A 
ATOM      6  C   UNL     1       3.092   6.826  18.077  0.00  0.00    +0.000 A 
ATOM      7  N   UNL     1       2.648   9.145  18.208  0.00  0.00    +0.000 NA
ATOM      8  C   UNL     1       1.508   9.637  17.870  0.00  0.00    +0.000 C 
ATOM      9  C   UNL     1       0.802  10.424  18.872  0.00  0.00    +0.000 A 
ATOM     10  C   UNL     1       0.365   9.786  19.972  0.00  0.00    +0.000 A 
ATOM     11  N   UNL     1      -0.632  10.455  20.636  0.00  0.00    +0.000 N 
ATOM     12  C   UNL     1      -0.958  11.769  20.373  0.00  0.00    +0.000 A 
ATOM     13  O   UNL     1      -2.101  12.163  20.598  0.00  0.00    +0.000 OA
ATOM     14  N   UNL     1       0.087  12.528  19.837  0.00  0.00    +0.000 N 
ATOM     15  C   UNL     1       0.963  11.883  18.976  0.00  0.00    +0.000 A 
ATOM     16  O   UNL     1       1.904  12.365  18.360  0.00  0.00    +0.000 OA
ATOM     17  N   UNL     1       0.730   8.520  20.424  0.00  0.00    +0.000 N 
ATOM     18  H   UNL     1      -1.347   9.921  21.115  0.00  0.00    +0.000 HD
ATOM     19  H   UNL     1       0.575   8.417  21.424  0.00  0.00    +0.000 HD
ENDROOT
BRANCH  14  20
ATOM     20  C   UNL     1       0.318  13.876  20.284  0.00  0.00    +0.000 A 
ATOM     21  C   UNL     1       1.076  14.128  21.444  0.00  0.00    +0.000 A 
ATOM     22  C   UNL     1       1.483  15.421  21.787  0.00  0.00    +0.000 A 
ATOM     23  C   UNL     1       1.144  16.501  20.984  0.00  0.00    +0.000 A 
ATOM     24  C   UNL     1       0.361  16.291  19.859  0.00  0.00    +0.000 A 
ATOM     25  C   UNL     1      -0.066  14.999  19.532  0.00  0.00    +0.000 A 
ENDBRANCH  14  20
BRANCH   1  27
ATOM     26  O   UNL     1       2.846   3.445  17.688  0.00  0.00    +0.000 OA
ATOM     27  C   UNL     1       3.530   4.465  17.738  0.00  0.00    +0.000 C 
BRANCH  27  28
ATOM     28  C   UNL     1       4.812   4.494  16.987  0.00  0.00    +0.000 A 
ATOM     29  C   UNL     1       4.738   4.378  15.592  0.00  0.00    +0.000 A 
ATOM     30  C   UNL     1       5.897   4.375  14.819  0.00  0.00    +0.000 A 
ATOM     31  C   UNL     1       7.137   4.498  15.429  0.00  0.00    +0.000 A 
ATOM     32  C   UNL     1       7.229   4.587  16.819  0.00  0.00    +0.000 A 
ATOM     33  C   UNL     1       6.071   4.565  17.599  0.00  0.00    +0.000 A 
ENDBRANCH  27  28
ENDBRANCH   1  27
TORSDOF 3
ENDMDL
