MODEL 1
REMARK VINA RESULT:      -7.9      0.000      0.000
REMARK  Name = 
REMARK  5 active torsions:
REMARK  status: ('A' for Active; 'I' for Inactive)
REMARK    1  A    between atoms: C_3  and  C_4
REMARK    2  A    between atoms: C_4  and  C_5
REMARK    3  A    between atoms: C_16  and  C_17
REMARK    4  A    between atoms: N_22  and  C_23
REMARK    5  A    between atoms: C_23  and  C_24
REMARK                            x       y       z     vdW  Elec       q    Type
REMARK                         _______ _______ _______ _____ _____    ______ ____
ROOT
ATOM      1  O   UNL     1       1.472  11.306  18.616  0.00  0.00    +0.000 OA
ATOM      2  C   UNL     1       0.781  10.509  19.264  0.00  0.00    +0.000 C 
ATOM      3  C   UNL     1       1.438   9.176  19.676  0.00  0.00    +0.000 C 
ATOM      4  N   UNL     1       0.815   8.580  20.897  0.00  0.00    +0.000 NA
ATOM      5  C   UNL     1       1.346   9.224  22.111  0.00  0.00    +0.000 C 
ATOM      6  C   UNL     1       0.260   9.530  23.147  0.00  0.00    +0.000 C 
ATOM      7  C   UNL     1      -0.894  10.416  22.652  0.00  0.00    +0.000 C 
ATOM      8  C   UNL     1      -0.424  11.734  22.021  0.00  0.00    +0.000 C 
ATOM      9  C   UNL     1      -0.789  11.964  20.527  0.00  0.00    +0.000 C 
ATOM     10  N   UNL     1      -0.517  10.804  19.658  0.00  0.00    +0.000 N 
ATOM     11  H   UNL     1       1.097   7.596  20.932  0.00  0.00    +0.000 HD
ENDROOT
BRANCH   9  12
ATOM     12  C   UNL     1      -0.079  13.193  20.027  0.00  0.00    +0.000 A 
ATOM     13  C   UNL     1      -0.300  14.045  18.957  0.00  0.00    +0.000 A 
ATOM     14  C   UNL     1       0.617  15.111  19.094  0.00  0.00    +0.000 A 
ATOM     15  C   UNL     1       1.360  14.828  20.212  0.00  0.00    +0.000 A 
ATOM     16  O   UNL     1       0.967  13.655  20.773  0.00  0.00    +0.000 OA
ENDBRANCH   9  12
BRANCH   3  17
ATOM     17  C   UNL     1       1.539   8.258  18.439  0.00  0.00    +0.000 C 
BRANCH  17  18
ATOM     18  C   UNL     1       2.708   7.296  18.487  0.00  0.00    +0.000 A 
ATOM     19  C   UNL     1       3.715   7.372  17.518  0.00  0.00    +0.000 A 
ATOM     20  C   UNL     1       4.733   6.420  17.480  0.00  0.00    +0.000 A 
ATOM     21  C   UNL     1       4.765   5.392  18.421  0.00  0.00    +0.000 A 
ATOM     22  C   UNL     1       3.809   5.347  19.433  0.00  0.00    +0.000 A 
ATOM     23  C   UNL     1       2.794   6.304  19.477  0.00  0.00    +0.000 A 
ENDBRANCH  17  18
ENDBRANCH   3  17
BRANCH  10  24
ATOM     24  C   UNL     1      -1.647   9.961  19.262  0.00  0.00    +0.000 C 
BRANCH  24  25
ATOM     25  C   UNL     1      -2.368  10.404  17.992  0.00  0.00    +0.000 A 
ATOM     26  C   UNL     1      -1.978   9.876  16.752  0.00  0.00    +0.000 A 
ATOM     27  C   UNL     1      -2.688  10.173  15.580  0.00  0.00    +0.000 A 
ATOM     28  C   UNL     1      -3.805  10.996  15.632  0.00  0.00    +0.000 A 
ATOM     29  C   UNL     1      -4.203  11.535  16.856  0.00  0.00    +0.000 A 
ATOM     30  C   UNL     1      -3.491  11.239  18.025  0.00  0.00    +0.000 A 
ENDBRANCH  24  25
ENDBRANCH  10  24
TORSDOF 5
ENDMDL
MODEL 2
REMARK VINA RESULT:      -7.6      0.176      1.275
REMARK  Name = 
REMARK  5 active torsions:
REMARK  status: ('A' for Active; 'I' for Inactive)
REMARK    1  A    between atoms: C_3  and  C_4
REMARK    2  A    between atoms: C_4  and  C_5
REMARK    3  A    between atoms: C_16  and  C_17
REMARK    4  A    between atoms: N_22  and  C_23
REMARK    5  A    between atoms: C_23  and  C_24
REMARK                            x       y       z     vdW  Elec       q    Type
REMARK                         _______ _______ _______ _____ _____    ______ ____
ROOT
ATOM      1  O   UNL     1       1.407  11.268  18.472  0.00  0.00    +0.000 OA
ATOM      2  C   UNL     1       0.768  10.451  19.146  0.00  0.00    +0.000 C 
ATOM      3  C   UNL     1       1.488   9.148  19.548  0.00  0.00    +0.000 C 
ATOM      4  N   UNL     1       0.927   8.539  20.792  0.00  0.00    +0.000 NA
ATOM      5  C   UNL     1       1.467   9.214  21.984  0.00  0.00    +0.000 C 
ATOM      6  C   UNL     1       0.402   9.487  23.050  0.00  0.00    +0.000 C 
ATOM      7  C   UNL     1      -0.801  10.322  22.583  0.00  0.00    +0.000 C 
ATOM      8  C   UNL     1      -0.402  11.652  21.928  0.00  0.00    +0.000 C 
ATOM      9  C   UNL     1      -0.820  11.854  20.444  0.00  0.00    +0.000 C 
ATOM     10  N   UNL     1      -0.528  10.698  19.576  0.00  0.00    +0.000 N 
ATOM     11  H   UNL     1       1.247   7.568  20.825  0.00  0.00    +0.000 HD
ENDROOT
BRANCH   9  12
ATOM     12  C   UNL     1      -0.174  13.106  19.914  0.00  0.00    +0.000 A 
ATOM     13  C   UNL     1      -0.481  13.959  18.866  0.00  0.00    +0.000 A 
ATOM     14  C   UNL     1       0.413  15.049  18.958  0.00  0.00    +0.000 A 
ATOM     15  C   UNL     1       1.229  14.779  20.028  0.00  0.00    +0.000 A 
ATOM     16  O   UNL     1       0.901  13.591  20.600  0.00  0.00    +0.000 OA
ENDBRANCH   9  12
BRANCH   3  17
ATOM     17  C   UNL     1       1.589   8.225  18.315  0.00  0.00    +0.000 C 
BRANCH  17  18
ATOM     18  C   UNL     1       2.714   7.214  18.401  0.00  0.00    +0.000 A 
ATOM     19  C   UNL     1       2.719   6.260  19.425  0.00  0.00    +0.000 A 
ATOM     20  C   UNL     1       3.806   5.401  19.587  0.00  0.00    +0.000 A 
ATOM     21  C   UNL     1       4.892   5.476  18.716  0.00  0.00    +0.000 A 
ATOM     22  C   UNL     1       4.867   6.372  17.650  0.00  0.00    +0.000 A 
ATOM     23  C   UNL     1       3.776   7.227  17.483  0.00  0.00    +0.000 A 
ENDBRANCH  17  18
ENDBRANCH   3  17
BRANCH  10  24
ATOM     24  C   UNL     1      -1.635   9.808  19.221  0.00  0.00    +0.000 C 
BRANCH  24  25
ATOM     25  C   UNL     1      -2.409  10.211  17.969  0.00  0.00    +0.000 A 
ATOM     26  C   UNL     1      -3.512  11.070  18.080  0.00  0.00    +0.000 A 
ATOM     27  C   UNL     1      -4.178  11.551  16.944  0.00  0.00    +0.000 A 
ATOM     28  C   UNL     1      -3.745  11.185  15.677  0.00  0.00    +0.000 A 
ATOM     29  C   UNL     1      -2.653  10.326  15.547  0.00  0.00    +0.000 A 
ATOM     30  C   UNL     1      -1.992   9.845  16.684  0.00  0.00    +0.000 A 
ENDBRANCH  24  25
ENDBRANCH  10  24
TORSDOF 5
ENDMDL
MODEL 3
REMARK VINA RESULT:      -7.5      0.562      1.150
REMARK  Name = 
REMARK  5 active torsions:
REMARK  status: ('A' for Active; 'I' for Inactive)
REMARK    1  A    between atoms: C_3  and  C_4
REMARK    2  A    between atoms: C_4  and  C_5
REMARK    3  A    between atoms: C_16  and  C_17
REMARK    4  A    between atoms: N_22  and  C_23
REMARK    5  A    between atoms: C_23  and  C_24
REMARK                            x       y       z     vdW  Elec       q    Type
REMARK                         _______ _______ _______ _____ _____    ______ ____
ROOT
ATOM      1  O   UNL     1       1.329  11.374  18.604  0.00  0.00    +0.000 OA
ATOM      2  C   UNL     1       0.702  10.530  19.257  0.00  0.00    +0.000 C 
ATOM      3  C   UNL     1       1.445   9.229  19.627  0.00  0.00    +0.000 C 
ATOM      4  N   UNL     1       0.893   8.580  20.855  0.00  0.00    +0.000 NA
ATOM      5  C   UNL     1       1.423   9.234  22.064  0.00  0.00    +0.000 C 
ATOM      6  C   UNL     1       0.353   9.462  23.136  0.00  0.00    +0.000 C 
ATOM      7  C   UNL     1      -0.863  10.289  22.690  0.00  0.00    +0.000 C 
ATOM      8  C   UNL     1      -0.487  11.641  22.068  0.00  0.00    +0.000 C 
ATOM      9  C   UNL     1      -0.908  11.873  20.590  0.00  0.00    +0.000 C 
ATOM     10  N   UNL     1      -0.597  10.744  19.693  0.00  0.00    +0.000 N 
ATOM     11  H   UNL     1       1.230   7.613  20.864  0.00  0.00    +0.000 HD
ENDROOT
BRANCH   9  12
ATOM     12  C   UNL     1      -0.283  13.149  20.091  0.00  0.00    +0.000 A 
ATOM     13  C   UNL     1       0.776  13.922  20.538  0.00  0.00    +0.000 A 
ATOM     14  C   UNL     1       0.983  14.924  19.565  0.00  0.00    +0.000 A 
ATOM     15  C   UNL     1       0.020  14.725  18.607  0.00  0.00    +0.000 A 
ATOM     16  O   UNL     1      -0.771  13.667  18.927  0.00  0.00    +0.000 OA
ENDBRANCH   9  12
BRANCH   3  17
ATOM     17  C   UNL     1       1.561   8.338  18.372  0.00  0.00    +0.000 C 
BRANCH  17  18
ATOM     18  C   UNL     1       2.711   7.354  18.427  0.00  0.00    +0.000 A 
ATOM     19  C   UNL     1       3.740   7.430  17.480  0.00  0.00    +0.000 A 
ATOM     20  C   UNL     1       4.742   6.460  17.446  0.00  0.00    +0.000 A 
ATOM     21  C   UNL     1       4.735   5.415  18.367  0.00  0.00    +0.000 A 
ATOM     22  C   UNL     1       3.757   5.369  19.358  0.00  0.00    +0.000 A 
ATOM     23  C   UNL     1       2.759   6.342  19.398  0.00  0.00    +0.000 A 
ENDBRANCH  17  18
ENDBRANCH   3  17
BRANCH  10  24
ATOM     24  C   UNL     1      -1.689   9.845  19.315  0.00  0.00    +0.000 C 
BRANCH  24  25
ATOM     25  C   UNL     1      -2.424  10.227  18.033  0.00  0.00    +0.000 A 
ATOM     26  C   UNL     1      -3.524  11.096  18.096  0.00  0.00    +0.000 A 
ATOM     27  C   UNL     1      -4.154  11.557  16.931  0.00  0.00    +0.000 A 
ATOM     28  C   UNL     1      -3.686  11.163  15.685  0.00  0.00    +0.000 A 
ATOM     29  C   UNL     1      -2.598  10.294  15.604  0.00  0.00    +0.000 A 
ATOM     30  C   UNL     1      -1.972   9.833  16.769  0.00  0.00    +0.000 A 
ENDBRANCH  24  25
ENDBRANCH  10  24
TORSDOF 5
ENDMDL
MODEL 4
REMARK VINA RESULT:      -7.1      0.916      1.139
REMARK  Name = 
REMARK  5 active torsions:
REMARK  status: ('A' for Active; 'I' for Inactive)
REMARK    1  A    between atoms: C_3  and  C_4
REMARK    2  A    between atoms: C_4  and  C_5
REMARK    3  A    between atoms: C_16  and  C_17
REMARK    4  A    between atoms: N_22  and  C_23
REMARK    5  A    between atoms: C_23  and  C_24
REMARK                            x       y       z     vdW  Elec       q    Type
REMARK                         _______ _______ _______ _____ _____    ______ ____
ROOT
ATOM      1  O   UNL     1       1.913  11.051  18.124  0.00  0.00    +0.000 OA
ATOM      2  C   UNL     1       1.201  10.236  18.724  0.00  0.00    +0.000 C 
ATOM      3  C   UNL     1       1.859   8.911  19.163  0.00  0.00    +0.000 C 
ATOM      4  N   UNL     1       1.179   8.292  20.340  0.00  0.00    +0.000 NA
ATOM      5  C   UNL     1       1.626   8.934  21.588  0.00  0.00    +0.000 C 
ATOM      6  C   UNL     1       0.476   9.210  22.562  0.00  0.00    +0.000 C 
ATOM      7  C   UNL     1      -0.665  10.078  22.009  0.00  0.00    +0.000 C 
ATOM      8  C   UNL     1      -0.185  11.411  21.417  0.00  0.00    +0.000 C 
ATOM      9  C   UNL     1      -0.468  11.648  19.906  0.00  0.00    +0.000 C 
ATOM     10  N   UNL     1      -0.122  10.501  19.045  0.00  0.00    +0.000 N 
ATOM     11  H   UNL     1       1.477   7.313  20.383  0.00  0.00    +0.000 HD
ENDROOT
BRANCH   9  12
ATOM     12  C   UNL     1       0.246  12.895  19.459  0.00  0.00    +0.000 A 
ATOM     13  C   UNL     1       0.046  13.776  18.408  0.00  0.00    +0.000 A 
ATOM     14  C   UNL     1       0.951  14.843  18.597  0.00  0.00    +0.000 A 
ATOM     15  C   UNL     1       1.669  14.533  19.725  0.00  0.00    +0.000 A 
ATOM     16  O   UNL     1       1.270  13.342  20.243  0.00  0.00    +0.000 OA
ENDBRANCH   9  12
BRANCH   3  17
ATOM     17  C   UNL     1       2.050   8.008  17.926  0.00  0.00    +0.000 C 
BRANCH  17  18
ATOM     18  C   UNL     1       2.558   6.619  18.257  0.00  0.00    +0.000 A 
ATOM     19  C   UNL     1       1.780   5.498  17.944  0.00  0.00    +0.000 A 
ATOM     20  C   UNL     1       2.181   4.225  18.349  0.00  0.00    +0.000 A 
ATOM     21  C   UNL     1       3.370   4.057  19.055  0.00  0.00    +0.000 A 
ATOM     22  C   UNL     1       4.187   5.156  19.310  0.00  0.00    +0.000 A 
ATOM     23  C   UNL     1       3.792   6.430  18.899  0.00  0.00    +0.000 A 
ENDBRANCH  17  18
ENDBRANCH   3  17
BRANCH  10  24
ATOM     24  C   UNL     1      -1.211   9.641  18.577  0.00  0.00    +0.000 C 
BRANCH  24  25
ATOM     25  C   UNL     1      -2.287  10.350  17.759  0.00  0.00    +0.000 A 
ATOM     26  C   UNL     1      -2.208  10.347  16.358  0.00  0.00    +0.000 A 
ATOM     27  C   UNL     1      -3.235  10.890  15.571  0.00  0.00    +0.000 A 
ATOM     28  C   UNL     1      -4.360  11.435  16.174  0.00  0.00    +0.000 A 
ATOM     29  C   UNL     1      -4.452  11.451  17.566  0.00  0.00    +0.000 A 
ATOM     30  C   UNL     1      -3.425  10.911  18.350  0.00  0.00    +0.000 A 
ENDBRANCH  24  25
ENDBRANCH  10  24
TORSDOF 5
ENDMDL
MODEL 5
REMARK VINA RESULT:      -7.0      1.883      4.656
REMARK  Name = 
REMARK  5 active torsions:
REMARK  status: ('A' for Active; 'I' for Inactive)
REMARK    1  A    between atoms: C_3  and  C_4
REMARK    2  A    between atoms: C_4  and  C_5
REMARK    3  A    between atoms: C_16  and  C_17
REMARK    4  A    between atoms: N_22  and  C_23
REMARK    5  A    between atoms: C_23  and  C_24
REMARK                            x       y       z     vdW  Elec       q    Type
REMARK                         _______ _______ _______ _____ _____    ______ ____
ROOT
ATOM      1  O   UNL     1       0.059  11.133  20.875  0.00  0.00    +0.000 OA
ATOM      2  C   UNL     1      -0.309  11.300  19.706  0.00  0.00    +0.000 C 
ATOM      3  C   UNL     1      -0.123  10.119  18.731  0.00  0.00    +0.000 C 
ATOM      4  N   UNL     1      -1.088  10.155  17.590  0.00  0.00    +0.000 NA
ATOM      5  C   UNL     1      -2.395   9.616  18.005  0.00  0.00    +0.000 C 
ATOM      6  C   UNL     1      -3.573  10.445  17.488  0.00  0.00    +0.000 C 
ATOM      7  C   UNL     1      -3.566  11.928  17.891  0.00  0.00    +0.000 C 
ATOM      8  C   UNL     1      -3.430  12.147  19.405  0.00  0.00    +0.000 C 
ATOM      9  C   UNL     1      -2.177  12.929  19.889  0.00  0.00    +0.000 C 
ATOM     10  N   UNL     1      -0.913  12.473  19.279  0.00  0.00    +0.000 N 
ATOM     11  H   UNL     1      -0.723   9.533  16.864  0.00  0.00    +0.000 HD
ENDROOT
BRANCH   9  12
ATOM     12  C   UNL     1      -2.105  12.868  21.391  0.00  0.00    +0.000 A 
ATOM     13  C   UNL     1      -1.388  13.586  22.335  0.00  0.00    +0.000 A 
ATOM     14  C   UNL     1      -1.857  13.169  23.600  0.00  0.00    +0.000 A 
ATOM     15  C   UNL     1      -2.800  12.203  23.354  0.00  0.00    +0.000 A 
ATOM     16  O   UNL     1      -2.941  11.992  22.019  0.00  0.00    +0.000 OA
ENDBRANCH   9  12
BRANCH   3  17
ATOM     17  C   UNL     1       1.371   9.997  18.364  0.00  0.00    +0.000 C 
BRANCH  17  18
ATOM     18  C   UNL     1       1.972   8.646  18.694  0.00  0.00    +0.000 A 
ATOM     19  C   UNL     1       2.792   8.000  17.761  0.00  0.00    +0.000 A 
ATOM     20  C   UNL     1       3.254   6.706  18.002  0.00  0.00    +0.000 A 
ATOM     21  C   UNL     1       2.917   6.052  19.186  0.00  0.00    +0.000 A 
ATOM     22  C   UNL     1       2.162   6.712  20.153  0.00  0.00    +0.000 A 
ATOM     23  C   UNL     1       1.705   8.009  19.916  0.00  0.00    +0.000 A 
ENDBRANCH  17  18
ENDBRANCH   3  17
BRANCH  10  24
ATOM     24  C   UNL     1      -0.347  13.275  18.192  0.00  0.00    +0.000 C 
BRANCH  24  25
ATOM     25  C   UNL     1       0.978  13.959  18.518  0.00  0.00    +0.000 A 
ATOM     26  C   UNL     1       1.004  15.021  19.434  0.00  0.00    +0.000 A 
ATOM     27  C   UNL     1       2.214  15.600  19.842  0.00  0.00    +0.000 A 
ATOM     28  C   UNL     1       3.418  15.117  19.348  0.00  0.00    +0.000 A 
ATOM     29  C   UNL     1       3.411  14.065  18.433  0.00  0.00    +0.000 A 
ATOM     30  C   UNL     1       2.201  13.490  18.024  0.00  0.00    +0.000 A 
ENDBRANCH  24  25
ENDBRANCH  10  24
TORSDOF 5
ENDMDL
MODEL 6
REMARK VINA RESULT:      -6.9      2.948      7.398
REMARK  Name = 
REMARK  5 active torsions:
REMARK  status: ('A' for Active; 'I' for Inactive)
REMARK    1  A    between atoms: C_3  and  C_4
REMARK    2  A    between atoms: C_4  and  C_5
REMARK    3  A    between atoms: C_16  and  C_17
REMARK    4  A    between atoms: N_22  and  C_23
REMARK    5  A    between atoms: C_23  and  C_24
REMARK                            x       y       z     vdW  Elec       q    Type
REMARK                         _______ _______ _______ _____ _____    ______ ____
ROOT
ATOM      1  O   UNL     1      -2.722  12.379  20.522  0.00  0.00    +0.000 OA
ATOM      2  C   UNL     1      -1.651  12.243  21.126  0.00  0.00    +0.000 C 
ATOM      3  C   UNL     1      -1.719  12.067  22.657  0.00  0.00    +0.000 C 
ATOM      4  N   UNL     1      -0.539  11.332  23.206  0.00  0.00    +0.000 NA
ATOM      5  C   UNL     1      -0.709   9.880  23.024  0.00  0.00    +0.000 C 
ATOM      6  C   UNL     1       0.571   9.185  22.547  0.00  0.00    +0.000 C 
ATOM      7  C   UNL     1       1.165   9.722  21.236  0.00  0.00    +0.000 C 
ATOM      8  C   UNL     1       0.157   9.756  20.079  0.00  0.00    +0.000 C 
ATOM      9  C   UNL     1      -0.159  11.149  19.466  0.00  0.00    +0.000 C 
ATOM     10  N   UNL     1      -0.430  12.197  20.468  0.00  0.00    +0.000 N 
ATOM     11  H   UNL     1      -0.515  11.508  24.214  0.00  0.00    +0.000 HD
ENDROOT
BRANCH   9  12
ATOM     12  C   UNL     1      -1.305  11.016  18.499  0.00  0.00    +0.000 A 
ATOM     13  C   UNL     1      -1.791  11.831  17.489  0.00  0.00    +0.000 A 
ATOM     14  C   UNL     1      -2.801  11.097  16.829  0.00  0.00    +0.000 A 
ATOM     15  C   UNL     1      -2.893   9.900  17.494  0.00  0.00    +0.000 A 
ATOM     16  O   UNL     1      -2.010   9.848  18.525  0.00  0.00    +0.000 OA
ENDBRANCH   9  12
BRANCH   3  17
ATOM     17  C   UNL     1      -2.045  13.427  23.308  0.00  0.00    +0.000 C 
BRANCH  17  18
ATOM     18  C   UNL     1      -3.524  13.648  23.551  0.00  0.00    +0.000 A 
ATOM     19  C   UNL     1      -4.303  12.621  24.096  0.00  0.00    +0.000 A 
ATOM     20  C   UNL     1      -5.685  12.768  24.214  0.00  0.00    +0.000 A 
ATOM     21  C   UNL     1      -6.300  13.949  23.806  0.00  0.00    +0.000 A 
ATOM     22  C   UNL     1      -5.527  15.006  23.329  0.00  0.00    +0.000 A 
ATOM     23  C   UNL     1      -4.144  14.863  23.217  0.00  0.00    +0.000 A 
ENDBRANCH  17  18
ENDBRANCH   3  17
BRANCH  10  24
ATOM     24  C   UNL     1       0.638  13.153  20.768  0.00  0.00    +0.000 C 
BRANCH  24  25
ATOM     25  C   UNL     1       0.689  14.371  19.851  0.00  0.00    +0.000 A 
ATOM     26  C   UNL     1      -0.491  15.069  19.555  0.00  0.00    +0.000 A 
ATOM     27  C   UNL     1      -0.468  16.256  18.809  0.00  0.00    +0.000 A 
ATOM     28  C   UNL     1       0.740  16.768  18.355  0.00  0.00    +0.000 A 
ATOM     29  C   UNL     1       1.923  16.084  18.634  0.00  0.00    +0.000 A 
ATOM     30  C   UNL     1       1.897  14.898  19.377  0.00  0.00    +0.000 A 
ENDBRANCH  24  25
ENDBRANCH  10  24
TORSDOF 5
ENDMDL
MODEL 7
REMARK VINA RESULT:      -6.8      2.088      4.771
REMARK  Name = 
REMARK  5 active torsions:
REMARK  status: ('A' for Active; 'I' for Inactive)
REMARK    1  A    between atoms: C_3  and  C_4
REMARK    2  A    between atoms: C_4  and  C_5
REMARK    3  A    between atoms: C_16  and  C_17
REMARK    4  A    between atoms: N_22  and  C_23
REMARK    5  A    between atoms: C_23  and  C_24
REMARK                            x       y       z     vdW  Elec       q    Type
REMARK                         _______ _______ _______ _____ _____    ______ ____
ROOT
ATOM      1  O   UNL     1      -1.378   9.738  19.413  0.00  0.00    +0.000 OA
ATOM      2  C   UNL     1      -0.460  10.463  19.817  0.00  0.00    +0.000 C 
ATOM      3  C   UNL     1       0.983   9.971  19.584  0.00  0.00    +0.000 C 
ATOM      4  N   UNL     1       1.972  11.090  19.526  0.00  0.00    +0.000 NA
ATOM      5  C   UNL     1       1.963  11.716  18.193  0.00  0.00    +0.000 C 
ATOM      6  C   UNL     1       2.012  13.246  18.251  0.00  0.00    +0.000 C 
ATOM      7  C   UNL     1       0.884  13.913  19.054  0.00  0.00    +0.000 C 
ATOM      8  C   UNL     1      -0.520  13.478  18.610  0.00  0.00    +0.000 C 
ATOM      9  C   UNL     1      -1.398  12.759  19.673  0.00  0.00    +0.000 C 
ATOM     10  N   UNL     1      -0.694  11.694  20.412  0.00  0.00    +0.000 N 
ATOM     11  H   UNL     1       2.901  10.682  19.660  0.00  0.00    +0.000 HD
ENDROOT
BRANCH   9  12
ATOM     12  C   UNL     1      -2.641  12.228  19.011  0.00  0.00    +0.000 A 
ATOM     13  C   UNL     1      -3.957  12.101  19.429  0.00  0.00    +0.000 A 
ATOM     14  C   UNL     1      -4.696  11.669  18.307  0.00  0.00    +0.000 A 
ATOM     15  C   UNL     1      -3.788  11.525  17.288  0.00  0.00    +0.000 A 
ATOM     16  O   UNL     1      -2.534  11.835  17.709  0.00  0.00    +0.000 OA
ENDBRANCH   9  12
BRANCH   3  17
ATOM     17  C   UNL     1       1.295   8.829  20.575  0.00  0.00    +0.000 C 
BRANCH  17  18
ATOM     18  C   UNL     1       1.856   7.586  19.916  0.00  0.00    +0.000 A 
ATOM     19  C   UNL     1       1.834   6.364  20.599  0.00  0.00    +0.000 A 
ATOM     20  C   UNL     1       2.453   5.239  20.055  0.00  0.00    +0.000 A 
ATOM     21  C   UNL     1       3.084   5.318  18.816  0.00  0.00    +0.000 A 
ATOM     22  C   UNL     1       3.051   6.510  18.094  0.00  0.00    +0.000 A 
ATOM     23  C   UNL     1       2.426   7.635  18.634  0.00  0.00    +0.000 A 
ENDBRANCH  17  18
ENDBRANCH   3  17
BRANCH  10  24
ATOM     24  C   UNL     1      -0.223  11.992  21.766  0.00  0.00    +0.000 C 
BRANCH  24  25
ATOM     25  C   UNL     1      -1.279  12.570  22.703  0.00  0.00    +0.000 A 
ATOM     26  C   UNL     1      -1.129  13.874  23.198  0.00  0.00    +0.000 A 
ATOM     27  C   UNL     1      -2.131  14.479  23.971  0.00  0.00    +0.000 A 
ATOM     28  C   UNL     1      -3.303  13.791  24.251  0.00  0.00    +0.000 A 
ATOM     29  C   UNL     1      -3.467  12.491  23.772  0.00  0.00    +0.000 A 
ATOM     30  C   UNL     1      -2.464  11.888  23.004  0.00  0.00    +0.000 A 
ENDBRANCH  24  25
ENDBRANCH  10  24
TORSDOF 5
ENDMDL
MODEL 8
REMARK VINA RESULT:      -6.8      2.062      4.654
REMARK  Name = 
REMARK  5 active torsions:
REMARK  status: ('A' for Active; 'I' for Inactive)
REMARK    1  A    between atoms: C_3  and  C_4
REMARK    2  A    between atoms: C_4  and  C_5
REMARK    3  A    between atoms: C_16  and  C_17
REMARK    4  A    between atoms: N_22  and  C_23
REMARK    5  A    between atoms: C_23  and  C_24
REMARK                            x       y       z     vdW  Elec       q    Type
REMARK                         _______ _______ _______ _____ _____    ______ ____
ROOT
ATOM      1  O   UNL     1      -1.303   9.633  19.226  0.00  0.00    +0.000 OA
ATOM      2  C   UNL     1      -0.416  10.364  19.685  0.00  0.00    +0.000 C 
ATOM      3  C   UNL     1       1.044   9.897  19.513  0.00  0.00    +0.000 C 
ATOM      4  N   UNL     1       2.017  11.032  19.522  0.00  0.00    +0.000 NA
ATOM      5  C   UNL     1       2.061  11.681  18.200  0.00  0.00    +0.000 C 
ATOM      6  C   UNL     1       2.084  13.210  18.288  0.00  0.00    +0.000 C 
ATOM      7  C   UNL     1       0.910  13.846  19.047  0.00  0.00    +0.000 C 
ATOM      8  C   UNL     1      -0.465  13.399  18.530  0.00  0.00    +0.000 C 
ATOM      9  C   UNL     1      -1.382  12.649  19.537  0.00  0.00    +0.000 C 
ATOM     10  N   UNL     1      -0.697  11.581  20.290  0.00  0.00    +0.000 N 
ATOM     11  H   UNL     1       2.945  10.635  19.693  0.00  0.00    +0.000 HD
ENDROOT
BRANCH   9  12
ATOM     12  C   UNL     1      -2.584  12.112  18.808  0.00  0.00    +0.000 A 
ATOM     13  C   UNL     1      -3.896  11.881  19.187  0.00  0.00    +0.000 A 
ATOM     14  C   UNL     1      -4.594  11.508  18.018  0.00  0.00    +0.000 A 
ATOM     15  C   UNL     1      -3.664  11.500  17.009  0.00  0.00    +0.000 A 
ATOM     16  O   UNL     1      -2.435  11.838  17.479  0.00  0.00    +0.000 OA
ENDBRANCH   9  12
BRANCH   3  17
ATOM     17  C   UNL     1       1.326   8.743  20.498  0.00  0.00    +0.000 C 
BRANCH  17  18
ATOM     18  C   UNL     1       1.892   7.502  19.837  0.00  0.00    +0.000 A 
ATOM     19  C   UNL     1       2.498   7.597  18.579  0.00  0.00    +0.000 A 
ATOM     20  C   UNL     1       2.917   6.448  17.908  0.00  0.00    +0.000 A 
ATOM     21  C   UNL     1       2.750   5.195  18.494  0.00  0.00    +0.000 A 
ATOM     22  C   UNL     1       2.213   5.094  19.776  0.00  0.00    +0.000 A 
ATOM     23  C   UNL     1       1.801   6.244  20.452  0.00  0.00    +0.000 A 
ENDBRANCH  17  18
ENDBRANCH   3  17
BRANCH  10  24
ATOM     24  C   UNL     1      -0.295  11.861  21.669  0.00  0.00    +0.000 C 
BRANCH  24  25
ATOM     25  C   UNL     1      -1.344  12.578  22.514  0.00  0.00    +0.000 A 
ATOM     26  C   UNL     1      -2.482  11.881  22.947  0.00  0.00    +0.000 A 
ATOM     27  C   UNL     1      -3.410  12.472  23.816  0.00  0.00    +0.000 A 
ATOM     28  C   UNL     1      -3.209  13.767  24.272  0.00  0.00    +0.000 A 
ATOM     29  C   UNL     1      -2.087  14.478  23.848  0.00  0.00    +0.000 A 
ATOM     30  C   UNL     1      -1.162  13.886  22.978  0.00  0.00    +0.000 A 
ENDBRANCH  24  25
ENDBRANCH  10  24
TORSDOF 5
ENDMDL
MODEL 9
REMARK VINA RESULT:      -6.7      3.126      7.541
REMARK  Name = 
REMARK  5 active torsions:
REMARK  status: ('A' for Active; 'I' for Inactive)
REMARK    1  A    between atoms: C_3  and  C_4
REMARK    2  A    between atoms: C_4  and  C_5
REMARK    3  A    between atoms: C_16  and  C_17
REMARK    4  A    between atoms: N_22  and  C_23
REMARK    5  A    between atoms: C_23  and  C_24
REMARK                            x       y       z     vdW  Elec       q    Type
REMARK                         _______ _______ _______ _____ _____    ______ ____
ROOT
ATOM      1  O   UNL     1      -2.874  12.462  20.379  0.00  0.00    +0.000 OA
ATOM      2  C   UNL     1      -1.813  12.370  21.009  0.00  0.00    +0.000 C 
ATOM      3  C   UNL     1      -1.909  12.293  22.547  0.00  0.00    +0.000 C 
ATOM      4  N   UNL     1      -0.738  11.600  23.164  0.00  0.00    +0.000 NA
ATOM      5  C   UNL     1      -0.899  10.138  23.074  0.00  0.00    +0.000 C 
ATOM      6  C   UNL     1       0.390   9.420  22.666  0.00  0.00    +0.000 C 
ATOM      7  C   UNL     1       1.007   9.873  21.334  0.00  0.00    +0.000 C 
ATOM      8  C   UNL     1       0.020   9.827  20.158  0.00  0.00    +0.000 C 
ATOM      9  C   UNL     1      -0.288  11.177  19.451  0.00  0.00    +0.000 C 
ATOM     10  N   UNL     1      -0.580  12.286  20.378  0.00  0.00    +0.000 N 
ATOM     11  H   UNL     1      -0.732  11.841  24.158  0.00  0.00    +0.000 HD
ENDROOT
BRANCH   9  12
ATOM     12  C   UNL     1      -1.416  10.977  18.474  0.00  0.00    +0.000 A 
ATOM     13  C   UNL     1      -1.888  11.725  17.407  0.00  0.00    +0.000 A 
ATOM     14  C   UNL     1      -2.881  10.945  16.776  0.00  0.00    +0.000 A 
ATOM     15  C   UNL     1      -2.979   9.790  17.512  0.00  0.00    +0.000 A 
ATOM     16  O   UNL     1      -2.115   9.808  18.560  0.00  0.00    +0.000 OA
ENDBRANCH   9  12
BRANCH   3  17
ATOM     17  C   UNL     1      -2.251  13.691  23.103  0.00  0.00    +0.000 C 
BRANCH  17  18
ATOM     18  C   UNL     1      -3.736  13.927  23.289  0.00  0.00    +0.000 A 
ATOM     19  C   UNL     1      -4.245  15.231  23.256  0.00  0.00    +0.000 A 
ATOM     20  C   UNL     1      -5.588  15.473  23.543  0.00  0.00    +0.000 A 
ATOM     21  C   UNL     1      -6.440  14.414  23.849  0.00  0.00    +0.000 A 
ATOM     22  C   UNL     1      -5.962  13.106  23.814  0.00  0.00    +0.000 A 
ATOM     23  C   UNL     1      -4.620  12.862  23.520  0.00  0.00    +0.000 A 
ENDBRANCH  17  18
ENDBRANCH   3  17
BRANCH  10  24
ATOM     24  C   UNL     1       0.479  13.264  20.635  0.00  0.00    +0.000 C 
BRANCH  24  25
ATOM     25  C   UNL     1       0.151  14.695  20.218  0.00  0.00    +0.000 A 
ATOM     26  C   UNL     1       0.268  15.735  21.153  0.00  0.00    +0.000 A 
ATOM     27  C   UNL     1       0.084  17.074  20.778  0.00  0.00    +0.000 A 
ATOM     28  C   UNL     1      -0.211  17.393  19.460  0.00  0.00    +0.000 A 
ATOM     29  C   UNL     1      -0.338  16.371  18.518  0.00  0.00    +0.000 A 
ATOM     30  C   UNL     1      -0.157  15.035  18.896  0.00  0.00    +0.000 A 
ENDBRANCH  24  25
ENDBRANCH  10  24
TORSDOF 5
ENDMDL
