MODEL 1
REMARK VINA RESULT:      -7.5      0.000      0.000
REMARK  Name = 
REMARK  11 active torsions:
REMARK  status: ('A' for Active; 'I' for Inactive)
REMARK    1  A    between atoms: C_1  and  C_2
REMARK    2  A    between atoms: C_2  and  C_3
REMARK    3  A    between atoms: C_3  and  C_4
REMARK    4  A    between atoms: C_4  and  C_6
REMARK    5  A    between atoms: C_7  and  N_8
REMARK    6  A    between atoms: N_8  and  C_9
REMARK    7  A    between atoms: C_16  and  C_17
REMARK    8  A    between atoms: C_16  and  C_18
REMARK    9  A    between atoms: C_19  and  C_20
REMARK   10  A    between atoms: C_20  and  O_22
REMARK   11  A    between atoms: O_22  and  C_23
REMARK                            x       y       z     vdW  Elec       q    Type
REMARK                         _______ _______ _______ _____ _____    ______ ____
ROOT
ATOM      1  C   UNL     1       3.460   4.687  18.073  0.00  0.00    +0.000 C 
ATOM      2  C   UNL     1       3.712   5.838  18.754  0.00  0.00    +0.000 C 
ATOM      3  C   UNL     1       4.994   6.641  18.534  0.00  0.00    +0.000 C 
ATOM      4  C   UNL     1       6.189   5.813  18.023  0.00  0.00    +0.000 C 
ATOM      5  C   UNL     1       7.341   6.746  17.604  0.00  0.00    +0.000 C 
ATOM      6  C   UNL     1       6.730   4.918  19.167  0.00  0.00    +0.000 C 
ATOM      7  C   UNL     1       5.730   4.939  16.841  0.00  0.00    +0.000 C 
ATOM      8  C   UNL     1       4.568   4.079  17.269  0.00  0.00    +0.000 C 
ATOM      9  O   UNL     1       4.566   2.889  16.956  0.00  0.00    +0.000 OA
ENDROOT
BRANCH   1  10
ATOM     10  C   UNL     1       2.099   4.025  18.163  0.00  0.00    +0.000 C 
ATOM     11  O   UNL     1       1.187   4.373  17.407  0.00  0.00    +0.000 OA
BRANCH  10  12
ATOM     12  C   UNL     1       1.900   2.909  19.179  0.00  0.00    +0.000 C 
BRANCH  12  14
ATOM     13  C   UNL     1       2.072   3.400  21.628  0.00  0.00    +0.000 C 
ATOM     14  C   UNL     1       1.130   3.318  20.432  0.00  0.00    +0.000 C 
ENDBRANCH  12  14
ENDBRANCH  10  12
ENDBRANCH   1  10
BRANCH   2  15
ATOM     15  N   UNL     1       2.813   6.437  19.653  0.00  0.00    +0.000 N 
ATOM     16  H   UNL     1       3.304   6.614  20.545  0.00  0.00    +0.000 HD
BRANCH  15  17
ATOM     17  C   UNL     1       2.167   7.677  19.327  0.00  0.00    +0.000 A 
ATOM     18  C   UNL     1       2.105   8.197  18.034  0.00  0.00    +0.000 A 
ATOM     19  C   UNL     1       1.454   9.404  17.822  0.00  0.00    +0.000 A 
ATOM     20  N   UNL     1       0.842  10.109  18.794  0.00  0.00    +0.000 NA
ATOM     21  C   UNL     1       0.864   9.567  20.029  0.00  0.00    +0.000 A 
ATOM     22  C   UNL     1       1.484   8.365  20.335  0.00  0.00    +0.000 A 
ENDBRANCH  15  17
ENDBRANCH   2  15
BRANCH   7  23
ATOM     23  C   UNL     1       5.342   5.705  15.594  0.00  0.00    +0.000 C 
ATOM     24  O   UNL     1       4.985   6.875  15.585  0.00  0.00    +0.000 OA
BRANCH  23  25
ATOM     25  O   UNL     1       5.459   4.915  14.492  0.00  0.00    +0.000 OA
ATOM     26  C   UNL     1       6.805   4.573  14.157  0.00  0.00    +0.000 C 
ENDBRANCH  23  25
ENDBRANCH   7  23
TORSDOF 7
ENDMDL
MODEL 2
REMARK VINA RESULT:      -7.2      1.576      4.531
REMARK  Name = 
REMARK  11 active torsions:
REMARK  status: ('A' for Active; 'I' for Inactive)
REMARK    1  A    between atoms: C_1  and  C_2
REMARK    2  A    between atoms: C_2  and  C_3
REMARK    3  A    between atoms: C_3  and  C_4
REMARK    4  A    between atoms: C_4  and  C_6
REMARK    5  A    between atoms: C_7  and  N_8
REMARK    6  A    between atoms: N_8  and  C_9
REMARK    7  A    between atoms: C_16  and  C_17
REMARK    8  A    between atoms: C_16  and  C_18
REMARK    9  A    between atoms: C_19  and  C_20
REMARK   10  A    between atoms: C_20  and  O_22
REMARK   11  A    between atoms: O_22  and  C_23
REMARK                            x       y       z     vdW  Elec       q    Type
REMARK                         _______ _______ _______ _____ _____    ______ ____
ROOT
ATOM      1  C   UNL     1       4.360   5.560  17.143  0.00  0.00    +0.000 C 
ATOM      2  C   UNL     1       3.495   6.281  17.907  0.00  0.00    +0.000 C 
ATOM      3  C   UNL     1       2.564   5.613  18.918  0.00  0.00    +0.000 C 
ATOM      4  C   UNL     1       2.214   4.146  18.598  0.00  0.00    +0.000 C 
ATOM      5  C   UNL     1       1.484   3.501  19.790  0.00  0.00    +0.000 C 
ATOM      6  C   UNL     1       1.240   4.095  17.393  0.00  0.00    +0.000 C 
ATOM      7  C   UNL     1       3.508   3.380  18.264  0.00  0.00    +0.000 C 
ATOM      8  C   UNL     1       4.225   4.068  17.130  0.00  0.00    +0.000 C 
ATOM      9  O   UNL     1       4.674   3.383  16.211  0.00  0.00    +0.000 OA
ENDROOT
BRANCH   1  10
ATOM     10  C   UNL     1       5.407   6.262  16.300  0.00  0.00    +0.000 C 
ATOM     11  O   UNL     1       5.065   7.029  15.395  0.00  0.00    +0.000 OA
BRANCH  10  12
ATOM     12  C   UNL     1       6.876   6.020  16.617  0.00  0.00    +0.000 C 
BRANCH  12  14
ATOM     13  C   UNL     1       7.751   8.148  17.605  0.00  0.00    +0.000 C 
ATOM     14  C   UNL     1       7.374   6.699  17.891  0.00  0.00    +0.000 C 
ENDBRANCH  12  14
ENDBRANCH  10  12
ENDBRANCH   1  10
BRANCH   2  15
ATOM     15  N   UNL     1       3.419   7.684  17.903  0.00  0.00    +0.000 N 
ATOM     16  H   UNL     1       3.437   8.014  16.924  0.00  0.00    +0.000 HD
BRANCH  15  17
ATOM     17  C   UNL     1       2.305   8.359  18.508  0.00  0.00    +0.000 A 
ATOM     18  C   UNL     1       1.992   8.267  19.865  0.00  0.00    +0.000 A 
ATOM     19  C   UNL     1       0.894   8.963  20.353  0.00  0.00    +0.000 A 
ATOM     20  N   UNL     1       0.111   9.757  19.598  0.00  0.00    +0.000 NA
ATOM     21  C   UNL     1       0.458   9.879  18.300  0.00  0.00    +0.000 A 
ATOM     22  C   UNL     1       1.540   9.228  17.724  0.00  0.00    +0.000 A 
ENDBRANCH  15  17
ENDBRANCH   2  15
BRANCH   7  23
ATOM     23  C   UNL     1       4.466   3.211  19.423  0.00  0.00    +0.000 C 
ATOM     24  O   UNL     1       5.487   3.867  19.577  0.00  0.00    +0.000 OA
BRANCH  23  25
ATOM     25  O   UNL     1       4.027   2.240  20.269  0.00  0.00    +0.000 OA
ATOM     26  C   UNL     1       5.068   1.441  20.834  0.00  0.00    +0.000 C 
ENDBRANCH  23  25
ENDBRANCH   7  23
TORSDOF 7
ENDMDL
MODEL 3
REMARK VINA RESULT:      -7.1      2.917      6.475
REMARK  Name = 
REMARK  11 active torsions:
REMARK  status: ('A' for Active; 'I' for Inactive)
REMARK    1  A    between atoms: C_1  and  C_2
REMARK    2  A    between atoms: C_2  and  C_3
REMARK    3  A    between atoms: C_3  and  C_4
REMARK    4  A    between atoms: C_4  and  C_6
REMARK    5  A    between atoms: C_7  and  N_8
REMARK    6  A    between atoms: N_8  and  C_9
REMARK    7  A    between atoms: C_16  and  C_17
REMARK    8  A    between atoms: C_16  and  C_18
REMARK    9  A    between atoms: C_19  and  C_20
REMARK   10  A    between atoms: C_20  and  O_22
REMARK   11  A    between atoms: O_22  and  C_23
REMARK                            x       y       z     vdW  Elec       q    Type
REMARK                         _______ _______ _______ _____ _____    ______ ____
ROOT
ATOM      1  C   UNL     1       5.975   4.746  17.903  0.00  0.00    +0.000 C 
ATOM      2  C   UNL     1       5.448   4.000  16.895  0.00  0.00    +0.000 C 
ATOM      3  C   UNL     1       3.941   3.931  16.646  0.00  0.00    +0.000 C 
ATOM      4  C   UNL     1       3.072   4.204  17.890  0.00  0.00    +0.000 C 
ATOM      5  C   UNL     1       1.594   4.354  17.483  0.00  0.00    +0.000 C 
ATOM      6  C   UNL     1       3.152   2.996  18.857  0.00  0.00    +0.000 C 
ATOM      7  C   UNL     1       3.582   5.477  18.592  0.00  0.00    +0.000 C 
ATOM      8  C   UNL     1       5.044   5.319  18.927  0.00  0.00    +0.000 C 
ATOM      9  O   UNL     1       5.435   5.655  20.044  0.00  0.00    +0.000 OA
ENDROOT
BRANCH   1  10
ATOM     10  C   UNL     1       7.474   4.956  17.999  0.00  0.00    +0.000 C 
ATOM     11  O   UNL     1       8.249   4.028  17.748  0.00  0.00    +0.000 OA
BRANCH  10  12
ATOM     12  C   UNL     1       7.991   6.336  18.379  0.00  0.00    +0.000 C 
BRANCH  12  14
ATOM     13  C   UNL     1       8.116   8.794  17.922  0.00  0.00    +0.000 C 
ATOM     14  C   UNL     1       7.550   7.461  17.446  0.00  0.00    +0.000 C 
ENDBRANCH  12  14
ENDBRANCH  10  12
ENDBRANCH   1  10
BRANCH   2  15
ATOM     15  N   UNL     1       6.213   3.291  15.952  0.00  0.00    +0.000 N 
ATOM     16  H   UNL     1       5.723   2.410  15.723  0.00  0.00    +0.000 HD
BRANCH  15  17
ATOM     17  C   UNL     1       6.541   3.879  14.684  0.00  0.00    +0.000 A 
ATOM     18  C   UNL     1       7.401   4.969  14.540  0.00  0.00    +0.000 A 
ATOM     19  C   UNL     1       7.658   5.462  13.268  0.00  0.00    +0.000 A 
ATOM     20  N   UNL     1       7.146   4.934  12.139  0.00  0.00    +0.000 NA
ATOM     21  C   UNL     1       6.360   3.847  12.291  0.00  0.00    +0.000 A 
ATOM     22  C   UNL     1       6.052   3.282  13.519  0.00  0.00    +0.000 A 
ENDBRANCH  15  17
ENDBRANCH   2  15
BRANCH   7  23
ATOM     23  C   UNL     1       3.392   6.758  17.808  0.00  0.00    +0.000 C 
ATOM     24  O   UNL     1       4.078   7.091  16.852  0.00  0.00    +0.000 OA
BRANCH  23  25
ATOM     25  O   UNL     1       2.349   7.474  18.308  0.00  0.00    +0.000 OA
ATOM     26  C   UNL     1       2.179   7.349  19.721  0.00  0.00    +0.000 C 
ENDBRANCH  23  25
ENDBRANCH   7  23
TORSDOF 7
ENDMDL
MODEL 4
REMARK VINA RESULT:      -7.1      3.052      6.443
REMARK  Name = 
REMARK  11 active torsions:
REMARK  status: ('A' for Active; 'I' for Inactive)
REMARK    1  A    between atoms: C_1  and  C_2
REMARK    2  A    between atoms: C_2  and  C_3
REMARK    3  A    between atoms: C_3  and  C_4
REMARK    4  A    between atoms: C_4  and  C_6
REMARK    5  A    between atoms: C_7  and  N_8
REMARK    6  A    between atoms: N_8  and  C_9
REMARK    7  A    between atoms: C_16  and  C_17
REMARK    8  A    between atoms: C_16  and  C_18
REMARK    9  A    between atoms: C_19  and  C_20
REMARK   10  A    between atoms: C_20  and  O_22
REMARK   11  A    between atoms: O_22  and  C_23
REMARK                            x       y       z     vdW  Elec       q    Type
REMARK                         _______ _______ _______ _____ _____    ______ ____
ROOT
ATOM      1  C   UNL     1       5.578   4.574  18.126  0.00  0.00    +0.000 C 
ATOM      2  C   UNL     1       4.869   5.047  17.064  0.00  0.00    +0.000 C 
ATOM      3  C   UNL     1       3.345   4.952  17.007  0.00  0.00    +0.000 C 
ATOM      4  C   UNL     1       2.741   3.804  17.840  0.00  0.00    +0.000 C 
ATOM      5  C   UNL     1       1.210   3.947  17.911  0.00  0.00    +0.000 C 
ATOM      6  C   UNL     1       3.034   2.448  17.148  0.00  0.00    +0.000 C 
ATOM      7  C   UNL     1       3.363   3.822  19.249  0.00  0.00    +0.000 C 
ATOM      8  C   UNL     1       4.864   3.736  19.141  0.00  0.00    +0.000 C 
ATOM      9  O   UNL     1       5.467   2.965  19.887  0.00  0.00    +0.000 OA
ENDROOT
BRANCH   1  10
ATOM     10  C   UNL     1       7.061   4.862  18.247  0.00  0.00    +0.000 C 
ATOM     11  O   UNL     1       7.865   4.318  17.484  0.00  0.00    +0.000 OA
BRANCH  10  12
ATOM     12  C   UNL     1       7.524   5.855  19.305  0.00  0.00    +0.000 C 
BRANCH  12  14
ATOM     13  C   UNL     1       7.544   7.702  17.615  0.00  0.00    +0.000 C 
ATOM     14  C   UNL     1       8.306   7.047  18.762  0.00  0.00    +0.000 C 
ENDBRANCH  12  14
ENDBRANCH  10  12
ENDBRANCH   1  10
BRANCH   2  15
ATOM     15  N   UNL     1       5.439   5.723  15.972  0.00  0.00    +0.000 N 
ATOM     16  H   UNL     1       6.289   6.215  16.294  0.00  0.00    +0.000 HD
BRANCH  15  17
ATOM     17  C   UNL     1       5.841   5.007  14.795  0.00  0.00    +0.000 A 
ATOM     18  C   UNL     1       5.019   4.100  14.126  0.00  0.00    +0.000 A 
ATOM     19  C   UNL     1       5.501   3.460  12.992  0.00  0.00    +0.000 A 
ATOM     20  N   UNL     1       6.723   3.678  12.468  0.00  0.00    +0.000 NA
ATOM     21  C   UNL     1       7.486   4.597  13.095  0.00  0.00    +0.000 A 
ATOM     22  C   UNL     1       7.088   5.290  14.228  0.00  0.00    +0.000 A 
ENDBRANCH  15  17
ENDBRANCH   2  15
BRANCH   7  23
ATOM     23  C   UNL     1       2.997   5.026  20.091  0.00  0.00    +0.000 C 
ATOM     24  O   UNL     1       3.379   6.167  19.868  0.00  0.00    +0.000 OA
BRANCH  23  25
ATOM     25  O   UNL     1       2.180   4.662  21.117  0.00  0.00    +0.000 OA
ATOM     26  C   UNL     1       2.279   3.284  21.481  0.00  0.00    +0.000 C 
ENDBRANCH  23  25
ENDBRANCH   7  23
TORSDOF 7
ENDMDL
MODEL 5
REMARK VINA RESULT:      -7.1      3.049      6.371
REMARK  Name = 
REMARK  11 active torsions:
REMARK  status: ('A' for Active; 'I' for Inactive)
REMARK    1  A    between atoms: C_1  and  C_2
REMARK    2  A    between atoms: C_2  and  C_3
REMARK    3  A    between atoms: C_3  and  C_4
REMARK    4  A    between atoms: C_4  and  C_6
REMARK    5  A    between atoms: C_7  and  N_8
REMARK    6  A    between atoms: N_8  and  C_9
REMARK    7  A    between atoms: C_16  and  C_17
REMARK    8  A    between atoms: C_16  and  C_18
REMARK    9  A    between atoms: C_19  and  C_20
REMARK   10  A    between atoms: C_20  and  O_22
REMARK   11  A    between atoms: O_22  and  C_23
REMARK                            x       y       z     vdW  Elec       q    Type
REMARK                         _______ _______ _______ _____ _____    ______ ____
ROOT
ATOM      1  C   UNL     1       5.224   4.393  18.413  0.00  0.00    +0.000 C 
ATOM      2  C   UNL     1       4.460   4.928  17.423  0.00  0.00    +0.000 C 
ATOM      3  C   UNL     1       2.940   4.762  17.399  0.00  0.00    +0.000 C 
ATOM      4  C   UNL     1       2.420   3.510  18.133  0.00  0.00    +0.000 C 
ATOM      5  C   UNL     1       0.887   3.568  18.261  0.00  0.00    +0.000 C 
ATOM      6  C   UNL     1       2.755   2.244  17.306  0.00  0.00    +0.000 C 
ATOM      7  C   UNL     1       3.086   3.426  19.520  0.00  0.00    +0.000 C 
ATOM      8  C   UNL     1       4.585   3.427  19.363  0.00  0.00    +0.000 C 
ATOM      9  O   UNL     1       5.249   2.620  20.013  0.00  0.00    +0.000 OA
ENDROOT
BRANCH   1  10
ATOM     10  C   UNL     1       6.696   4.744  18.521  0.00  0.00    +0.000 C 
ATOM     11  O   UNL     1       7.540   4.078  17.912  0.00  0.00    +0.000 OA
BRANCH  10  12
ATOM     12  C   UNL     1       7.096   5.945  19.365  0.00  0.00    +0.000 C 
BRANCH  12  14
ATOM     13  C   UNL     1       7.614   7.672  17.628  0.00  0.00    +0.000 C 
ATOM     14  C   UNL     1       8.187   6.819  18.754  0.00  0.00    +0.000 C 
ENDBRANCH  12  14
ENDBRANCH  10  12
ENDBRANCH   1  10
BRANCH   2  15
ATOM     15  N   UNL     1       4.960   5.734  16.386  0.00  0.00    +0.000 N 
ATOM     16  H   UNL     1       5.673   6.372  16.777  0.00  0.00    +0.000 HD
BRANCH  15  17
ATOM     17  C   UNL     1       5.577   5.143  15.231  0.00  0.00    +0.000 A 
ATOM     18  C   UNL     1       6.906   5.366  14.869  0.00  0.00    +0.000 A 
ATOM     19  C   UNL     1       7.409   4.745  13.734  0.00  0.00    +0.000 A 
ATOM     20  N   UNL     1       6.697   3.904  12.959  0.00  0.00    +0.000 NA
ATOM     21  C   UNL     1       5.431   3.656  13.353  0.00  0.00    +0.000 A 
ATOM     22  C   UNL     1       4.844   4.225  14.473  0.00  0.00    +0.000 A 
ENDBRANCH  15  17
ENDBRANCH   2  15
BRANCH   7  23
ATOM     23  C   UNL     1       2.691   4.524  20.484  0.00  0.00    +0.000 C 
ATOM     24  O   UNL     1       3.033   5.694  20.378  0.00  0.00    +0.000 OA
BRANCH  23  25
ATOM     25  O   UNL     1       1.898   4.029  21.473  0.00  0.00    +0.000 OA
ATOM     26  C   UNL     1       2.044   2.624  21.691  0.00  0.00    +0.000 C 
ENDBRANCH  23  25
ENDBRANCH   7  23
TORSDOF 7
ENDMDL
MODEL 6
REMARK VINA RESULT:      -7.0      2.932      6.409
REMARK  Name = 
REMARK  11 active torsions:
REMARK  status: ('A' for Active; 'I' for Inactive)
REMARK    1  A    between atoms: C_1  and  C_2
REMARK    2  A    between atoms: C_2  and  C_3
REMARK    3  A    between atoms: C_3  and  C_4
REMARK    4  A    between atoms: C_4  and  C_6
REMARK    5  A    between atoms: C_7  and  N_8
REMARK    6  A    between atoms: N_8  and  C_9
REMARK    7  A    between atoms: C_16  and  C_17
REMARK    8  A    between atoms: C_16  and  C_18
REMARK    9  A    between atoms: C_19  and  C_20
REMARK   10  A    between atoms: C_20  and  O_22
REMARK   11  A    between atoms: O_22  and  C_23
REMARK                            x       y       z     vdW  Elec       q    Type
REMARK                         _______ _______ _______ _____ _____    ______ ____
ROOT
ATOM      1  C   UNL     1       6.018   4.731  17.902  0.00  0.00    +0.000 C 
ATOM      2  C   UNL     1       5.501   3.975  16.895  0.00  0.00    +0.000 C 
ATOM      3  C   UNL     1       3.995   3.889  16.645  0.00  0.00    +0.000 C 
ATOM      4  C   UNL     1       3.122   4.155  17.887  0.00  0.00    +0.000 C 
ATOM      5  C   UNL     1       1.643   4.287  17.478  0.00  0.00    +0.000 C 
ATOM      6  C   UNL     1       3.215   2.951  18.858  0.00  0.00    +0.000 C 
ATOM      7  C   UNL     1       3.616   5.436  18.586  0.00  0.00    +0.000 C 
ATOM      8  C   UNL     1       5.079   5.296  18.923  0.00  0.00    +0.000 C 
ATOM      9  O   UNL     1       5.465   5.640  20.040  0.00  0.00    +0.000 OA
ENDROOT
BRANCH   1  10
ATOM     10  C   UNL     1       7.514   4.959  17.999  0.00  0.00    +0.000 C 
ATOM     11  O   UNL     1       8.300   4.039  17.751  0.00  0.00    +0.000 OA
BRANCH  10  12
ATOM     12  C   UNL     1       8.015   6.346  18.376  0.00  0.00    +0.000 C 
BRANCH  12  14
ATOM     13  C   UNL     1       8.126   8.802  17.902  0.00  0.00    +0.000 C 
ATOM     14  C   UNL     1       7.544   7.466  17.452  0.00  0.00    +0.000 C 
ENDBRANCH  12  14
ENDBRANCH  10  12
ENDBRANCH   1  10
BRANCH   2  15
ATOM     15  N   UNL     1       6.275   3.273  15.956  0.00  0.00    +0.000 N 
ATOM     16  H   UNL     1       5.828   2.359  15.776  0.00  0.00    +0.000 HD
BRANCH  15  17
ATOM     17  C   UNL     1       6.533   3.828  14.657  0.00  0.00    +0.000 A 
ATOM     18  C   UNL     1       5.896   3.395  13.494  0.00  0.00    +0.000 A 
ATOM     19  C   UNL     1       6.214   4.000  12.285  0.00  0.00    +0.000 A 
ATOM     20  N   UNL     1       7.092   5.014  12.160  0.00  0.00    +0.000 NA
ATOM     21  C   UNL     1       7.659   5.457  13.300  0.00  0.00    +0.000 A 
ATOM     22  C   UNL     1       7.400   4.920  14.553  0.00  0.00    +0.000 A 
ENDBRANCH  15  17
ENDBRANCH   2  15
BRANCH   7  23
ATOM     23  C   UNL     1       3.412   6.712  17.798  0.00  0.00    +0.000 C 
ATOM     24  O   UNL     1       4.046   7.015  16.797  0.00  0.00    +0.000 OA
BRANCH  23  25
ATOM     25  O   UNL     1       2.422   7.463  18.352  0.00  0.00    +0.000 OA
ATOM     26  C   UNL     1       2.191   8.708  17.690  0.00  0.00    +0.000 C 
ENDBRANCH  23  25
ENDBRANCH   7  23
TORSDOF 7
ENDMDL
MODEL 7
REMARK VINA RESULT:      -6.9      1.574      4.259
REMARK  Name = 
REMARK  11 active torsions:
REMARK  status: ('A' for Active; 'I' for Inactive)
REMARK    1  A    between atoms: C_1  and  C_2
REMARK    2  A    between atoms: C_2  and  C_3
REMARK    3  A    between atoms: C_3  and  C_4
REMARK    4  A    between atoms: C_4  and  C_6
REMARK    5  A    between atoms: C_7  and  N_8
REMARK    6  A    between atoms: N_8  and  C_9
REMARK    7  A    between atoms: C_16  and  C_17
REMARK    8  A    between atoms: C_16  and  C_18
REMARK    9  A    between atoms: C_19  and  C_20
REMARK   10  A    between atoms: C_20  and  O_22
REMARK   11  A    between atoms: O_22  and  C_23
REMARK                            x       y       z     vdW  Elec       q    Type
REMARK                         _______ _______ _______ _____ _____    ______ ____
ROOT
ATOM      1  C   UNL     1       4.274   5.864  17.251  0.00  0.00    +0.000 C 
ATOM      2  C   UNL     1       3.346   6.558  17.964  0.00  0.00    +0.000 C 
ATOM      3  C   UNL     1       2.388   5.863  18.932  0.00  0.00    +0.000 C 
ATOM      4  C   UNL     1       2.107   4.383  18.604  0.00  0.00    +0.000 C 
ATOM      5  C   UNL     1       1.339   3.719  19.763  0.00  0.00    +0.000 C 
ATOM      6  C   UNL     1       1.199   4.290  17.352  0.00  0.00    +0.000 C 
ATOM      7  C   UNL     1       3.443   3.662  18.343  0.00  0.00    +0.000 C 
ATOM      8  C   UNL     1       4.193   4.369  17.242  0.00  0.00    +0.000 C 
ATOM      9  O   UNL     1       4.712   3.695  16.353  0.00  0.00    +0.000 OA
ENDROOT
BRANCH   1  10
ATOM     10  C   UNL     1       5.338   6.598  16.458  0.00  0.00    +0.000 C 
ATOM     11  O   UNL     1       5.121   6.934  15.290  0.00  0.00    +0.000 OA
BRANCH  10  12
ATOM     12  C   UNL     1       6.654   6.933  17.145  0.00  0.00    +0.000 C 
BRANCH  12  14
ATOM     13  C   UNL     1       7.744   5.874  19.135  0.00  0.00    +0.000 C 
ATOM     14  C   UNL     1       7.436   5.723  17.650  0.00  0.00    +0.000 C 
ENDBRANCH  12  14
ENDBRANCH  10  12
ENDBRANCH   1  10
BRANCH   2  15
ATOM     15  N   UNL     1       3.220   7.958  17.946  0.00  0.00    +0.000 N 
ATOM     16  H   UNL     1       3.212   8.277  16.963  0.00  0.00    +0.000 HD
BRANCH  15  17
ATOM     17  C   UNL     1       2.092   8.600  18.560  0.00  0.00    +0.000 A 
ATOM     18  C   UNL     1       1.157   9.356  17.852  0.00  0.00    +0.000 A 
ATOM     19  C   UNL     1       0.098   9.935  18.539  0.00  0.00    +0.000 A 
ATOM     20  N   UNL     1      -0.107   9.792  19.863  0.00  0.00    +0.000 NA
ATOM     21  C   UNL     1       0.775   9.014  20.523  0.00  0.00    +0.000 A 
ATOM     22  C   UNL     1       1.859   8.392  19.922  0.00  0.00    +0.000 A 
ENDBRANCH  15  17
ENDBRANCH   2  15
BRANCH   7  23
ATOM     23  C   UNL     1       4.345   3.534  19.551  0.00  0.00    +0.000 C 
ATOM     24  O   UNL     1       4.754   4.479  20.212  0.00  0.00    +0.000 OA
BRANCH  23  25
ATOM     25  O   UNL     1       4.626   2.226  19.802  0.00  0.00    +0.000 OA
ATOM     26  C   UNL     1       3.951   1.308  18.940  0.00  0.00    +0.000 C 
ENDBRANCH  23  25
ENDBRANCH   7  23
TORSDOF 7
ENDMDL
MODEL 8
REMARK VINA RESULT:      -6.8      1.719      4.692
REMARK  Name = 
REMARK  11 active torsions:
REMARK  status: ('A' for Active; 'I' for Inactive)
REMARK    1  A    between atoms: C_1  and  C_2
REMARK    2  A    between atoms: C_2  and  C_3
REMARK    3  A    between atoms: C_3  and  C_4
REMARK    4  A    between atoms: C_4  and  C_6
REMARK    5  A    between atoms: C_7  and  N_8
REMARK    6  A    between atoms: N_8  and  C_9
REMARK    7  A    between atoms: C_16  and  C_17
REMARK    8  A    between atoms: C_16  and  C_18
REMARK    9  A    between atoms: C_19  and  C_20
REMARK   10  A    between atoms: C_20  and  O_22
REMARK   11  A    between atoms: O_22  and  C_23
REMARK                            x       y       z     vdW  Elec       q    Type
REMARK                         _______ _______ _______ _____ _____    ______ ____
ROOT
ATOM      1  C   UNL     1       4.271   4.912  18.568  0.00  0.00    +0.000 C 
ATOM      2  C   UNL     1       3.206   5.204  19.363  0.00  0.00    +0.000 C 
ATOM      3  C   UNL     1       2.019   4.251  19.502  0.00  0.00    +0.000 C 
ATOM      4  C   UNL     1       1.799   3.319  18.294  0.00  0.00    +0.000 C 
ATOM      5  C   UNL     1       0.748   2.246  18.635  0.00  0.00    +0.000 C 
ATOM      6  C   UNL     1       1.239   4.135  17.101  0.00  0.00    +0.000 C 
ATOM      7  C   UNL     1       3.142   2.671  17.906  0.00  0.00    +0.000 C 
ATOM      8  C   UNL     1       4.163   3.746  17.633  0.00  0.00    +0.000 C 
ATOM      9  O   UNL     1       4.877   3.645  16.637  0.00  0.00    +0.000 OA
ENDROOT
BRANCH   1  10
ATOM     10  C   UNL     1       5.517   5.775  18.607  0.00  0.00    +0.000 C 
ATOM     11  O   UNL     1       6.302   5.691  19.556  0.00  0.00    +0.000 OA
BRANCH  10  12
ATOM     12  C   UNL     1       5.785   6.716  17.441  0.00  0.00    +0.000 C 
BRANCH  12  14
ATOM     13  C   UNL     1       7.811   8.171  17.649  0.00  0.00    +0.000 C 
ATOM     14  C   UNL     1       7.258   6.873  17.074  0.00  0.00    +0.000 C 
ENDBRANCH  12  14
ENDBRANCH  10  12
ENDBRANCH   1  10
BRANCH   2  15
ATOM     15  N   UNL     1       3.118   6.345  20.180  0.00  0.00    +0.000 N 
ATOM     16  H   UNL     1       4.073   6.700  20.355  0.00  0.00    +0.000 HD
BRANCH  15  17
ATOM     17  C   UNL     1       2.361   7.490  19.761  0.00  0.00    +0.000 A 
ATOM     18  C   UNL     1       2.341   7.962  18.448  0.00  0.00    +0.000 A 
ATOM     19  C   UNL     1       1.573   9.077  18.143  0.00  0.00    +0.000 A 
ATOM     20  N   UNL     1       0.809   9.732  19.040  0.00  0.00    +0.000 NA
ATOM     21  C   UNL     1       0.796   9.231  20.292  0.00  0.00    +0.000 A 
ATOM     22  C   UNL     1       1.526   8.120  20.688  0.00  0.00    +0.000 A 
ENDBRANCH  15  17
ENDBRANCH   2  15
BRANCH   7  23
ATOM     23  C   UNL     1       3.703   1.707  18.930  0.00  0.00    +0.000 C 
ATOM     24  O   UNL     1       3.593   0.491  18.867  0.00  0.00    +0.000 OA
BRANCH  23  25
ATOM     25  O   UNL     1       4.353   2.382  19.916  0.00  0.00    +0.000 OA
ATOM     26  C   UNL     1       4.950   1.542  20.906  0.00  0.00    +0.000 C 
ENDBRANCH  23  25
ENDBRANCH   7  23
TORSDOF 7
ENDMDL
MODEL 9
REMARK VINA RESULT:      -6.8      1.467      4.529
REMARK  Name = 
REMARK  11 active torsions:
REMARK  status: ('A' for Active; 'I' for Inactive)
REMARK    1  A    between atoms: C_1  and  C_2
REMARK    2  A    between atoms: C_2  and  C_3
REMARK    3  A    between atoms: C_3  and  C_4
REMARK    4  A    between atoms: C_4  and  C_6
REMARK    5  A    between atoms: C_7  and  N_8
REMARK    6  A    between atoms: N_8  and  C_9
REMARK    7  A    between atoms: C_16  and  C_17
REMARK    8  A    between atoms: C_16  and  C_18
REMARK    9  A    between atoms: C_19  and  C_20
REMARK   10  A    between atoms: C_20  and  O_22
REMARK   11  A    between atoms: O_22  and  C_23
REMARK                            x       y       z     vdW  Elec       q    Type
REMARK                         _______ _______ _______ _____ _____    ______ ____
ROOT
ATOM      1  C   UNL     1       4.120   5.214  18.056  0.00  0.00    +0.000 C 
ATOM      2  C   UNL     1       3.205   5.480  19.028  0.00  0.00    +0.000 C 
ATOM      3  C   UNL     1       2.101   4.486  19.388  0.00  0.00    +0.000 C 
ATOM      4  C   UNL     1       1.705   3.526  18.249  0.00  0.00    +0.000 C 
ATOM      5  C   UNL     1       0.775   2.421  18.785  0.00  0.00    +0.000 C 
ATOM      6  C   UNL     1       0.908   4.300  17.169  0.00  0.00    +0.000 C 
ATOM      7  C   UNL     1       2.981   2.922  17.632  0.00  0.00    +0.000 C 
ATOM      8  C   UNL     1       3.892   4.030  17.168  0.00  0.00    +0.000 C 
ATOM      9  O   UNL     1       4.419   3.937  16.060  0.00  0.00    +0.000 OA
ENDROOT
BRANCH   1  10
ATOM     10  C   UNL     1       5.318   6.124  17.861  0.00  0.00    +0.000 C 
ATOM     11  O   UNL     1       5.212   7.156  17.192  0.00  0.00    +0.000 OA
BRANCH  10  12
ATOM     12  C   UNL     1       6.632   5.748  18.532  0.00  0.00    +0.000 C 
BRANCH  12  14
ATOM     13  C   UNL     1       7.474   4.851  16.352  0.00  0.00    +0.000 C 
ATOM     14  C   UNL     1       7.391   4.610  17.855  0.00  0.00    +0.000 C 
ENDBRANCH  12  14
ENDBRANCH  10  12
ENDBRANCH   1  10
BRANCH   2  15
ATOM     15  N   UNL     1       3.221   6.630  19.835  0.00  0.00    +0.000 N 
ATOM     16  H   UNL     1       4.150   7.077  19.757  0.00  0.00    +0.000 HD
BRANCH  15  17
ATOM     17  C   UNL     1       2.276   7.689  19.621  0.00  0.00    +0.000 A 
ATOM     18  C   UNL     1       1.498   8.245  20.638  0.00  0.00    +0.000 A 
ATOM     19  C   UNL     1       0.614   9.270  20.327  0.00  0.00    +0.000 A 
ATOM     20  N   UNL     1       0.471   9.792  19.094  0.00  0.00    +0.000 NA
ATOM     21  C   UNL     1       1.269   9.282  18.133  0.00  0.00    +0.000 A 
ATOM     22  C   UNL     1       2.184   8.262  18.349  0.00  0.00    +0.000 A 
ENDBRANCH  15  17
ENDBRANCH   2  15
BRANCH   7  23
ATOM     23  C   UNL     1       3.755   1.997  18.547  0.00  0.00    +0.000 C 
ATOM     24  O   UNL     1       3.737   0.776  18.471  0.00  0.00    +0.000 OA
BRANCH  23  25
ATOM     25  O   UNL     1       4.476   2.713  19.452  0.00  0.00    +0.000 OA
ATOM     26  C   UNL     1       4.585   2.094  20.735  0.00  0.00    +0.000 C 
ENDBRANCH  23  25
ENDBRANCH   7  23
TORSDOF 7
ENDMDL
