MODEL 1
REMARK VINA RESULT:      -8.0      0.000      0.000
REMARK  Name = 
REMARK  6 active torsions:
REMARK  status: ('A' for Active; 'I' for Inactive)
REMARK    1  A    between atoms: N_1  and  C_2
REMARK    2  A    between atoms: C_2  and  N_4
REMARK    3  A    between atoms: N_4  and  N_5
REMARK    4  A    between atoms: C_6  and  C_7
REMARK    5  A    between atoms: C_6  and  C_15
REMARK    6  A    between atoms: C_8  and  C_9
REMARK                            x       y       z     vdW  Elec       q    Type
REMARK                         _______ _______ _______ _____ _____    ______ ____
ROOT
ATOM      1  N   UNL     1       7.743   4.513  16.666  0.00  0.00    +0.000 NA
ATOM      2  C   UNL     1       6.636   4.203  16.056  0.00  0.00    +0.000 C 
ENDROOT
BRANCH   2   3
ATOM      3  C   UNL     1       6.663   4.230  14.553  0.00  0.00    +0.000 A 
ATOM      4  C   UNL     1       7.583   5.066  13.907  0.00  0.00    +0.000 A 
ATOM      5  C   UNL     1       7.644   5.100  12.513  0.00  0.00    +0.000 A 
ATOM      6  C   UNL     1       6.791   4.298  11.756  0.00  0.00    +0.000 A 
ATOM      7  C   UNL     1       5.856   3.483  12.389  0.00  0.00    +0.000 A 
ATOM      8  C   UNL     1       5.776   3.465  13.783  0.00  0.00    +0.000 A 
ENDBRANCH   2   3
BRANCH   1   9
ATOM      9  N   UNL     1       7.796   4.487  18.027  0.00  0.00    +0.000 N 
ATOM     10  H   UNL     1       7.842   3.609  18.532  0.00  0.00    +0.000 HD
BRANCH   9  11
ATOM     11  C   UNL     1       7.856   5.649  18.750  0.00  0.00    +0.000 C 
ATOM     12  S   UNL     1       7.689   7.143  18.050  0.00  0.00    +0.000 S 
BRANCH  11  13
ATOM     13  N   UNL     1       8.065   5.504  20.081  0.00  0.00    +0.000 N 
ATOM     14  H   UNL     1       7.317   5.597  20.752  0.00  0.00    +0.000 HD
ATOM     15  H   UNL     1       9.006   5.264  20.374  0.00  0.00    +0.000 HD
ENDBRANCH  11  13
ENDBRANCH   9  11
ENDBRANCH   1   9
BRANCH   2  16
ATOM     16  C   UNL     1       5.325   3.864  16.712  0.00  0.00    +0.000 C 
ATOM     17  C   UNL     1       4.481   4.802  17.174  0.00  0.00    +0.000 C 
BRANCH  17  18
ATOM     18  C   UNL     1       3.288   4.467  17.951  0.00  0.00    +0.000 A 
ATOM     19  C   UNL     1       2.471   3.403  17.545  0.00  0.00    +0.000 A 
ATOM     20  C   UNL     1       1.341   3.060  18.289  0.00  0.00    +0.000 A 
ATOM     21  C   UNL     1       1.024   3.777  19.442  0.00  0.00    +0.000 A 
ATOM     22  C   UNL     1       1.836   4.833  19.852  0.00  0.00    +0.000 A 
ATOM     23  C   UNL     1       2.968   5.179  19.110  0.00  0.00    +0.000 A 
ENDBRANCH  17  18
ENDBRANCH   2  16
TORSDOF 6
ENDMDL
MODEL 2
REMARK VINA RESULT:      -7.9      0.296      1.105
REMARK  Name = 
REMARK  6 active torsions:
REMARK  status: ('A' for Active; 'I' for Inactive)
REMARK    1  A    between atoms: N_1  and  C_2
REMARK    2  A    between atoms: C_2  and  N_4
REMARK    3  A    between atoms: N_4  and  N_5
REMARK    4  A    between atoms: C_6  and  C_7
REMARK    5  A    between atoms: C_6  and  C_15
REMARK    6  A    between atoms: C_8  and  C_9
REMARK                            x       y       z     vdW  Elec       q    Type
REMARK                         _______ _______ _______ _____ _____    ______ ____
ROOT
ATOM      1  N   UNL     1       7.626   4.565  16.660  0.00  0.00    +0.000 NA
ATOM      2  C   UNL     1       6.563   4.160  16.027  0.00  0.00    +0.000 C 
ENDROOT
BRANCH   2   3
ATOM      3  C   UNL     1       6.616   4.201  14.525  0.00  0.00    +0.000 A 
ATOM      4  C   UNL     1       7.550   5.039  13.902  0.00  0.00    +0.000 A 
ATOM      5  C   UNL     1       7.635   5.085  12.510  0.00  0.00    +0.000 A 
ATOM      6  C   UNL     1       6.792   4.293  11.731  0.00  0.00    +0.000 A 
ATOM      7  C   UNL     1       5.842   3.476  12.341  0.00  0.00    +0.000 A 
ATOM      8  C   UNL     1       5.739   3.447  13.733  0.00  0.00    +0.000 A 
ENDBRANCH   2   3
BRANCH   1   9
ATOM      9  N   UNL     1       7.655   4.535  18.022  0.00  0.00    +0.000 N 
ATOM     10  H   UNL     1       7.621   3.656  18.526  0.00  0.00    +0.000 HD
BRANCH   9  11
ATOM     11  C   UNL     1       7.799   5.687  18.747  0.00  0.00    +0.000 C 
ATOM     12  S   UNL     1       7.694   7.192  18.060  0.00  0.00    +0.000 S 
BRANCH  11  13
ATOM     13  N   UNL     1       8.038   5.523  20.071  0.00  0.00    +0.000 N 
ATOM     14  H   UNL     1       8.683   4.828  20.415  0.00  0.00    +0.000 HD
ATOM     15  H   UNL     1       7.563   6.158  20.704  0.00  0.00    +0.000 HD
ENDBRANCH  11  13
ENDBRANCH   9  11
ENDBRANCH   1   9
BRANCH   2  16
ATOM     16  C   UNL     1       5.276   3.700  16.655  0.00  0.00    +0.000 C 
ATOM     17  C   UNL     1       4.373   4.552  17.169  0.00  0.00    +0.000 C 
BRANCH  17  18
ATOM     18  C   UNL     1       3.204   4.096  17.919  0.00  0.00    +0.000 A 
ATOM     19  C   UNL     1       2.662   4.910  18.924  0.00  0.00    +0.000 A 
ATOM     20  C   UNL     1       1.534   4.495  19.634  0.00  0.00    +0.000 A 
ATOM     21  C   UNL     1       0.942   3.267  19.342  0.00  0.00    +0.000 A 
ATOM     22  C   UNL     1       1.475   2.456  18.340  0.00  0.00    +0.000 A 
ATOM     23  C   UNL     1       2.603   2.869  17.628  0.00  0.00    +0.000 A 
ENDBRANCH  17  18
ENDBRANCH   2  16
TORSDOF 6
ENDMDL
MODEL 3
REMARK VINA RESULT:      -7.9      0.138      1.531
REMARK  Name = 
REMARK  6 active torsions:
REMARK  status: ('A' for Active; 'I' for Inactive)
REMARK    1  A    between atoms: N_1  and  C_2
REMARK    2  A    between atoms: C_2  and  N_4
REMARK    3  A    between atoms: N_4  and  N_5
REMARK    4  A    between atoms: C_6  and  C_7
REMARK    5  A    between atoms: C_6  and  C_15
REMARK    6  A    between atoms: C_8  and  C_9
REMARK                            x       y       z     vdW  Elec       q    Type
REMARK                         _______ _______ _______ _____ _____    ______ ____
ROOT
ATOM      1  N   UNL     1       7.707   4.512  16.657  0.00  0.00    +0.000 NA
ATOM      2  C   UNL     1       6.630   4.193  16.000  0.00  0.00    +0.000 C 
ENDROOT
BRANCH   2   3
ATOM      3  C   UNL     1       6.716   4.238  14.499  0.00  0.00    +0.000 A 
ATOM      4  C   UNL     1       5.894   3.389  13.748  0.00  0.00    +0.000 A 
ATOM      5  C   UNL     1       5.939   3.420  12.353  0.00  0.00    +0.000 A 
ATOM      6  C   UNL     1       6.801   4.301  11.701  0.00  0.00    +0.000 A 
ATOM      7  C   UNL     1       7.642   5.130  12.440  0.00  0.00    +0.000 A 
ATOM      8  C   UNL     1       7.616   5.083  13.835  0.00  0.00    +0.000 A 
ENDBRANCH   2   3
BRANCH   1   9
ATOM      9  N   UNL     1       7.705   4.471  18.019  0.00  0.00    +0.000 N 
ATOM     10  H   UNL     1       7.651   3.589  18.515  0.00  0.00    +0.000 HD
BRANCH   9  11
ATOM     11  C   UNL     1       7.845   5.617  18.756  0.00  0.00    +0.000 C 
ATOM     12  S   UNL     1       7.672   7.128  18.095  0.00  0.00    +0.000 S 
BRANCH  11  13
ATOM     13  N   UNL     1       8.139   5.442  20.067  0.00  0.00    +0.000 N 
ATOM     14  H   UNL     1       7.612   5.897  20.797  0.00  0.00    +0.000 HD
ATOM     15  H   UNL     1       8.895   4.802  20.286  0.00  0.00    +0.000 HD
ENDBRANCH  11  13
ENDBRANCH   9  11
ENDBRANCH   1   9
BRANCH   2  16
ATOM     16  C   UNL     1       5.298   3.829  16.599  0.00  0.00    +0.000 C 
ATOM     17  C   UNL     1       4.542   4.709  17.275  0.00  0.00    +0.000 C 
BRANCH  17  18
ATOM     18  C   UNL     1       3.330   4.312  17.990  0.00  0.00    +0.000 A 
ATOM     19  C   UNL     1       2.871   5.088  19.064  0.00  0.00    +0.000 A 
ATOM     20  C   UNL     1       1.704   4.731  19.743  0.00  0.00    +0.000 A 
ATOM     21  C   UNL     1       0.990   3.600  19.350  0.00  0.00    +0.000 A 
ATOM     22  C   UNL     1       1.440   2.828  18.279  0.00  0.00    +0.000 A 
ATOM     23  C   UNL     1       2.607   3.183  17.599  0.00  0.00    +0.000 A 
ENDBRANCH  17  18
ENDBRANCH   2  16
TORSDOF 6
ENDMDL
MODEL 4
REMARK VINA RESULT:      -7.7      0.988      5.825
REMARK  Name = 
REMARK  6 active torsions:
REMARK  status: ('A' for Active; 'I' for Inactive)
REMARK    1  A    between atoms: N_1  and  C_2
REMARK    2  A    between atoms: C_2  and  N_4
REMARK    3  A    between atoms: N_4  and  N_5
REMARK    4  A    between atoms: C_6  and  C_7
REMARK    5  A    between atoms: C_6  and  C_15
REMARK    6  A    between atoms: C_8  and  C_9
REMARK                            x       y       z     vdW  Elec       q    Type
REMARK                         _______ _______ _______ _____ _____    ______ ____
ROOT
ATOM      1  N   UNL     1       5.962   4.057  18.694  0.00  0.00    +0.000 NA
ATOM      2  C   UNL     1       5.146   4.121  17.683  0.00  0.00    +0.000 C 
ENDROOT
BRANCH   2   3
ATOM      3  C   UNL     1       3.714   3.746  17.948  0.00  0.00    +0.000 A 
ATOM      4  C   UNL     1       2.717   4.715  17.776  0.00  0.00    +0.000 A 
ATOM      5  C   UNL     1       1.376   4.392  17.997  0.00  0.00    +0.000 A 
ATOM      6  C   UNL     1       1.024   3.100  18.386  0.00  0.00    +0.000 A 
ATOM      7  C   UNL     1       2.010   2.137  18.585  0.00  0.00    +0.000 A 
ATOM      8  C   UNL     1       3.353   2.464  18.388  0.00  0.00    +0.000 A 
ENDBRANCH   2   3
BRANCH   1   9
ATOM      9  N   UNL     1       7.270   4.404  18.530  0.00  0.00    +0.000 N 
ATOM     10  H   UNL     1       7.905   3.815  18.003  0.00  0.00    +0.000 HD
BRANCH   9  11
ATOM     11  C   UNL     1       7.747   5.592  19.016  0.00  0.00    +0.000 C 
ATOM     12  S   UNL     1       7.729   6.991  18.125  0.00  0.00    +0.000 S 
BRANCH  11  13
ATOM     13  N   UNL     1       8.242   5.556  20.277  0.00  0.00    +0.000 N 
ATOM     14  H   UNL     1       8.329   6.389  20.840  0.00  0.00    +0.000 HD
ATOM     15  H   UNL     1       8.491   4.645  20.646  0.00  0.00    +0.000 HD
ENDBRANCH  11  13
ENDBRANCH   9  11
ENDBRANCH   1   9
BRANCH   2  16
ATOM     16  C   UNL     1       5.507   4.490  16.270  0.00  0.00    +0.000 C 
ATOM     17  C   UNL     1       5.928   3.586  15.370  0.00  0.00    +0.000 C 
BRANCH  17  18
ATOM     18  C   UNL     1       6.430   3.971  14.051  0.00  0.00    +0.000 A 
ATOM     19  C   UNL     1       5.941   3.326  12.906  0.00  0.00    +0.000 A 
ATOM     20  C   UNL     1       6.396   3.697  11.640  0.00  0.00    +0.000 A 
ATOM     21  C   UNL     1       7.340   4.715  11.512  0.00  0.00    +0.000 A 
ATOM     22  C   UNL     1       7.826   5.363  12.647  0.00  0.00    +0.000 A 
ATOM     23  C   UNL     1       7.372   4.993  13.916  0.00  0.00    +0.000 A 
ENDBRANCH  17  18
ENDBRANCH   2  16
TORSDOF 6
ENDMDL
MODEL 5
REMARK VINA RESULT:      -7.6      0.981      5.929
REMARK  Name = 
REMARK  6 active torsions:
REMARK  status: ('A' for Active; 'I' for Inactive)
REMARK    1  A    between atoms: N_1  and  C_2
REMARK    2  A    between atoms: C_2  and  N_4
REMARK    3  A    between atoms: N_4  and  N_5
REMARK    4  A    between atoms: C_6  and  C_7
REMARK    5  A    between atoms: C_6  and  C_15
REMARK    6  A    between atoms: C_8  and  C_9
REMARK                            x       y       z     vdW  Elec       q    Type
REMARK                         _______ _______ _______ _____ _____    ______ ____
ROOT
ATOM      1  N   UNL     1       5.802   4.133  18.761  0.00  0.00    +0.000 NA
ATOM      2  C   UNL     1       5.068   3.783  17.745  0.00  0.00    +0.000 C 
ENDROOT
BRANCH   2   3
ATOM      3  C   UNL     1       3.612   3.528  18.021  0.00  0.00    +0.000 A 
ATOM      4  C   UNL     1       3.237   2.315  18.613  0.00  0.00    +0.000 A 
ATOM      5  C   UNL     1       1.895   2.056  18.897  0.00  0.00    +0.000 A 
ATOM      6  C   UNL     1       0.921   3.008  18.596  0.00  0.00    +0.000 A 
ATOM      7  C   UNL     1       1.281   4.206  17.983  0.00  0.00    +0.000 A 
ATOM      8  C   UNL     1       2.620   4.456  17.676  0.00  0.00    +0.000 A 
ENDBRANCH   2   3
BRANCH   1   9
ATOM      9  N   UNL     1       7.126   4.401  18.579  0.00  0.00    +0.000 N 
ATOM     10  H   UNL     1       7.729   3.748  18.091  0.00  0.00    +0.000 HD
BRANCH   9  11
ATOM     11  C   UNL     1       7.665   5.591  18.991  0.00  0.00    +0.000 C 
ATOM     12  S   UNL     1       7.635   6.956  18.050  0.00  0.00    +0.000 S 
BRANCH  11  13
ATOM     13  N   UNL     1       8.231   5.586  20.222  0.00  0.00    +0.000 N 
ATOM     14  H   UNL     1       8.349   4.735  20.752  0.00  0.00    +0.000 HD
ATOM     15  H   UNL     1       8.564   6.476  20.577  0.00  0.00    +0.000 HD
ENDBRANCH  11  13
ENDBRANCH   9  11
ENDBRANCH   1   9
BRANCH   2  16
ATOM     16  C   UNL     1       5.547   3.566  16.335  0.00  0.00    +0.000 C 
ATOM     17  C   UNL     1       5.971   4.571  15.551  0.00  0.00    +0.000 C 
BRANCH  17  18
ATOM     18  C   UNL     1       6.281   4.381  14.134  0.00  0.00    +0.000 A 
ATOM     19  C   UNL     1       7.353   5.076  13.559  0.00  0.00    +0.000 A 
ATOM     20  C   UNL     1       7.673   4.889  12.213  0.00  0.00    +0.000 A 
ATOM     21  C   UNL     1       6.924   4.004  11.438  0.00  0.00    +0.000 A 
ATOM     22  C   UNL     1       5.860   3.306  12.007  0.00  0.00    +0.000 A 
ATOM     23  C   UNL     1       5.538   3.492  13.354  0.00  0.00    +0.000 A 
ENDBRANCH  17  18
ENDBRANCH   2  16
TORSDOF 6
ENDMDL
MODEL 6
REMARK VINA RESULT:      -7.6      0.220      1.100
REMARK  Name = 
REMARK  6 active torsions:
REMARK  status: ('A' for Active; 'I' for Inactive)
REMARK    1  A    between atoms: N_1  and  C_2
REMARK    2  A    between atoms: C_2  and  N_4
REMARK    3  A    between atoms: N_4  and  N_5
REMARK    4  A    between atoms: C_6  and  C_7
REMARK    5  A    between atoms: C_6  and  C_15
REMARK    6  A    between atoms: C_8  and  C_9
REMARK                            x       y       z     vdW  Elec       q    Type
REMARK                         _______ _______ _______ _____ _____    ______ ____
ROOT
ATOM      1  N   UNL     1       7.877   4.584  16.564  0.00  0.00    +0.000 NA
ATOM      2  C   UNL     1       6.761   4.263  15.977  0.00  0.00    +0.000 C 
ENDROOT
BRANCH   2   3
ATOM      3  C   UNL     1       6.766   4.263  14.473  0.00  0.00    +0.000 A 
ATOM      4  C   UNL     1       5.904   3.392  13.793  0.00  0.00    +0.000 A 
ATOM      5  C   UNL     1       5.874   3.381  12.397  0.00  0.00    +0.000 A 
ATOM      6  C   UNL     1       6.698   4.241  11.673  0.00  0.00    +0.000 A 
ATOM      7  C   UNL     1       7.576   5.092  12.340  0.00  0.00    +0.000 A 
ATOM      8  C   UNL     1       7.627   5.087  13.736  0.00  0.00    +0.000 A 
ENDBRANCH   2   3
BRANCH   1   9
ATOM      9  N   UNL     1       7.949   4.583  17.925  0.00  0.00    +0.000 N 
ATOM     10  H   UNL     1       8.217   3.748  18.434  0.00  0.00    +0.000 HD
BRANCH   9  11
ATOM     11  C   UNL     1       7.727   5.729  18.641  0.00  0.00    +0.000 C 
ATOM     12  S   UNL     1       7.754   7.234  17.944  0.00  0.00    +0.000 S 
BRANCH  11  13
ATOM     13  N   UNL     1       7.485   5.560  19.963  0.00  0.00    +0.000 N 
ATOM     14  H   UNL     1       7.068   6.285  20.527  0.00  0.00    +0.000 HD
ATOM     15  H   UNL     1       7.712   4.653  20.358  0.00  0.00    +0.000 HD
ENDBRANCH  11  13
ENDBRANCH   9  11
ENDBRANCH   1   9
BRANCH   2  16
ATOM     16  C   UNL     1       5.459   3.938  16.658  0.00  0.00    +0.000 C 
ATOM     17  C   UNL     1       4.578   4.882  17.028  0.00  0.00    +0.000 C 
BRANCH  17  18
ATOM     18  C   UNL     1       3.394   4.576  17.830  0.00  0.00    +0.000 A 
ATOM     19  C   UNL     1       2.541   3.535  17.439  0.00  0.00    +0.000 A 
ATOM     20  C   UNL     1       1.418   3.219  18.207  0.00  0.00    +0.000 A 
ATOM     21  C   UNL     1       1.144   3.941  19.367  0.00  0.00    +0.000 A 
ATOM     22  C   UNL     1       1.993   4.975  19.762  0.00  0.00    +0.000 A 
ATOM     23  C   UNL     1       3.117   5.293  18.996  0.00  0.00    +0.000 A 
ENDBRANCH  17  18
ENDBRANCH   2  16
TORSDOF 6
ENDMDL
MODEL 7
REMARK VINA RESULT:      -7.5      1.057      5.824
REMARK  Name = 
REMARK  6 active torsions:
REMARK  status: ('A' for Active; 'I' for Inactive)
REMARK    1  A    between atoms: N_1  and  C_2
REMARK    2  A    between atoms: C_2  and  N_4
REMARK    3  A    between atoms: N_4  and  N_5
REMARK    4  A    between atoms: C_6  and  C_7
REMARK    5  A    between atoms: C_6  and  C_15
REMARK    6  A    between atoms: C_8  and  C_9
REMARK                            x       y       z     vdW  Elec       q    Type
REMARK                         _______ _______ _______ _____ _____    ______ ____
ROOT
ATOM      1  N   UNL     1       5.853   4.129  18.737  0.00  0.00    +0.000 NA
ATOM      2  C   UNL     1       5.128   3.764  17.720  0.00  0.00    +0.000 C 
ENDROOT
BRANCH   2   3
ATOM      3  C   UNL     1       3.672   3.498  17.991  0.00  0.00    +0.000 A 
ATOM      4  C   UNL     1       2.731   4.481  17.657  0.00  0.00    +0.000 A 
ATOM      5  C   UNL     1       1.371   4.257  17.879  0.00  0.00    +0.000 A 
ATOM      6  C   UNL     1       0.943   3.050  18.432  0.00  0.00    +0.000 A 
ATOM      7  C   UNL     1       1.873   2.078  18.791  0.00  0.00    +0.000 A 
ATOM      8  C   UNL     1       3.236   2.310  18.592  0.00  0.00    +0.000 A 
ENDBRANCH   2   3
BRANCH   1   9
ATOM      9  N   UNL     1       7.175   4.407  18.560  0.00  0.00    +0.000 N 
ATOM     10  H   UNL     1       7.780   3.768  18.056  0.00  0.00    +0.000 HD
BRANCH   9  11
ATOM     11  C   UNL     1       7.709   5.589  18.998  0.00  0.00    +0.000 C 
ATOM     12  S   UNL     1       7.705   6.966  18.073  0.00  0.00    +0.000 S 
BRANCH  11  13
ATOM     13  N   UNL     1       8.248   5.567  20.241  0.00  0.00    +0.000 N 
ATOM     14  H   UNL     1       7.686   5.693  21.069  0.00  0.00    +0.000 HD
ATOM     15  H   UNL     1       9.244   5.383  20.306  0.00  0.00    +0.000 HD
ENDBRANCH  11  13
ENDBRANCH   9  11
ENDBRANCH   1   9
BRANCH   2  16
ATOM     16  C   UNL     1       5.615   3.539  16.314  0.00  0.00    +0.000 C 
ATOM     17  C   UNL     1       5.657   4.520  15.397  0.00  0.00    +0.000 C 
BRANCH  17  18
ATOM     18  C   UNL     1       5.978   4.263  13.993  0.00  0.00    +0.000 A 
ATOM     19  C   UNL     1       7.148   4.800  13.439  0.00  0.00    +0.000 A 
ATOM     20  C   UNL     1       7.477   4.546  12.106  0.00  0.00    +0.000 A 
ATOM     21  C   UNL     1       6.638   3.755  11.322  0.00  0.00    +0.000 A 
ATOM     22  C   UNL     1       5.475   3.215  11.871  0.00  0.00    +0.000 A 
ATOM     23  C   UNL     1       5.144   3.467  13.204  0.00  0.00    +0.000 A 
ENDBRANCH  17  18
ENDBRANCH   2  16
TORSDOF 6
ENDMDL
MODEL 8
REMARK VINA RESULT:      -7.4      1.042      5.788
REMARK  Name = 
REMARK  6 active torsions:
REMARK  status: ('A' for Active; 'I' for Inactive)
REMARK    1  A    between atoms: N_1  and  C_2
REMARK    2  A    between atoms: C_2  and  N_4
REMARK    3  A    between atoms: N_4  and  N_5
REMARK    4  A    between atoms: C_6  and  C_7
REMARK    5  A    between atoms: C_6  and  C_15
REMARK    6  A    between atoms: C_8  and  C_9
REMARK                            x       y       z     vdW  Elec       q    Type
REMARK                         _______ _______ _______ _____ _____    ______ ____
ROOT
ATOM      1  N   UNL     1       5.870   4.195  18.728  0.00  0.00    +0.000 NA
ATOM      2  C   UNL     1       5.169   3.846  17.689  0.00  0.00    +0.000 C 
ENDROOT
BRANCH   2   3
ATOM      3  C   UNL     1       3.699   3.618  17.913  0.00  0.00    +0.000 A 
ATOM      4  C   UNL     1       3.259   2.337  18.271  0.00  0.00    +0.000 A 
ATOM      5  C   UNL     1       1.904   2.098  18.503  0.00  0.00    +0.000 A 
ATOM      6  C   UNL     1       0.980   3.136  18.382  0.00  0.00    +0.000 A 
ATOM      7  C   UNL     1       1.405   4.407  18.001  0.00  0.00    +0.000 A 
ATOM      8  C   UNL     1       2.757   4.642  17.745  0.00  0.00    +0.000 A 
ENDBRANCH   2   3
BRANCH   1   9
ATOM      9  N   UNL     1       7.204   4.440  18.592  0.00  0.00    +0.000 N 
ATOM     10  H   UNL     1       7.808   3.787  18.105  0.00  0.00    +0.000 HD
BRANCH   9  11
ATOM     11  C   UNL     1       7.754   5.606  19.052  0.00  0.00    +0.000 C 
ATOM     12  S   UNL     1       7.774   6.998  18.150  0.00  0.00    +0.000 S 
BRANCH  11  13
ATOM     13  N   UNL     1       8.290   5.555  20.296  0.00  0.00    +0.000 N 
ATOM     14  H   UNL     1       8.106   6.268  20.985  0.00  0.00    +0.000 HD
ATOM     15  H   UNL     1       8.860   4.745  20.516  0.00  0.00    +0.000 HD
ENDBRANCH  11  13
ENDBRANCH   9  11
ENDBRANCH   1   9
BRANCH   2  16
ATOM     16  C   UNL     1       5.695   3.606  16.300  0.00  0.00    +0.000 C 
ATOM     17  C   UNL     1       5.627   4.532  15.329  0.00  0.00    +0.000 C 
BRANCH  17  18
ATOM     18  C   UNL     1       5.991   4.240  13.943  0.00  0.00    +0.000 A 
ATOM     19  C   UNL     1       5.153   3.436  13.159  0.00  0.00    +0.000 A 
ATOM     20  C   UNL     1       5.479   3.166  11.828  0.00  0.00    +0.000 A 
ATOM     21  C   UNL     1       6.642   3.700  11.276  0.00  0.00    +0.000 A 
ATOM     22  C   UNL     1       7.477   4.504  12.051  0.00  0.00    +0.000 A 
ATOM     23  C   UNL     1       7.153   4.776  13.382  0.00  0.00    +0.000 A 
ENDBRANCH  17  18
ENDBRANCH   2  16
TORSDOF 6
ENDMDL
MODEL 9
REMARK VINA RESULT:      -7.3      2.582      4.566
REMARK  Name = 
REMARK  6 active torsions:
REMARK  status: ('A' for Active; 'I' for Inactive)
REMARK    1  A    between atoms: N_1  and  C_2
REMARK    2  A    between atoms: C_2  and  N_4
REMARK    3  A    between atoms: N_4  and  N_5
REMARK    4  A    between atoms: C_6  and  C_7
REMARK    5  A    between atoms: C_6  and  C_15
REMARK    6  A    between atoms: C_8  and  C_9
REMARK                            x       y       z     vdW  Elec       q    Type
REMARK                         _______ _______ _______ _____ _____    ______ ____
ROOT
ATOM      1  N   UNL     1       6.426   4.587  14.945  0.00  0.00    +0.000 NA
ATOM      2  C   UNL     1       5.975   4.751  16.155  0.00  0.00    +0.000 C 
ENDROOT
BRANCH   2   3
ATOM      3  C   UNL     1       6.786   5.634  17.062  0.00  0.00    +0.000 A 
ATOM      4  C   UNL     1       6.957   6.982  16.721  0.00  0.00    +0.000 A 
ATOM      5  C   UNL     1       7.690   7.831  17.552  0.00  0.00    +0.000 A 
ATOM      6  C   UNL     1       8.253   7.341  18.730  0.00  0.00    +0.000 A 
ATOM      7  C   UNL     1       8.111   5.996  19.065  0.00  0.00    +0.000 A 
ATOM      8  C   UNL     1       7.399   5.140  18.223  0.00  0.00    +0.000 A 
ENDBRANCH   2   3
BRANCH   1   9
ATOM      9  N   UNL     1       5.728   3.817  14.063  0.00  0.00    +0.000 N 
ATOM     10  H   UNL     1       4.846   3.392  14.324  0.00  0.00    +0.000 HD
BRANCH   9  11
ATOM     11  C   UNL     1       6.167   3.652  12.776  0.00  0.00    +0.000 C 
ATOM     12  S   UNL     1       5.457   2.586  11.723  0.00  0.00    +0.000 S 
BRANCH  11  13
ATOM     13  N   UNL     1       7.226   4.415  12.412  0.00  0.00    +0.000 N 
ATOM     14  H   UNL     1       7.181   5.053  11.632  0.00  0.00    +0.000 HD
ATOM     15  H   UNL     1       8.062   4.341  12.982  0.00  0.00    +0.000 HD
ENDBRANCH  11  13
ENDBRANCH   9  11
ENDBRANCH   1   9
BRANCH   2  16
ATOM     16  C   UNL     1       4.748   4.108  16.743  0.00  0.00    +0.000 C 
ATOM     17  C   UNL     1       3.902   4.765  17.552  0.00  0.00    +0.000 C 
BRANCH  17  18
ATOM     18  C   UNL     1       2.804   4.094  18.247  0.00  0.00    +0.000 A 
ATOM     19  C   UNL     1       2.172   4.731  19.324  0.00  0.00    +0.000 A 
ATOM     20  C   UNL     1       1.109   4.110  19.984  0.00  0.00    +0.000 A 
ATOM     21  C   UNL     1       0.673   2.853  19.569  0.00  0.00    +0.000 A 
ATOM     22  C   UNL     1       1.297   2.218  18.495  0.00  0.00    +0.000 A 
ATOM     23  C   UNL     1       2.360   2.836  17.833  0.00  0.00    +0.000 A 
ENDBRANCH  17  18
ENDBRANCH   2  16
TORSDOF 6
ENDMDL
