MODEL 1
REMARK VINA RESULT:      -6.9      0.000      0.000
REMARK  Name = 
REMARK  10 active torsions:
REMARK  status: ('A' for Active; 'I' for Inactive)
REMARK    1  A    between atoms: C_1  and  C_2
REMARK    2  A    between atoms: C_2  and  O_3
REMARK    3  A    between atoms: O_3  and  C_4
REMARK    4  A    between atoms: C_4  and  C_6
REMARK    5  A    between atoms: C_6  and  C_7
REMARK    6  A    between atoms: C_6  and  C_8
REMARK    7  A    between atoms: C_6  and  O_9
REMARK    8  A    between atoms: O_9  and  C_10
REMARK    9  A    between atoms: C_15  and  C_16
REMARK   10  A    between atoms: C_17  and  N_18
REMARK                            x       y       z     vdW  Elec       q    Type
REMARK                         _______ _______ _______ _____ _____    ______ ____
ROOT
ATOM      1  C   UNL     1       3.567   4.382  17.445  0.00  0.00    +0.000 A 
ATOM      2  C   UNL     1       3.672   2.990  17.301  0.00  0.00    +0.000 A 
ATOM      3  C   UNL     1       2.692   2.133  17.801  0.00  0.00    +0.000 A 
ATOM      4  C   UNL     1       1.605   2.651  18.486  0.00  0.00    +0.000 A 
ATOM      5  C   UNL     1       1.526   4.024  18.700  0.00  0.00    +0.000 A 
ATOM      6  C   UNL     1       2.504   4.911  18.207  0.00  0.00    +0.000 A 
ENDROOT
BRANCH   6   7
ATOM      7  C   UNL     1       2.264   6.327  18.539  0.00  0.00    +0.000 C 
ATOM      8  C   UNL     1       2.187   6.831  19.774  0.00  0.00    +0.000 C 
BRANCH   8   9
ATOM      9  N   UNL     1       1.758   8.201  19.946  0.00  0.00    +0.000 N 
ATOM     10  O   UNL     1       1.511   8.619  21.086  0.00  0.00    +0.000 OA
ATOM     11  O   UNL     1       1.699   8.881  18.915  0.00  0.00    +0.000 OA
ENDBRANCH   8   9
ENDBRANCH   6   7
BRANCH   1  12
ATOM     12  O   UNL     1       4.471   5.245  16.867  0.00  0.00    +0.000 OA
BRANCH  12  13
ATOM     13  C   UNL     1       5.815   5.267  17.402  0.00  0.00    +0.000 C 
ATOM     14  C   UNL     1       5.789   4.935  18.907  0.00  0.00    +0.000 C 
ATOM     15  C   UNL     1       6.301   6.731  17.306  0.00  0.00    +0.000 C 
BRANCH  13  16
ATOM     16  C   UNL     1       6.892   4.441  16.643  0.00  0.00    +0.000 C 
ATOM     17  O   UNL     1       8.046   4.274  17.018  0.00  0.00    +0.000 OA
BRANCH  16  18
ATOM     18  O   UNL     1       6.357   3.950  15.488  0.00  0.00    +0.000 OA
BRANCH  18  20
ATOM     19  C   UNL     1       6.214   3.737  13.095  0.00  0.00    +0.000 C 
ATOM     20  C   UNL     1       6.746   4.560  14.252  0.00  0.00    +0.000 C 
ENDBRANCH  18  20
ENDBRANCH  16  18
ENDBRANCH  13  16
ENDBRANCH  12  13
ENDBRANCH   1  12
TORSDOF 7
ENDMDL
MODEL 2
REMARK VINA RESULT:      -6.7      1.437      1.754
REMARK  Name = 
REMARK  10 active torsions:
REMARK  status: ('A' for Active; 'I' for Inactive)
REMARK    1  A    between atoms: C_1  and  C_2
REMARK    2  A    between atoms: C_2  and  O_3
REMARK    3  A    between atoms: O_3  and  C_4
REMARK    4  A    between atoms: C_4  and  C_6
REMARK    5  A    between atoms: C_6  and  C_7
REMARK    6  A    between atoms: C_6  and  C_8
REMARK    7  A    between atoms: C_6  and  O_9
REMARK    8  A    between atoms: O_9  and  C_10
REMARK    9  A    between atoms: C_15  and  C_16
REMARK   10  A    between atoms: C_17  and  N_18
REMARK                            x       y       z     vdW  Elec       q    Type
REMARK                         _______ _______ _______ _____ _____    ______ ____
ROOT
ATOM      1  C   UNL     1       4.234   5.693  17.280  0.00  0.00    +0.000 A 
ATOM      2  C   UNL     1       4.271   4.305  17.077  0.00  0.00    +0.000 A 
ATOM      3  C   UNL     1       3.140   3.513  17.274  0.00  0.00    +0.000 A 
ATOM      4  C   UNL     1       1.959   4.090  17.712  0.00  0.00    +0.000 A 
ATOM      5  C   UNL     1       1.930   5.453  17.988  0.00  0.00    +0.000 A 
ATOM      6  C   UNL     1       3.059   6.276  17.799  0.00  0.00    +0.000 A 
ENDROOT
BRANCH   6   7
ATOM      7  C   UNL     1       2.848   7.691  18.153  0.00  0.00    +0.000 C 
ATOM      8  C   UNL     1       1.705   8.366  17.998  0.00  0.00    +0.000 C 
BRANCH   8   9
ATOM      9  N   UNL     1       1.702   9.797  18.210  0.00  0.00    +0.000 N 
ATOM     10  O   UNL     1       2.506  10.502  17.585  0.00  0.00    +0.000 OA
ATOM     11  O   UNL     1       0.850  10.222  18.999  0.00  0.00    +0.000 OA
ENDBRANCH   8   9
ENDBRANCH   6   7
BRANCH   1  12
ATOM     12  O   UNL     1       5.310   6.500  16.989  0.00  0.00    +0.000 OA
BRANCH  12  13
ATOM     13  C   UNL     1       6.600   6.119  17.523  0.00  0.00    +0.000 C 
ATOM     14  C   UNL     1       6.446   5.636  18.979  0.00  0.00    +0.000 C 
ATOM     15  C   UNL     1       7.442   7.412  17.600  0.00  0.00    +0.000 C 
BRANCH  13  16
ATOM     16  C   UNL     1       7.456   5.138  16.672  0.00  0.00    +0.000 C 
ATOM     17  O   UNL     1       8.060   4.168  17.111  0.00  0.00    +0.000 OA
BRANCH  16  18
ATOM     18  O   UNL     1       7.442   5.538  15.368  0.00  0.00    +0.000 OA
BRANCH  18  20
ATOM     19  C   UNL     1       7.443   4.941  13.037  0.00  0.00    +0.000 C 
ATOM     20  C   UNL     1       6.843   4.668  14.402  0.00  0.00    +0.000 C 
ENDBRANCH  18  20
ENDBRANCH  16  18
ENDBRANCH  13  16
ENDBRANCH  12  13
ENDBRANCH   1  12
TORSDOF 7
ENDMDL
MODEL 3
REMARK VINA RESULT:      -6.7      1.189      1.504
REMARK  Name = 
REMARK  10 active torsions:
REMARK  status: ('A' for Active; 'I' for Inactive)
REMARK    1  A    between atoms: C_1  and  C_2
REMARK    2  A    between atoms: C_2  and  O_3
REMARK    3  A    between atoms: O_3  and  C_4
REMARK    4  A    between atoms: C_4  and  C_6
REMARK    5  A    between atoms: C_6  and  C_7
REMARK    6  A    between atoms: C_6  and  C_8
REMARK    7  A    between atoms: C_6  and  O_9
REMARK    8  A    between atoms: O_9  and  C_10
REMARK    9  A    between atoms: C_15  and  C_16
REMARK   10  A    between atoms: C_17  and  N_18
REMARK                            x       y       z     vdW  Elec       q    Type
REMARK                         _______ _______ _______ _____ _____    ______ ____
ROOT
ATOM      1  C   UNL     1       4.336   5.081  18.085  0.00  0.00    +0.000 A 
ATOM      2  C   UNL     1       4.483   3.722  17.768  0.00  0.00    +0.000 A 
ATOM      3  C   UNL     1       3.379   2.921  17.479  0.00  0.00    +0.000 A 
ATOM      4  C   UNL     1       2.102   3.456  17.537  0.00  0.00    +0.000 A 
ATOM      5  C   UNL     1       1.937   4.783  17.921  0.00  0.00    +0.000 A 
ATOM      6  C   UNL     1       3.037   5.613  18.220  0.00  0.00    +0.000 A 
ENDROOT
BRANCH   6   7
ATOM      7  C   UNL     1       2.673   6.985  18.619  0.00  0.00    +0.000 C 
ATOM      8  C   UNL     1       1.976   7.849  17.876  0.00  0.00    +0.000 C 
BRANCH   8   9
ATOM      9  N   UNL     1       1.861   9.221  18.320  0.00  0.00    +0.000 N 
ATOM     10  O   UNL     1       1.308   9.462  19.402  0.00  0.00    +0.000 OA
ATOM     11  O   UNL     1       2.366  10.071  17.578  0.00  0.00    +0.000 OA
ENDBRANCH   8   9
ENDBRANCH   6   7
BRANCH   1  12
ATOM     12  O   UNL     1       5.421   5.908  18.269  0.00  0.00    +0.000 OA
BRANCH  12  13
ATOM     13  C   UNL     1       6.210   6.249  17.106  0.00  0.00    +0.000 C 
ATOM     14  C   UNL     1       7.073   7.492  17.400  0.00  0.00    +0.000 C 
ATOM     15  C   UNL     1       5.211   6.686  16.011  0.00  0.00    +0.000 C 
BRANCH  13  16
ATOM     16  C   UNL     1       7.040   5.107  16.453  0.00  0.00    +0.000 C 
ATOM     17  O   UNL     1       7.880   4.428  17.029  0.00  0.00    +0.000 OA
BRANCH  16  18
ATOM     18  O   UNL     1       6.698   4.994  15.136  0.00  0.00    +0.000 OA
BRANCH  18  20
ATOM     19  C   UNL     1       5.795   3.831  13.233  0.00  0.00    +0.000 C 
ATOM     20  C   UNL     1       6.340   3.699  14.641  0.00  0.00    +0.000 C 
ENDBRANCH  18  20
ENDBRANCH  16  18
ENDBRANCH  13  16
ENDBRANCH  12  13
ENDBRANCH   1  12
TORSDOF 7
ENDMDL
MODEL 4
REMARK VINA RESULT:      -6.5      1.580      1.852
REMARK  Name = 
REMARK  10 active torsions:
REMARK  status: ('A' for Active; 'I' for Inactive)
REMARK    1  A    between atoms: C_1  and  C_2
REMARK    2  A    between atoms: C_2  and  O_3
REMARK    3  A    between atoms: O_3  and  C_4
REMARK    4  A    between atoms: C_4  and  C_6
REMARK    5  A    between atoms: C_6  and  C_7
REMARK    6  A    between atoms: C_6  and  C_8
REMARK    7  A    between atoms: C_6  and  O_9
REMARK    8  A    between atoms: O_9  and  C_10
REMARK    9  A    between atoms: C_15  and  C_16
REMARK   10  A    between atoms: C_17  and  N_18
REMARK                            x       y       z     vdW  Elec       q    Type
REMARK                         _______ _______ _______ _____ _____    ______ ____
ROOT
ATOM      1  C   UNL     1       4.400   5.225  18.394  0.00  0.00    +0.000 A 
ATOM      2  C   UNL     1       4.505   3.868  18.736  0.00  0.00    +0.000 A 
ATOM      3  C   UNL     1       3.425   2.998  18.592  0.00  0.00    +0.000 A 
ATOM      4  C   UNL     1       2.207   3.476  18.135  0.00  0.00    +0.000 A 
ATOM      5  C   UNL     1       2.069   4.834  17.862  0.00  0.00    +0.000 A 
ATOM      6  C   UNL     1       3.144   5.734  18.002  0.00  0.00    +0.000 A 
ENDROOT
BRANCH   6   7
ATOM      7  C   UNL     1       2.812   7.134  17.680  0.00  0.00    +0.000 C 
ATOM      8  C   UNL     1       2.184   7.987  18.494  0.00  0.00    +0.000 C 
BRANCH   8   9
ATOM      9  N   UNL     1       1.756   9.267  17.973  0.00  0.00    +0.000 N 
ATOM     10  O   UNL     1       0.545   9.524  17.920  0.00  0.00    +0.000 OA
ATOM     11  O   UNL     1       2.660  10.042  17.640  0.00  0.00    +0.000 OA
ENDBRANCH   8   9
ENDBRANCH   6   7
BRANCH   1  12
ATOM     12  O   UNL     1       5.484   6.072  18.431  0.00  0.00    +0.000 OA
BRANCH  12  13
ATOM     13  C   UNL     1       6.486   5.927  17.398  0.00  0.00    +0.000 C 
ATOM     14  C   UNL     1       7.473   4.803  17.774  0.00  0.00    +0.000 C 
ATOM     15  C   UNL     1       7.316   7.230  17.406  0.00  0.00    +0.000 C 
BRANCH  13  16
ATOM     16  C   UNL     1       5.978   5.789  15.935  0.00  0.00    +0.000 C 
ATOM     17  O   UNL     1       5.372   6.653  15.314  0.00  0.00    +0.000 OA
BRANCH  16  18
ATOM     18  O   UNL     1       6.297   4.550  15.459  0.00  0.00    +0.000 OA
BRANCH  18  20
ATOM     19  C   UNL     1       6.420   3.928  13.137  0.00  0.00    +0.000 C 
ATOM     20  C   UNL     1       5.534   4.032  14.363  0.00  0.00    +0.000 C 
ENDBRANCH  18  20
ENDBRANCH  16  18
ENDBRANCH  13  16
ENDBRANCH  12  13
ENDBRANCH   1  12
TORSDOF 7
ENDMDL
MODEL 5
REMARK VINA RESULT:      -6.5      3.100      6.130
REMARK  Name = 
REMARK  10 active torsions:
REMARK  status: ('A' for Active; 'I' for Inactive)
REMARK    1  A    between atoms: C_1  and  C_2
REMARK    2  A    between atoms: C_2  and  O_3
REMARK    3  A    between atoms: O_3  and  C_4
REMARK    4  A    between atoms: C_4  and  C_6
REMARK    5  A    between atoms: C_6  and  C_7
REMARK    6  A    between atoms: C_6  and  C_8
REMARK    7  A    between atoms: C_6  and  O_9
REMARK    8  A    between atoms: O_9  and  C_10
REMARK    9  A    between atoms: C_15  and  C_16
REMARK   10  A    between atoms: C_17  and  N_18
REMARK                            x       y       z     vdW  Elec       q    Type
REMARK                         _______ _______ _______ _____ _____    ______ ____
ROOT
ATOM      1  C   UNL     1       3.212   4.909  17.584  0.00  0.00    +0.000 A 
ATOM      2  C   UNL     1       2.231   5.548  18.358  0.00  0.00    +0.000 A 
ATOM      3  C   UNL     1       2.217   6.933  18.511  0.00  0.00    +0.000 A 
ATOM      4  C   UNL     1       3.205   7.705  17.922  0.00  0.00    +0.000 A 
ATOM      5  C   UNL     1       4.226   7.078  17.213  0.00  0.00    +0.000 A 
ATOM      6  C   UNL     1       4.264   5.679  17.044  0.00  0.00    +0.000 A 
ENDROOT
BRANCH   6   7
ATOM      7  C   UNL     1       5.423   5.190  16.275  0.00  0.00    +0.000 C 
ATOM      8  C   UNL     1       5.698   5.504  15.006  0.00  0.00    +0.000 C 
BRANCH   8   9
ATOM      9  N   UNL     1       6.761   4.799  14.324  0.00  0.00    +0.000 N 
ATOM     10  O   UNL     1       6.513   3.716  13.776  0.00  0.00    +0.000 OA
ATOM     11  O   UNL     1       7.861   5.364  14.313  0.00  0.00    +0.000 OA
ENDBRANCH   8   9
ENDBRANCH   6   7
BRANCH   1  12
ATOM     12  O   UNL     1       3.179   3.555  17.337  0.00  0.00    +0.000 OA
BRANCH  12  13
ATOM     13  C   UNL     1       3.327   2.663  18.465  0.00  0.00    +0.000 C 
ATOM     14  C   UNL     1       4.478   3.145  19.371  0.00  0.00    +0.000 C 
ATOM     15  C   UNL     1       3.789   1.304  17.892  0.00  0.00    +0.000 C 
BRANCH  13  16
ATOM     16  C   UNL     1       2.045   2.334  19.281  0.00  0.00    +0.000 C 
ATOM     17  O   UNL     1       0.921   2.216  18.811  0.00  0.00    +0.000 OA
BRANCH  16  18
ATOM     18  O   UNL     1       2.365   2.218  20.603  0.00  0.00    +0.000 OA
BRANCH  18  20
ATOM     19  C   UNL     1       2.068   4.408  21.554  0.00  0.00    +0.000 C 
ATOM     20  C   UNL     1       1.598   2.967  21.551  0.00  0.00    +0.000 C 
ENDBRANCH  18  20
ENDBRANCH  16  18
ENDBRANCH  13  16
ENDBRANCH  12  13
ENDBRANCH   1  12
TORSDOF 7
ENDMDL
MODEL 6
REMARK VINA RESULT:      -6.4      0.841      1.275
REMARK  Name = 
REMARK  10 active torsions:
REMARK  status: ('A' for Active; 'I' for Inactive)
REMARK    1  A    between atoms: C_1  and  C_2
REMARK    2  A    between atoms: C_2  and  O_3
REMARK    3  A    between atoms: O_3  and  C_4
REMARK    4  A    between atoms: C_4  and  C_6
REMARK    5  A    between atoms: C_6  and  C_7
REMARK    6  A    between atoms: C_6  and  C_8
REMARK    7  A    between atoms: C_6  and  O_9
REMARK    8  A    between atoms: O_9  and  C_10
REMARK    9  A    between atoms: C_15  and  C_16
REMARK   10  A    between atoms: C_17  and  N_18
REMARK                            x       y       z     vdW  Elec       q    Type
REMARK                         _______ _______ _______ _____ _____    ______ ____
ROOT
ATOM      1  C   UNL     1       4.279   4.826  18.183  0.00  0.00    +0.000 A 
ATOM      2  C   UNL     1       4.417   3.447  17.960  0.00  0.00    +0.000 A 
ATOM      3  C   UNL     1       3.308   2.638  17.716  0.00  0.00    +0.000 A 
ATOM      4  C   UNL     1       2.036   3.186  17.724  0.00  0.00    +0.000 A 
ATOM      5  C   UNL     1       1.879   4.537  18.016  0.00  0.00    +0.000 A 
ATOM      6  C   UNL     1       2.983   5.377  18.268  0.00  0.00    +0.000 A 
ENDROOT
BRANCH   6   7
ATOM      7  C   UNL     1       2.628   6.775  18.571  0.00  0.00    +0.000 C 
ATOM      8  C   UNL     1       2.112   7.211  19.723  0.00  0.00    +0.000 C 
BRANCH   8   9
ATOM      9  N   UNL     1       1.636   8.575  19.807  0.00  0.00    +0.000 N 
ATOM     10  O   UNL     1       1.650   9.283  18.790  0.00  0.00    +0.000 OA
ATOM     11  O   UNL     1       1.210   8.930  20.911  0.00  0.00    +0.000 OA
ENDBRANCH   8   9
ENDBRANCH   6   7
BRANCH   1  12
ATOM     12  O   UNL     1       5.369   5.654  18.321  0.00  0.00    +0.000 OA
BRANCH  12  13
ATOM     13  C   UNL     1       6.120   5.981  17.128  0.00  0.00    +0.000 C 
ATOM     14  C   UNL     1       7.005   7.218  17.384  0.00  0.00    +0.000 C 
ATOM     15  C   UNL     1       5.087   6.421  16.066  0.00  0.00    +0.000 C 
BRANCH  13  16
ATOM     16  C   UNL     1       6.915   4.827  16.454  0.00  0.00    +0.000 C 
ATOM     17  O   UNL     1       7.973   4.367  16.864  0.00  0.00    +0.000 OA
BRANCH  16  18
ATOM     18  O   UNL     1       6.261   4.424  15.327  0.00  0.00    +0.000 OA
BRANCH  18  20
ATOM     19  C   UNL     1       6.170   3.765  13.014  0.00  0.00    +0.000 C 
ATOM     20  C   UNL     1       6.958   4.504  14.078  0.00  0.00    +0.000 C 
ENDBRANCH  18  20
ENDBRANCH  16  18
ENDBRANCH  13  16
ENDBRANCH  12  13
ENDBRANCH   1  12
TORSDOF 7
ENDMDL
MODEL 7
REMARK VINA RESULT:      -6.4      2.803      4.194
REMARK  Name = 
REMARK  10 active torsions:
REMARK  status: ('A' for Active; 'I' for Inactive)
REMARK    1  A    between atoms: C_1  and  C_2
REMARK    2  A    between atoms: C_2  and  O_3
REMARK    3  A    between atoms: O_3  and  C_4
REMARK    4  A    between atoms: C_4  and  C_6
REMARK    5  A    between atoms: C_6  and  C_7
REMARK    6  A    between atoms: C_6  and  C_8
REMARK    7  A    between atoms: C_6  and  O_9
REMARK    8  A    between atoms: O_9  and  C_10
REMARK    9  A    between atoms: C_15  and  C_16
REMARK   10  A    between atoms: C_17  and  N_18
REMARK                            x       y       z     vdW  Elec       q    Type
REMARK                         _______ _______ _______ _____ _____    ______ ____
ROOT
ATOM      1  C   UNL     1       3.207   5.895  17.982  0.00  0.00    +0.000 A 
ATOM      2  C   UNL     1       2.974   7.131  17.360  0.00  0.00    +0.000 A 
ATOM      3  C   UNL     1       2.441   8.209  18.067  0.00  0.00    +0.000 A 
ATOM      4  C   UNL     1       2.099   8.060  19.401  0.00  0.00    +0.000 A 
ATOM      5  C   UNL     1       2.257   6.819  20.009  0.00  0.00    +0.000 A 
ATOM      6  C   UNL     1       2.791   5.713  19.317  0.00  0.00    +0.000 A 
ENDROOT
BRANCH   6   7
ATOM      7  C   UNL     1       2.875   4.477  20.116  0.00  0.00    +0.000 C 
ATOM      8  C   UNL     1       1.869   3.933  20.807  0.00  0.00    +0.000 C 
BRANCH   8   9
ATOM      9  N   UNL     1       2.149   2.826  21.697  0.00  0.00    +0.000 N 
ATOM     10  O   UNL     1       1.255   2.415  22.448  0.00  0.00    +0.000 OA
ATOM     11  O   UNL     1       3.283   2.341  21.612  0.00  0.00    +0.000 OA
ENDBRANCH   8   9
ENDBRANCH   6   7
BRANCH   1  12
ATOM     12  O   UNL     1       3.828   4.856  17.326  0.00  0.00    +0.000 OA
BRANCH  12  13
ATOM     13  C   UNL     1       5.188   5.060  16.880  0.00  0.00    +0.000 C 
ATOM     14  C   UNL     1       5.250   6.252  15.903  0.00  0.00    +0.000 C 
ATOM     15  C   UNL     1       5.567   3.817  16.044  0.00  0.00    +0.000 C 
BRANCH  13  16
ATOM     16  C   UNL     1       6.287   5.151  17.976  0.00  0.00    +0.000 C 
ATOM     17  O   UNL     1       6.228   4.623  19.079  0.00  0.00    +0.000 OA
BRANCH  16  18
ATOM     18  O   UNL     1       7.316   5.925  17.524  0.00  0.00    +0.000 OA
BRANCH  18  20
ATOM     19  C   UNL     1       7.972   8.233  17.710  0.00  0.00    +0.000 C 
ATOM     20  C   UNL     1       7.872   6.896  18.418  0.00  0.00    +0.000 C 
ENDBRANCH  18  20
ENDBRANCH  16  18
ENDBRANCH  13  16
ENDBRANCH  12  13
ENDBRANCH   1  12
TORSDOF 7
ENDMDL
MODEL 8
REMARK VINA RESULT:      -6.4      1.831      2.752
REMARK  Name = 
REMARK  10 active torsions:
REMARK  status: ('A' for Active; 'I' for Inactive)
REMARK    1  A    between atoms: C_1  and  C_2
REMARK    2  A    between atoms: C_2  and  O_3
REMARK    3  A    between atoms: O_3  and  C_4
REMARK    4  A    between atoms: C_4  and  C_6
REMARK    5  A    between atoms: C_6  and  C_7
REMARK    6  A    between atoms: C_6  and  C_8
REMARK    7  A    between atoms: C_6  and  O_9
REMARK    8  A    between atoms: O_9  and  C_10
REMARK    9  A    between atoms: C_15  and  C_16
REMARK   10  A    between atoms: C_17  and  N_18
REMARK                            x       y       z     vdW  Elec       q    Type
REMARK                         _______ _______ _______ _____ _____    ______ ____
ROOT
ATOM      1  C   UNL     1       4.203   4.530  18.920  0.00  0.00    +0.000 A 
ATOM      2  C   UNL     1       4.270   3.222  19.423  0.00  0.00    +0.000 A 
ATOM      3  C   UNL     1       3.120   2.455  19.605  0.00  0.00    +0.000 A 
ATOM      4  C   UNL     1       1.876   2.994  19.319  0.00  0.00    +0.000 A 
ATOM      5  C   UNL     1       1.790   4.315  18.889  0.00  0.00    +0.000 A 
ATOM      6  C   UNL     1       2.937   5.112  18.699  0.00  0.00    +0.000 A 
ENDROOT
BRANCH   6   7
ATOM      7  C   UNL     1       2.655   6.488  18.252  0.00  0.00    +0.000 C 
ATOM      8  C   UNL     1       2.333   7.511  19.049  0.00  0.00    +0.000 C 
BRANCH   8   9
ATOM      9  N   UNL     1       1.897   8.754  18.452  0.00  0.00    +0.000 N 
ATOM     10  O   UNL     1       1.214   9.540  19.123  0.00  0.00    +0.000 OA
ATOM     11  O   UNL     1       2.280   8.959  17.294  0.00  0.00    +0.000 OA
ENDBRANCH   8   9
ENDBRANCH   6   7
BRANCH   1  12
ATOM     12  O   UNL     1       5.335   5.261  18.637  0.00  0.00    +0.000 OA
BRANCH  12  13
ATOM     13  C   UNL     1       5.937   5.088  17.333  0.00  0.00    +0.000 C 
ATOM     14  C   UNL     1       5.206   3.974  16.558  0.00  0.00    +0.000 C 
ATOM     15  C   UNL     1       7.367   4.554  17.578  0.00  0.00    +0.000 C 
BRANCH  13  16
ATOM     16  C   UNL     1       6.133   6.366  16.469  0.00  0.00    +0.000 C 
ATOM     17  O   UNL     1       5.373   6.743  15.586  0.00  0.00    +0.000 OA
BRANCH  16  18
ATOM     18  O   UNL     1       7.292   6.987  16.834  0.00  0.00    +0.000 OA
BRANCH  18  20
ATOM     19  C   UNL     1       8.431   8.510  18.309  0.00  0.00    +0.000 C 
ATOM     20  C   UNL     1       7.199   8.273  17.456  0.00  0.00    +0.000 C 
ENDBRANCH  18  20
ENDBRANCH  16  18
ENDBRANCH  13  16
ENDBRANCH  12  13
ENDBRANCH   1  12
TORSDOF 7
ENDMDL
MODEL 9
REMARK VINA RESULT:      -6.4      1.498      1.893
REMARK  Name = 
REMARK  10 active torsions:
REMARK  status: ('A' for Active; 'I' for Inactive)
REMARK    1  A    between atoms: C_1  and  C_2
REMARK    2  A    between atoms: C_2  and  O_3
REMARK    3  A    between atoms: O_3  and  C_4
REMARK    4  A    between atoms: C_4  and  C_6
REMARK    5  A    between atoms: C_6  and  C_7
REMARK    6  A    between atoms: C_6  and  C_8
REMARK    7  A    between atoms: C_6  and  O_9
REMARK    8  A    between atoms: O_9  and  C_10
REMARK    9  A    between atoms: C_15  and  C_16
REMARK   10  A    between atoms: C_17  and  N_18
REMARK                            x       y       z     vdW  Elec       q    Type
REMARK                         _______ _______ _______ _____ _____    ______ ____
ROOT
ATOM      1  C   UNL     1       3.523   4.638  19.821  0.00  0.00    +0.000 A 
ATOM      2  C   UNL     1       3.513   3.246  20.002  0.00  0.00    +0.000 A 
ATOM      3  C   UNL     1       2.345   2.569  20.352  0.00  0.00    +0.000 A 
ATOM      4  C   UNL     1       1.172   3.275  20.561  0.00  0.00    +0.000 A 
ATOM      5  C   UNL     1       1.186   4.663  20.457  0.00  0.00    +0.000 A 
ATOM      6  C   UNL     1       2.353   5.372  20.107  0.00  0.00    +0.000 A 
ENDROOT
BRANCH   6   7
ATOM      7  C   UNL     1       2.185   6.835  20.055  0.00  0.00    +0.000 C 
ATOM      8  C   UNL     1       1.387   7.551  20.852  0.00  0.00    +0.000 C 
BRANCH   8   9
ATOM      9  N   UNL     1       1.179   8.953  20.559  0.00  0.00    +0.000 N 
ATOM     10  O   UNL     1       0.938   9.735  21.489  0.00  0.00    +0.000 OA
ATOM     11  O   UNL     1       1.293   9.277  19.371  0.00  0.00    +0.000 OA
ENDBRANCH   8   9
ENDBRANCH   6   7
BRANCH   1  12
ATOM     12  O   UNL     1       4.641   5.306  19.375  0.00  0.00    +0.000 OA
BRANCH  12  13
ATOM     13  C   UNL     1       4.934   5.254  17.959  0.00  0.00    +0.000 C 
ATOM     14  C   UNL     1       4.844   6.668  17.350  0.00  0.00    +0.000 C 
ATOM     15  C   UNL     1       3.791   4.446  17.304  0.00  0.00    +0.000 C 
BRANCH  13  16
ATOM     16  C   UNL     1       6.236   4.519  17.532  0.00  0.00    +0.000 C 
ATOM     17  O   UNL     1       7.279   4.503  18.173  0.00  0.00    +0.000 OA
BRANCH  16  18
ATOM     18  O   UNL     1       6.040   3.915  16.325  0.00  0.00    +0.000 OA
BRANCH  18  20
ATOM     19  C   UNL     1       6.074   4.060  13.923  0.00  0.00    +0.000 C 
ATOM     20  C   UNL     1       6.814   4.370  15.209  0.00  0.00    +0.000 C 
ENDBRANCH  18  20
ENDBRANCH  16  18
ENDBRANCH  13  16
ENDBRANCH  12  13
ENDBRANCH   1  12
TORSDOF 7
ENDMDL
