MODEL 1
REMARK VINA RESULT:      -7.2      0.000      0.000
REMARK  Name = 
REMARK  4 active torsions:
REMARK  status: ('A' for Active; 'I' for Inactive)
REMARK    1  A    between atoms: C_2  and  C_3
REMARK    2  A    between atoms: C_2  and  C_12
REMARK    3  A    between atoms: C_4  and  C_5
REMARK    4  A    between atoms: C_8  and  O_9
REMARK                            x       y       z     vdW  Elec       q    Type
REMARK                         _______ _______ _______ _____ _____    ______ ____
ROOT
ATOM      1  C   UNL     1       5.247   5.031  16.342  0.00  0.00    +0.000 C 
ATOM      2  C   UNL     1       5.014   3.850  16.938  0.00  0.00    +0.000 C 
ENDROOT
BRANCH   2   3
ATOM      3  C   UNL     1       3.726   3.527  17.568  0.00  0.00    +0.000 A 
ATOM      4  C   UNL     1       3.572   2.288  18.207  0.00  0.00    +0.000 A 
ATOM      5  C   UNL     1       2.345   1.925  18.771  0.00  0.00    +0.000 A 
ATOM      6  C   UNL     1       1.274   2.809  18.707  0.00  0.00    +0.000 A 
ATOM      7  C   UNL     1       1.416   4.055  18.115  0.00  0.00    +0.000 A 
ATOM      8  C   UNL     1       2.643   4.418  17.555  0.00  0.00    +0.000 A 
BRANCH   6   9
ATOM      9  O   UNL     1       0.052   2.489  19.218  0.00  0.00    +0.000 OA
ATOM     10  H   UNL     1      -0.588   3.164  18.938  0.00  0.00    +0.000 HD
ENDBRANCH   6   9
ENDBRANCH   2   3
BRANCH   1  12
ATOM     11  O   UNL     1       7.420   5.954  16.203  0.00  0.00    +0.000 OA
ATOM     12  C   UNL     1       6.529   5.322  15.635  0.00  0.00    +0.000 C 
BRANCH  12  13
ATOM     13  C   UNL     1       6.665   4.803  14.287  0.00  0.00    +0.000 A 
ATOM     14  C   UNL     1       5.994   3.780  13.642  0.00  0.00    +0.000 A 
ATOM     15  C   UNL     1       6.519   3.708  12.329  0.00  0.00    +0.000 A 
ATOM     16  C   UNL     1       7.486   4.682  12.250  0.00  0.00    +0.000 A 
ATOM     17  O   UNL     1       7.580   5.352  13.427  0.00  0.00    +0.000 OA
ENDBRANCH  12  13
ENDBRANCH   1  12
TORSDOF 4
ENDMDL
MODEL 2
REMARK VINA RESULT:      -7.1      1.106      1.370
REMARK  Name = 
REMARK  4 active torsions:
REMARK  status: ('A' for Active; 'I' for Inactive)
REMARK    1  A    between atoms: C_2  and  C_3
REMARK    2  A    between atoms: C_2  and  C_12
REMARK    3  A    between atoms: C_4  and  C_5
REMARK    4  A    between atoms: C_8  and  O_9
REMARK                            x       y       z     vdW  Elec       q    Type
REMARK                         _______ _______ _______ _____ _____    ______ ____
ROOT
ATOM      1  C   UNL     1       5.588   4.766  16.804  0.00  0.00    +0.000 C 
ATOM      2  C   UNL     1       4.519   5.472  17.207  0.00  0.00    +0.000 C 
ENDROOT
BRANCH   2   3
ATOM      3  C   UNL     1       3.479   4.899  18.073  0.00  0.00    +0.000 A 
ATOM      4  C   UNL     1       2.503   4.067  17.506  0.00  0.00    +0.000 A 
ATOM      5  C   UNL     1       1.467   3.547  18.290  0.00  0.00    +0.000 A 
ATOM      6  C   UNL     1       1.416   3.850  19.645  0.00  0.00    +0.000 A 
ATOM      7  C   UNL     1       2.394   4.637  20.234  0.00  0.00    +0.000 A 
ATOM      8  C   UNL     1       3.430   5.153  19.451  0.00  0.00    +0.000 A 
BRANCH   6   9
ATOM      9  O   UNL     1       0.413   3.389  20.443  0.00  0.00    +0.000 OA
ATOM     10  H   UNL     1       0.763   2.675  21.001  0.00  0.00    +0.000 HD
ENDBRANCH   6   9
ENDBRANCH   2   3
BRANCH   1  12
ATOM     11  O   UNL     1       7.432   6.214  16.492  0.00  0.00    +0.000 OA
ATOM     12  C   UNL     1       6.680   5.379  15.990  0.00  0.00    +0.000 C 
BRANCH  12  13
ATOM     13  C   UNL     1       6.812   4.919  14.622  0.00  0.00    +0.000 A 
ATOM     14  C   UNL     1       6.102   3.964  13.917  0.00  0.00    +0.000 A 
ATOM     15  C   UNL     1       6.645   3.928  12.611  0.00  0.00    +0.000 A 
ATOM     16  C   UNL     1       7.660   4.854  12.593  0.00  0.00    +0.000 A 
ATOM     17  O   UNL     1       7.769   5.461  13.802  0.00  0.00    +0.000 OA
ENDBRANCH  12  13
ENDBRANCH   1  12
TORSDOF 4
ENDMDL
MODEL 3
REMARK VINA RESULT:      -7.1      1.059      1.407
REMARK  Name = 
REMARK  4 active torsions:
REMARK  status: ('A' for Active; 'I' for Inactive)
REMARK    1  A    between atoms: C_2  and  C_3
REMARK    2  A    between atoms: C_2  and  C_12
REMARK    3  A    between atoms: C_4  and  C_5
REMARK    4  A    between atoms: C_8  and  O_9
REMARK                            x       y       z     vdW  Elec       q    Type
REMARK                         _______ _______ _______ _____ _____    ______ ____
ROOT
ATOM      1  C   UNL     1       5.394   4.576  16.647  0.00  0.00    +0.000 C 
ATOM      2  C   UNL     1       4.584   5.365  17.370  0.00  0.00    +0.000 C 
ENDROOT
BRANCH   2   3
ATOM      3  C   UNL     1       3.423   4.839  18.104  0.00  0.00    +0.000 A 
ATOM      4  C   UNL     1       3.148   5.334  19.387  0.00  0.00    +0.000 A 
ATOM      5  C   UNL     1       2.084   4.819  20.136  0.00  0.00    +0.000 A 
ATOM      6  C   UNL     1       1.287   3.818  19.594  0.00  0.00    +0.000 A 
ATOM      7  C   UNL     1       1.518   3.342  18.312  0.00  0.00    +0.000 A 
ATOM      8  C   UNL     1       2.578   3.859  17.564  0.00  0.00    +0.000 A 
BRANCH   6   9
ATOM      9  O   UNL     1       0.257   3.266  20.295  0.00  0.00    +0.000 OA
ATOM     10  H   UNL     1       0.599   2.942  21.145  0.00  0.00    +0.000 HD
ENDBRANCH   6   9
ENDBRANCH   2   3
BRANCH   1  12
ATOM     11  O   UNL     1       7.438   5.764  16.604  0.00  0.00    +0.000 OA
ATOM     12  C   UNL     1       6.616   5.104  15.969  0.00  0.00    +0.000 C 
BRANCH  12  13
ATOM     13  C   UNL     1       6.780   4.774  14.567  0.00  0.00    +0.000 A 
ATOM     14  C   UNL     1       6.132   3.843  13.777  0.00  0.00    +0.000 A 
ATOM     15  C   UNL     1       6.680   3.954  12.476  0.00  0.00    +0.000 A 
ATOM     16  C   UNL     1       7.637   4.938  12.547  0.00  0.00    +0.000 A 
ATOM     17  O   UNL     1       7.704   5.442  13.806  0.00  0.00    +0.000 OA
ENDBRANCH  12  13
ENDBRANCH   1  12
TORSDOF 4
ENDMDL
MODEL 4
REMARK VINA RESULT:      -6.8      2.140      3.454
REMARK  Name = 
REMARK  4 active torsions:
REMARK  status: ('A' for Active; 'I' for Inactive)
REMARK    1  A    between atoms: C_2  and  C_3
REMARK    2  A    between atoms: C_2  and  C_12
REMARK    3  A    between atoms: C_4  and  C_5
REMARK    4  A    between atoms: C_8  and  O_9
REMARK                            x       y       z     vdW  Elec       q    Type
REMARK                         _______ _______ _______ _____ _____    ______ ____
ROOT
ATOM      1  C   UNL     1       5.567   4.425  17.092  0.00  0.00    +0.000 C 
ATOM      2  C   UNL     1       4.487   5.145  17.436  0.00  0.00    +0.000 C 
ENDROOT
BRANCH   2   3
ATOM      3  C   UNL     1       3.298   4.536  18.051  0.00  0.00    +0.000 A 
ATOM      4  C   UNL     1       2.799   5.072  19.246  0.00  0.00    +0.000 A 
ATOM      5  C   UNL     1       1.702   4.485  19.888  0.00  0.00    +0.000 A 
ATOM      6  C   UNL     1       1.098   3.368  19.324  0.00  0.00    +0.000 A 
ATOM      7  C   UNL     1       1.550   2.846  18.122  0.00  0.00    +0.000 A 
ATOM      8  C   UNL     1       2.643   3.434  17.481  0.00  0.00    +0.000 A 
BRANCH   6   9
ATOM      9  O   UNL     1       0.045   2.746  19.925  0.00  0.00    +0.000 OA
ATOM     10  H   UNL     1       0.143   2.831  20.888  0.00  0.00    +0.000 HD
ENDBRANCH   6   9
ENDBRANCH   2   3
BRANCH   1  12
ATOM     11  O   UNL     1       7.297   4.646  15.496  0.00  0.00    +0.000 OA
ATOM     12  C   UNL     1       6.800   5.063  16.542  0.00  0.00    +0.000 C 
BRANCH  12  13
ATOM     13  C   UNL     1       7.340   6.187  17.281  0.00  0.00    +0.000 A 
ATOM     14  C   UNL     1       7.852   6.263  18.563  0.00  0.00    +0.000 A 
ATOM     15  C   UNL     1       8.250   7.605  18.769  0.00  0.00    +0.000 A 
ATOM     16  C   UNL     1       7.951   8.275  17.607  0.00  0.00    +0.000 A 
ATOM     17  O   UNL     1       7.403   7.427  16.700  0.00  0.00    +0.000 OA
ENDBRANCH  12  13
ENDBRANCH   1  12
TORSDOF 4
ENDMDL
MODEL 5
REMARK VINA RESULT:      -6.8      1.851      3.209
REMARK  Name = 
REMARK  4 active torsions:
REMARK  status: ('A' for Active; 'I' for Inactive)
REMARK    1  A    between atoms: C_2  and  C_3
REMARK    2  A    between atoms: C_2  and  C_12
REMARK    3  A    between atoms: C_4  and  C_5
REMARK    4  A    between atoms: C_8  and  O_9
REMARK                            x       y       z     vdW  Elec       q    Type
REMARK                         _______ _______ _______ _____ _____    ______ ____
ROOT
ATOM      1  C   UNL     1       5.288   4.692  16.443  0.00  0.00    +0.000 C 
ATOM      2  C   UNL     1       4.482   5.150  17.414  0.00  0.00    +0.000 C 
ENDROOT
BRANCH   2   3
ATOM      3  C   UNL     1       3.342   4.372  17.922  0.00  0.00    +0.000 A 
ATOM      4  C   UNL     1       3.227   3.021  17.566  0.00  0.00    +0.000 A 
ATOM      5  C   UNL     1       2.128   2.264  17.988  0.00  0.00    +0.000 A 
ATOM      6  C   UNL     1       1.151   2.858  18.777  0.00  0.00    +0.000 A 
ATOM      7  C   UNL     1       1.266   4.181  19.174  0.00  0.00    +0.000 A 
ATOM      8  C   UNL     1       2.365   4.935  18.755  0.00  0.00    +0.000 A 
BRANCH   6   9
ATOM      9  O   UNL     1       0.050   2.169  19.189  0.00  0.00    +0.000 OA
ATOM     10  H   UNL     1       0.298   1.609  19.943  0.00  0.00    +0.000 HD
ENDBRANCH   6   9
ENDBRANCH   2   3
BRANCH   1  12
ATOM     11  O   UNL     1       6.868   5.370  14.819  0.00  0.00    +0.000 OA
ATOM     12  C   UNL     1       6.490   5.453  15.987  0.00  0.00    +0.000 C 
BRANCH  12  13
ATOM     13  C   UNL     1       7.144   6.293  16.972  0.00  0.00    +0.000 A 
ATOM     14  C   UNL     1       7.717   5.977  18.190  0.00  0.00    +0.000 A 
ATOM     15  C   UNL     1       8.221   7.183  18.733  0.00  0.00    +0.000 A 
ATOM     16  C   UNL     1       7.920   8.167  17.822  0.00  0.00    +0.000 A 
ATOM     17  O   UNL     1       7.271   7.640  16.753  0.00  0.00    +0.000 OA
ENDBRANCH  12  13
ENDBRANCH   1  12
TORSDOF 4
ENDMDL
MODEL 6
REMARK VINA RESULT:      -6.8      1.785      3.386
REMARK  Name = 
REMARK  4 active torsions:
REMARK  status: ('A' for Active; 'I' for Inactive)
REMARK    1  A    between atoms: C_2  and  C_3
REMARK    2  A    between atoms: C_2  and  C_12
REMARK    3  A    between atoms: C_4  and  C_5
REMARK    4  A    between atoms: C_8  and  O_9
REMARK                            x       y       z     vdW  Elec       q    Type
REMARK                         _______ _______ _______ _____ _____    ______ ____
ROOT
ATOM      1  C   UNL     1       5.484   4.699  16.245  0.00  0.00    +0.000 C 
ATOM      2  C   UNL     1       4.997   4.591  17.492  0.00  0.00    +0.000 C 
ENDROOT
BRANCH   2   3
ATOM      3  C   UNL     1       3.737   3.893  17.786  0.00  0.00    +0.000 A 
ATOM      4  C   UNL     1       2.532   4.606  17.721  0.00  0.00    +0.000 A 
ATOM      5  C   UNL     1       1.319   3.987  18.047  0.00  0.00    +0.000 A 
ATOM      6  C   UNL     1       1.313   2.650  18.425  0.00  0.00    +0.000 A 
ATOM      7  C   UNL     1       2.489   1.916  18.458  0.00  0.00    +0.000 A 
ATOM      8  C   UNL     1       3.698   2.533  18.129  0.00  0.00    +0.000 A 
BRANCH   6   9
ATOM      9  O   UNL     1       0.162   2.013  18.778  0.00  0.00    +0.000 OA
ATOM     10  H   UNL     1       0.047   2.089  19.739  0.00  0.00    +0.000 HD
ENDBRANCH   6   9
ENDBRANCH   2   3
BRANCH   1  12
ATOM     11  O   UNL     1       7.393   5.105  14.909  0.00  0.00    +0.000 OA
ATOM     12  C   UNL     1       6.803   5.340  15.964  0.00  0.00    +0.000 C 
BRANCH  12  13
ATOM     13  C   UNL     1       7.315   6.251  16.969  0.00  0.00    +0.000 A 
ATOM     14  C   UNL     1       7.843   6.007  18.223  0.00  0.00    +0.000 A 
ATOM     15  C   UNL     1       8.197   7.263  18.772  0.00  0.00    +0.000 A 
ATOM     16  C   UNL     1       7.857   8.203  17.828  0.00  0.00    +0.000 A 
ATOM     17  O   UNL     1       7.325   7.602  16.733  0.00  0.00    +0.000 OA
ENDBRANCH  12  13
ENDBRANCH   1  12
TORSDOF 4
ENDMDL
MODEL 7
REMARK VINA RESULT:      -6.7      1.174      1.360
REMARK  Name = 
REMARK  4 active torsions:
REMARK  status: ('A' for Active; 'I' for Inactive)
REMARK    1  A    between atoms: C_2  and  C_3
REMARK    2  A    between atoms: C_2  and  C_12
REMARK    3  A    between atoms: C_4  and  C_5
REMARK    4  A    between atoms: C_8  and  O_9
REMARK                            x       y       z     vdW  Elec       q    Type
REMARK                         _______ _______ _______ _____ _____    ______ ____
ROOT
ATOM      1  C   UNL     1       5.190   4.952  16.161  0.00  0.00    +0.000 C 
ATOM      2  C   UNL     1       5.163   4.501  17.425  0.00  0.00    +0.000 C 
ENDROOT
BRANCH   2   3
ATOM      3  C   UNL     1       3.907   4.188  18.122  0.00  0.00    +0.000 A 
ATOM      4  C   UNL     1       3.920   4.045  19.517  0.00  0.00    +0.000 A 
ATOM      5  C   UNL     1       2.755   3.694  20.207  0.00  0.00    +0.000 A 
ATOM      6  C   UNL     1       1.573   3.500  19.502  0.00  0.00    +0.000 A 
ATOM      7  C   UNL     1       1.530   3.675  18.127  0.00  0.00    +0.000 A 
ATOM      8  C   UNL     1       2.693   4.028  17.439  0.00  0.00    +0.000 A 
BRANCH   6   9
ATOM      9  O   UNL     1       0.420   3.131  20.127  0.00  0.00    +0.000 OA
ATOM     10  H   UNL     1      -0.268   3.784  19.919  0.00  0.00    +0.000 HD
ENDBRANCH   6   9
ENDBRANCH   2   3
BRANCH   1  12
ATOM     11  O   UNL     1       7.385   5.814  15.976  0.00  0.00    +0.000 OA
ATOM     12  C   UNL     1       6.472   5.193  15.433  0.00  0.00    +0.000 C 
BRANCH  12  13
ATOM     13  C   UNL     1       6.579   4.638  14.098  0.00  0.00    +0.000 A 
ATOM     14  C   UNL     1       7.485   4.893  13.084  0.00  0.00    +0.000 A 
ATOM     15  C   UNL     1       7.130   4.061  11.995  0.00  0.00    +0.000 A 
ATOM     16  C   UNL     1       6.023   3.353  12.401  0.00  0.00    +0.000 A 
ATOM     17  O   UNL     1       5.684   3.692  13.670  0.00  0.00    +0.000 OA
ENDBRANCH  12  13
ENDBRANCH   1  12
TORSDOF 4
ENDMDL
MODEL 8
REMARK VINA RESULT:      -6.7      1.135      1.695
REMARK  Name = 
REMARK  4 active torsions:
REMARK  status: ('A' for Active; 'I' for Inactive)
REMARK    1  A    between atoms: C_2  and  C_3
REMARK    2  A    between atoms: C_2  and  C_12
REMARK    3  A    between atoms: C_4  and  C_5
REMARK    4  A    between atoms: C_8  and  O_9
REMARK                            x       y       z     vdW  Elec       q    Type
REMARK                         _______ _______ _______ _____ _____    ______ ____
ROOT
ATOM      1  C   UNL     1       5.571   4.319  16.359  0.00  0.00    +0.000 C 
ATOM      2  C   UNL     1       4.714   5.031  17.110  0.00  0.00    +0.000 C 
ENDROOT
BRANCH   2   3
ATOM      3  C   UNL     1       3.719   4.395  17.985  0.00  0.00    +0.000 A 
ATOM      4  C   UNL     1       2.357   4.552  17.693  0.00  0.00    +0.000 A 
ATOM      5  C   UNL     1       1.380   4.006  18.534  0.00  0.00    +0.000 A 
ATOM      6  C   UNL     1       1.769   3.291  19.660  0.00  0.00    +0.000 A 
ATOM      7  C   UNL     1       3.112   3.089  19.945  0.00  0.00    +0.000 A 
ATOM      8  C   UNL     1       4.085   3.632  19.103  0.00  0.00    +0.000 A 
BRANCH   6   9
ATOM      9  O   UNL     1       0.856   2.764  20.523  0.00  0.00    +0.000 OA
ATOM     10  H   UNL     1       0.982   3.172  21.395  0.00  0.00    +0.000 HD
ENDBRANCH   6   9
ENDBRANCH   2   3
BRANCH   1  12
ATOM     11  O   UNL     1       7.394   5.792  16.043  0.00  0.00    +0.000 OA
ATOM     12  C   UNL     1       6.631   4.971  15.534  0.00  0.00    +0.000 C 
BRANCH  12  13
ATOM     13  C   UNL     1       6.721   4.565  14.145  0.00  0.00    +0.000 A 
ATOM     14  C   UNL     1       7.538   5.014  13.124  0.00  0.00    +0.000 A 
ATOM     15  C   UNL     1       7.210   4.259  11.972  0.00  0.00    +0.000 A 
ATOM     16  C   UNL     1       6.206   3.399  12.352  0.00  0.00    +0.000 A 
ATOM     17  O   UNL     1       5.904   3.574  13.663  0.00  0.00    +0.000 OA
ENDBRANCH  12  13
ENDBRANCH   1  12
TORSDOF 4
ENDMDL
MODEL 9
REMARK VINA RESULT:      -6.6      1.831      2.213
REMARK  Name = 
REMARK  4 active torsions:
REMARK  status: ('A' for Active; 'I' for Inactive)
REMARK    1  A    between atoms: C_2  and  C_3
REMARK    2  A    between atoms: C_2  and  C_12
REMARK    3  A    between atoms: C_4  and  C_5
REMARK    4  A    between atoms: C_8  and  O_9
REMARK                            x       y       z     vdW  Elec       q    Type
REMARK                         _______ _______ _______ _____ _____    ______ ____
ROOT
ATOM      1  C   UNL     1       4.745   4.975  17.087  0.00  0.00    +0.000 C 
ATOM      2  C   UNL     1       4.085   5.529  18.116  0.00  0.00    +0.000 C 
ENDROOT
BRANCH   2   3
ATOM      3  C   UNL     1       3.398   4.724  19.136  0.00  0.00    +0.000 A 
ATOM      4  C   UNL     1       2.287   5.266  19.797  0.00  0.00    +0.000 A 
ATOM      5  C   UNL     1       1.641   4.550  20.811  0.00  0.00    +0.000 A 
ATOM      6  C   UNL     1       2.100   3.284  21.153  0.00  0.00    +0.000 A 
ATOM      7  C   UNL     1       3.173   2.712  20.484  0.00  0.00    +0.000 A 
ATOM      8  C   UNL     1       3.815   3.427  19.471  0.00  0.00    +0.000 A 
BRANCH   6   9
ATOM      9  O   UNL     1       1.522   2.559  22.151  0.00  0.00    +0.000 OA
ATOM     10  H   UNL     1       0.714   3.016  22.438  0.00  0.00    +0.000 HD
ENDBRANCH   6   9
ENDBRANCH   2   3
BRANCH   1  12
ATOM     11  O   UNL     1       5.728   6.986  16.325  0.00  0.00    +0.000 OA
ATOM     12  C   UNL     1       5.508   5.797  16.100  0.00  0.00    +0.000 C 
BRANCH  12  13
ATOM     13  C   UNL     1       5.981   5.116  14.911  0.00  0.00    +0.000 A 
ATOM     14  C   UNL     1       5.449   4.051  14.207  0.00  0.00    +0.000 A 
ATOM     15  C   UNL     1       6.318   3.802  13.117  0.00  0.00    +0.000 A 
ATOM     16  C   UNL     1       7.335   4.722  13.222  0.00  0.00    +0.000 A 
ATOM     17  O   UNL     1       7.140   5.522  14.300  0.00  0.00    +0.000 OA
ENDBRANCH  12  13
ENDBRANCH   1  12
TORSDOF 4
ENDMDL
