MODEL 1
REMARK VINA RESULT:      -7.3      0.000      0.000
REMARK  Name = 
REMARK  3 active torsions:
REMARK  status: ('A' for Active; 'I' for Inactive)
REMARK    1  A    between atoms: C_1  and  N_2
REMARK    2  A    between atoms: N_2  and  C_3
REMARK    3  A    between atoms: C_11  and  O_12
REMARK                            x       y       z     vdW  Elec       q    Type
REMARK                         _______ _______ _______ _____ _____    ______ ____
ROOT
ATOM      1  C   UNL     1       4.003   4.228  18.956  0.00  0.00    +0.000 C 
ATOM      2  C   UNL     1       4.078   2.685  18.892  0.00  0.00    +0.000 C 
ATOM      3  C   UNL     1       2.772   1.888  18.799  0.00  0.00    +0.000 C 
ATOM      4  C   UNL     1       1.475   2.595  19.212  0.00  0.00    +0.000 C 
ATOM      5  C   UNL     1       1.219   2.635  20.720  0.00  0.00    +0.000 C 
ATOM      6  C   UNL     1       2.061   3.643  21.493  0.00  0.00    +0.000 C 
ATOM      7  C   UNL     1       2.354   4.954  20.758  0.00  0.00    +0.000 C 
ATOM      8  C   UNL     1       2.594   4.822  19.235  0.00  0.00    +0.000 C 
ATOM      9  C   UNL     1       1.439   4.006  18.647  0.00  0.00    +0.000 C 
ENDROOT
BRANCH   1  11
ATOM     10  C   UNL     1       4.240   6.326  17.441  0.00  0.00    +0.000 C 
ATOM     11  N   UNL     1       4.756   4.917  17.747  0.00  0.00    +0.000 N 
ATOM     12  C   UNL     1       6.280   5.003  18.004  0.00  0.00    +0.000 C 
ATOM     13  C   UNL     1       6.901   4.987  16.625  0.00  0.00    +0.000 C 
ATOM     14  C   UNL     1       6.080   3.948  15.898  0.00  0.00    +0.000 C 
ATOM     15  C   UNL     1       4.664   4.058  16.452  0.00  0.00    +0.000 C 
ENDBRANCH   1  11
BRANCH   9  16
ATOM     16  O   UNL     1       1.527   3.953  17.233  0.00  0.00    +0.000 OA
ATOM     17  H   UNL     1       1.075   4.746  16.883  0.00  0.00    +0.000 HD
ENDBRANCH   9  16
TORSDOF 2
ENDMDL
MODEL 2
REMARK VINA RESULT:      -7.2      0.555      1.471
REMARK  Name = 
REMARK  3 active torsions:
REMARK  status: ('A' for Active; 'I' for Inactive)
REMARK    1  A    between atoms: C_1  and  N_2
REMARK    2  A    between atoms: N_2  and  C_3
REMARK    3  A    between atoms: C_11  and  O_12
REMARK                            x       y       z     vdW  Elec       q    Type
REMARK                         _______ _______ _______ _____ _____    ______ ____
ROOT
ATOM      1  C   UNL     1       4.039   4.108  18.974  0.00  0.00    +0.000 C 
ATOM      2  C   UNL     1       4.030   2.562  18.972  0.00  0.00    +0.000 C 
ATOM      3  C   UNL     1       2.684   1.834  18.887  0.00  0.00    +0.000 C 
ATOM      4  C   UNL     1       1.421   2.626  19.248  0.00  0.00    +0.000 C 
ATOM      5  C   UNL     1       1.144   2.741  20.748  0.00  0.00    +0.000 C 
ATOM      6  C   UNL     1       2.028   3.732  21.496  0.00  0.00    +0.000 C 
ATOM      7  C   UNL     1       2.404   4.994  20.716  0.00  0.00    +0.000 C 
ATOM      8  C   UNL     1       2.660   4.788  19.204  0.00  0.00    +0.000 C 
ATOM      9  C   UNL     1       1.472   4.013  18.627  0.00  0.00    +0.000 C 
ENDROOT
BRANCH   1  11
ATOM     10  C   UNL     1       4.833   3.798  16.520  0.00  0.00    +0.000 C 
ATOM     11  N   UNL     1       4.849   4.706  17.753  0.00  0.00    +0.000 N 
ATOM     12  C   UNL     1       4.306   6.095  17.340  0.00  0.00    +0.000 C 
ATOM     13  C   UNL     1       5.498   6.806  16.737  0.00  0.00    +0.000 C 
ATOM     14  C   UNL     1       6.624   6.423  17.669  0.00  0.00    +0.000 C 
ATOM     15  C   UNL     1       6.327   5.003  18.138  0.00  0.00    +0.000 C 
ENDBRANCH   1  11
BRANCH   9  16
ATOM     16  O   UNL     1       1.579   3.899  17.219  0.00  0.00    +0.000 OA
ATOM     17  H   UNL     1       2.041   4.697  16.896  0.00  0.00    +0.000 HD
ENDBRANCH   9  16
TORSDOF 2
ENDMDL
MODEL 3
REMARK VINA RESULT:      -7.1      1.565      2.484
REMARK  Name = 
REMARK  3 active torsions:
REMARK  status: ('A' for Active; 'I' for Inactive)
REMARK    1  A    between atoms: C_1  and  N_2
REMARK    2  A    between atoms: N_2  and  C_3
REMARK    3  A    between atoms: C_11  and  O_12
REMARK                            x       y       z     vdW  Elec       q    Type
REMARK                         _______ _______ _______ _____ _____    ______ ____
ROOT
ATOM      1  C   UNL     1       3.732   4.776  18.073  0.00  0.00    +0.000 C 
ATOM      2  C   UNL     1       3.225   5.358  19.413  0.00  0.00    +0.000 C 
ATOM      3  C   UNL     1       3.042   4.412  20.605  0.00  0.00    +0.000 C 
ATOM      4  C   UNL     1       2.940   2.910  20.312  0.00  0.00    +0.000 C 
ATOM      5  C   UNL     1       1.556   2.438  19.860  0.00  0.00    +0.000 C 
ATOM      6  C   UNL     1       1.192   2.784  18.422  0.00  0.00    +0.000 C 
ATOM      7  C   UNL     1       2.351   2.737  17.422  0.00  0.00    +0.000 C 
ATOM      8  C   UNL     1       3.715   3.226  17.965  0.00  0.00    +0.000 C 
ATOM      9  C   UNL     1       3.983   2.498  19.285  0.00  0.00    +0.000 C 
ENDROOT
BRANCH   1  11
ATOM     10  C   UNL     1       4.903   6.724  16.813  0.00  0.00    +0.000 C 
ATOM     11  N   UNL     1       5.097   5.432  17.611  0.00  0.00    +0.000 N 
ATOM     12  C   UNL     1       6.014   5.740  18.819  0.00  0.00    +0.000 C 
ATOM     13  C   UNL     1       7.418   5.666  18.260  0.00  0.00    +0.000 C 
ATOM     14  C   UNL     1       7.355   4.461  17.350  0.00  0.00    +0.000 C 
ATOM     15  C   UNL     1       5.948   4.442  16.764  0.00  0.00    +0.000 C 
ENDBRANCH   1  11
BRANCH   9  16
ATOM     16  O   UNL     1       5.277   2.804  19.776  0.00  0.00    +0.000 OA
ATOM     17  H   UNL     1       5.882   2.827  19.009  0.00  0.00    +0.000 HD
ENDBRANCH   9  16
TORSDOF 2
ENDMDL
MODEL 4
REMARK VINA RESULT:      -7.1      1.666      5.102
REMARK  Name = 
REMARK  3 active torsions:
REMARK  status: ('A' for Active; 'I' for Inactive)
REMARK    1  A    between atoms: C_1  and  N_2
REMARK    2  A    between atoms: N_2  and  C_3
REMARK    3  A    between atoms: C_11  and  O_12
REMARK                            x       y       z     vdW  Elec       q    Type
REMARK                         _______ _______ _______ _____ _____    ______ ____
ROOT
ATOM      1  C   UNL     1       4.806   5.250  18.787  0.00  0.00    +0.000 C 
ATOM      2  C   UNL     1       4.271   6.231  17.718  0.00  0.00    +0.000 C 
ATOM      3  C   UNL     1       5.006   6.330  16.376  0.00  0.00    +0.000 C 
ATOM      4  C   UNL     1       6.448   5.809  16.314  0.00  0.00    +0.000 C 
ATOM      5  C   UNL     1       7.503   6.782  16.844  0.00  0.00    +0.000 C 
ATOM      6  C   UNL     1       7.570   6.901  18.362  0.00  0.00    +0.000 C 
ATOM      7  C   UNL     1       7.305   5.606  19.134  0.00  0.00    +0.000 C 
ATOM      8  C   UNL     1       6.227   4.678  18.523  0.00  0.00    +0.000 C 
ATOM      9  C   UNL     1       6.562   4.480  17.043  0.00  0.00    +0.000 C 
ENDROOT
BRANCH   1  11
ATOM     10  C   UNL     1       4.374   2.842  19.663  0.00  0.00    +0.000 C 
ATOM     11  N   UNL     1       3.739   4.149  19.180  0.00  0.00    +0.000 N 
ATOM     12  C   UNL     1       2.779   4.659  20.281  0.00  0.00    +0.000 C 
ATOM     13  C   UNL     1       1.496   3.891  20.053  0.00  0.00    +0.000 C 
ATOM     14  C   UNL     1       1.363   3.895  18.548  0.00  0.00    +0.000 C 
ATOM     15  C   UNL     1       2.782   3.833  17.994  0.00  0.00    +0.000 C 
ENDBRANCH   1  11
BRANCH   9  16
ATOM     16  O   UNL     1       5.687   3.537  16.449  0.00  0.00    +0.000 OA
ATOM     17  H   UNL     1       5.084   4.030  15.859  0.00  0.00    +0.000 HD
ENDBRANCH   9  16
TORSDOF 2
ENDMDL
MODEL 5
REMARK VINA RESULT:      -7.0      0.849      1.380
REMARK  Name = 
REMARK  3 active torsions:
REMARK  status: ('A' for Active; 'I' for Inactive)
REMARK    1  A    between atoms: C_1  and  N_2
REMARK    2  A    between atoms: N_2  and  C_3
REMARK    3  A    between atoms: C_11  and  O_12
REMARK                            x       y       z     vdW  Elec       q    Type
REMARK                         _______ _______ _______ _____ _____    ______ ____
ROOT
ATOM      1  C   UNL     1       4.036   4.411  19.181  0.00  0.00    +0.000 C 
ATOM      2  C   UNL     1       4.218   2.881  19.306  0.00  0.00    +0.000 C 
ATOM      3  C   UNL     1       3.091   1.962  18.820  0.00  0.00    +0.000 C 
ATOM      4  C   UNL     1       1.696   2.576  18.652  0.00  0.00    +0.000 C 
ATOM      5  C   UNL     1       0.891   2.702  19.947  0.00  0.00    +0.000 C 
ATOM      6  C   UNL     1       1.322   3.836  20.870  0.00  0.00    +0.000 C 
ATOM      7  C   UNL     1       1.793   5.111  20.165  0.00  0.00    +0.000 C 
ATOM      8  C   UNL     1       2.593   4.891  18.860  0.00  0.00    +0.000 C 
ATOM      9  C   UNL     1       1.792   3.933  17.974  0.00  0.00    +0.000 C 
ENDROOT
BRANCH   1  11
ATOM     10  C   UNL     1       6.435   5.398  19.034  0.00  0.00    +0.000 C 
ATOM     11  N   UNL     1       5.147   5.076  18.272  0.00  0.00    +0.000 N 
ATOM     12  C   UNL     1       5.507   4.174  17.068  0.00  0.00    +0.000 C 
ATOM     13  C   UNL     1       5.964   5.136  15.993  0.00  0.00    +0.000 C 
ATOM     14  C   UNL     1       4.974   6.271  16.114  0.00  0.00    +0.000 C 
ATOM     15  C   UNL     1       4.627   6.378  17.595  0.00  0.00    +0.000 C 
ENDBRANCH   1  11
BRANCH   9  16
ATOM     16  O   UNL     1       2.407   3.787  16.705  0.00  0.00    +0.000 OA
ATOM     17  H   UNL     1       1.750   3.379  16.108  0.00  0.00    +0.000 HD
ENDBRANCH   9  16
TORSDOF 2
ENDMDL
MODEL 6
REMARK VINA RESULT:      -7.0      1.452      2.164
REMARK  Name = 
REMARK  3 active torsions:
REMARK  status: ('A' for Active; 'I' for Inactive)
REMARK    1  A    between atoms: C_1  and  N_2
REMARK    2  A    between atoms: N_2  and  C_3
REMARK    3  A    between atoms: C_11  and  O_12
REMARK                            x       y       z     vdW  Elec       q    Type
REMARK                         _______ _______ _______ _____ _____    ______ ____
ROOT
ATOM      1  C   UNL     1       4.122   4.090  18.264  0.00  0.00    +0.000 C 
ATOM      2  C   UNL     1       2.908   4.353  17.344  0.00  0.00    +0.000 C 
ATOM      3  C   UNL     1       1.572   4.752  17.982  0.00  0.00    +0.000 C 
ATOM      4  C   UNL     1       1.378   4.447  19.473  0.00  0.00    +0.000 C 
ATOM      5  C   UNL     1       0.975   3.004  19.784  0.00  0.00    +0.000 C 
ATOM      6  C   UNL     1       2.100   1.981  19.682  0.00  0.00    +0.000 C 
ATOM      7  C   UNL     1       3.479   2.476  20.128  0.00  0.00    +0.000 C 
ATOM      8  C   UNL     1       3.800   3.949  19.778  0.00  0.00    +0.000 C 
ATOM      9  C   UNL     1       2.629   4.811  20.256  0.00  0.00    +0.000 C 
ENDROOT
BRANCH   1  11
ATOM     10  C   UNL     1       4.885   6.411  17.379  0.00  0.00    +0.000 C 
ATOM     11  N   UNL     1       5.330   5.065  17.957  0.00  0.00    +0.000 N 
ATOM     12  C   UNL     1       6.174   5.337  19.226  0.00  0.00    +0.000 C 
ATOM     13  C   UNL     1       7.563   5.631  18.705  0.00  0.00    +0.000 C 
ATOM     14  C   UNL     1       7.734   4.608  17.606  0.00  0.00    +0.000 C 
ATOM     15  C   UNL     1       6.356   4.416  16.983  0.00  0.00    +0.000 C 
ENDBRANCH   1  11
BRANCH   9  16
ATOM     16  O   UNL     1       2.912   6.189  20.081  0.00  0.00    +0.000 OA
ATOM     17  H   UNL     1       3.291   6.517  20.920  0.00  0.00    +0.000 HD
ENDBRANCH   9  16
TORSDOF 2
ENDMDL
MODEL 7
REMARK VINA RESULT:      -7.0      1.772      2.915
REMARK  Name = 
REMARK  3 active torsions:
REMARK  status: ('A' for Active; 'I' for Inactive)
REMARK    1  A    between atoms: C_1  and  N_2
REMARK    2  A    between atoms: N_2  and  C_3
REMARK    3  A    between atoms: C_11  and  O_12
REMARK                            x       y       z     vdW  Elec       q    Type
REMARK                         _______ _______ _______ _____ _____    ______ ____
ROOT
ATOM      1  C   UNL     1       4.296   4.937  17.816  0.00  0.00    +0.000 C 
ATOM      2  C   UNL     1       3.894   5.641  19.133  0.00  0.00    +0.000 C 
ATOM      3  C   UNL     1       3.407   4.785  20.307  0.00  0.00    +0.000 C 
ATOM      4  C   UNL     1       2.924   3.362  19.998  0.00  0.00    +0.000 C 
ATOM      5  C   UNL     1       1.489   3.273  19.474  0.00  0.00    +0.000 C 
ATOM      6  C   UNL     1       1.303   3.694  18.021  0.00  0.00    +0.000 C 
ATOM      7  C   UNL     1       2.457   3.335  17.081  0.00  0.00    +0.000 C 
ATOM      8  C   UNL     1       3.872   3.447  17.695  0.00  0.00    +0.000 C 
ATOM      9  C   UNL     1       3.870   2.682  19.022  0.00  0.00    +0.000 C 
ENDROOT
BRANCH   1  11
ATOM     10  C   UNL     1       6.324   4.259  16.341  0.00  0.00    +0.000 C 
ATOM     11  N   UNL     1       5.807   5.204  17.429  0.00  0.00    +0.000 N 
ATOM     12  C   UNL     1       6.020   6.660  16.950  0.00  0.00    +0.000 C 
ATOM     13  C   UNL     1       7.460   6.968  17.294  0.00  0.00    +0.000 C 
ATOM     14  C   UNL     1       7.620   6.346  18.662  0.00  0.00    +0.000 C 
ATOM     15  C   UNL     1       6.741   5.099  18.669  0.00  0.00    +0.000 C 
ENDBRANCH   1  11
BRANCH   9  16
ATOM     16  O   UNL     1       5.172   2.636  19.579  0.00  0.00    +0.000 OA
ATOM     17  H   UNL     1       5.762   2.236  18.910  0.00  0.00    +0.000 HD
ENDBRANCH   9  16
TORSDOF 2
ENDMDL
MODEL 8
REMARK VINA RESULT:      -7.0      1.686      4.920
REMARK  Name = 
REMARK  3 active torsions:
REMARK  status: ('A' for Active; 'I' for Inactive)
REMARK    1  A    between atoms: C_1  and  N_2
REMARK    2  A    between atoms: N_2  and  C_3
REMARK    3  A    between atoms: C_11  and  O_12
REMARK                            x       y       z     vdW  Elec       q    Type
REMARK                         _______ _______ _______ _____ _____    ______ ____
ROOT
ATOM      1  C   UNL     1       4.716   5.231  18.676  0.00  0.00    +0.000 C 
ATOM      2  C   UNL     1       4.245   6.241  17.604  0.00  0.00    +0.000 C 
ATOM      3  C   UNL     1       5.027   6.339  16.290  0.00  0.00    +0.000 C 
ATOM      4  C   UNL     1       6.456   5.781  16.268  0.00  0.00    +0.000 C 
ATOM      5  C   UNL     1       7.518   6.717  16.848  0.00  0.00    +0.000 C 
ATOM      6  C   UNL     1       7.536   6.813  18.369  0.00  0.00    +0.000 C 
ATOM      7  C   UNL     1       7.211   5.514  19.112  0.00  0.00    +0.000 C 
ATOM      8  C   UNL     1       6.130   4.625  18.452  0.00  0.00    +0.000 C 
ATOM      9  C   UNL     1       6.510   4.439  16.980  0.00  0.00    +0.000 C 
ENDROOT
BRANCH   1  11
ATOM     10  C   UNL     1       2.698   4.572  20.175  0.00  0.00    +0.000 C 
ATOM     11  N   UNL     1       3.608   4.154  19.016  0.00  0.00    +0.000 N 
ATOM     12  C   UNL     1       2.719   3.849  17.786  0.00  0.00    +0.000 C 
ATOM     13  C   UNL     1       2.249   2.427  17.998  0.00  0.00    +0.000 C 
ATOM     14  C   UNL     1       3.490   1.736  18.515  0.00  0.00    +0.000 C 
ATOM     15  C   UNL     1       4.239   2.770  19.348  0.00  0.00    +0.000 C 
ENDBRANCH   1  11
BRANCH   9  16
ATOM     16  O   UNL     1       5.630   3.528  16.343  0.00  0.00    +0.000 OA
ATOM     17  H   UNL     1       4.718   3.822  16.534  0.00  0.00    +0.000 HD
ENDBRANCH   9  16
TORSDOF 2
ENDMDL
MODEL 9
REMARK VINA RESULT:      -6.9      1.553      2.542
REMARK  Name = 
REMARK  3 active torsions:
REMARK  status: ('A' for Active; 'I' for Inactive)
REMARK    1  A    between atoms: C_1  and  N_2
REMARK    2  A    between atoms: N_2  and  C_3
REMARK    3  A    between atoms: C_11  and  O_12
REMARK                            x       y       z     vdW  Elec       q    Type
REMARK                         _______ _______ _______ _____ _____    ______ ____
ROOT
ATOM      1  C   UNL     1       3.671   4.455  18.014  0.00  0.00    +0.000 C 
ATOM      2  C   UNL     1       3.232   5.227  19.279  0.00  0.00    +0.000 C 
ATOM      3  C   UNL     1       3.034   4.449  20.585  0.00  0.00    +0.000 C 
ATOM      4  C   UNL     1       2.847   2.930  20.487  0.00  0.00    +0.000 C 
ATOM      5  C   UNL     1       1.429   2.481  20.129  0.00  0.00    +0.000 C 
ATOM      6  C   UNL     1       1.043   2.663  18.666  0.00  0.00    +0.000 C 
ATOM      7  C   UNL     1       2.170   2.428  17.656  0.00  0.00    +0.000 C 
ATOM      8  C   UNL     1       3.572   2.907  18.103  0.00  0.00    +0.000 C 
ATOM      9  C   UNL     1       3.839   2.337  19.499  0.00  0.00    +0.000 C 
ENDROOT
BRANCH   1  11
ATOM     10  C   UNL     1       6.001   5.481  18.535  0.00  0.00    +0.000 C 
ATOM     11  N   UNL     1       5.054   4.973  17.444  0.00  0.00    +0.000 N 
ATOM     12  C   UNL     1       5.784   3.869  16.642  0.00  0.00    +0.000 C 
ATOM     13  C   UNL     1       6.624   4.622  15.634  0.00  0.00    +0.000 C 
ATOM     14  C   UNL     1       5.695   5.723  15.178  0.00  0.00    +0.000 C 
ATOM     15  C   UNL     1       4.852   6.100  16.391  0.00  0.00    +0.000 C 
ENDBRANCH   1  11
BRANCH   9  16
ATOM     16  O   UNL     1       5.160   2.631  19.920  0.00  0.00    +0.000 OA
ATOM     17  H   UNL     1       5.635   3.003  19.151  0.00  0.00    +0.000 HD
ENDBRANCH   9  16
TORSDOF 2
ENDMDL
