MODEL 1
REMARK VINA RESULT:      -8.0      0.000      0.000
REMARK  Name = 
REMARK  3 active torsions:
REMARK  status: ('A' for Active; 'I' for Inactive)
REMARK    1  A    between atoms: C_2  and  C_3
REMARK    2  A    between atoms: C_2  and  C_16
REMARK    3  A    between atoms: C_3  and  N_4
REMARK                            x       y       z     vdW  Elec       q    Type
REMARK                         _______ _______ _______ _____ _____    ______ ____
ROOT
ATOM      1  C   UNL     1       2.420   7.735  19.822  0.00  0.00    +0.000 C 
ENDROOT
BRANCH   1   2
ATOM      2  N   UNL     1       1.379   8.742  19.764  0.00  0.00    +0.000 N 
ATOM      3  C   UNL     1       1.418   9.890  18.941  0.00  0.00    +0.000 C 
ATOM      4  N   UNL     1       2.320  10.216  18.116  0.00  0.00    +0.000 NA
ATOM      5  C   UNL     1       2.254  11.647  17.898  0.00  0.00    +0.000 C 
ATOM      6  C   UNL     1       1.023  12.130  18.730  0.00  0.00    +0.000 C 
ATOM      7  N   UNL     1       0.607  10.911  19.357  0.00  0.00    +0.000 N 
ATOM      8  C   UNL     1       0.156  10.509  20.628  0.00  0.00    +0.000 A 
ATOM      9  C   UNL     1      -0.579  11.221  21.569  0.00  0.00    +0.000 A 
ATOM     10  C   UNL     1      -0.871  10.579  22.789  0.00  0.00    +0.000 A 
ATOM     11  C   UNL     1      -0.407   9.269  23.044  0.00  0.00    +0.000 A 
ATOM     12  C   UNL     1       0.341   8.573  22.076  0.00  0.00    +0.000 A 
ATOM     13  C   UNL     1       0.603   9.213  20.867  0.00  0.00    +0.000 A 
ENDBRANCH   1   2
BRANCH   1  15
ATOM     14  O   UNL     1       2.004   6.988  17.630  0.00  0.00    +0.000 OA
ATOM     15  C   UNL     1       2.171   6.644  18.791  0.00  0.00    +0.000 C 
BRANCH  15  16
ATOM     16  C   UNL     1       2.157   5.150  19.148  0.00  0.00    +0.000 C 
ATOM     17  C   UNL     1       1.205   4.886  20.358  0.00  0.00    +0.000 C 
ATOM     18  C   UNL     1       1.186   3.381  20.703  0.00  0.00    +0.000 C 
ATOM     19  C   UNL     1       0.702   2.577  19.476  0.00  0.00    +0.000 C 
ATOM     20  C   UNL     1       1.658   2.816  18.290  0.00  0.00    +0.000 C 
ATOM     21  C   UNL     1       3.083   2.362  18.678  0.00  0.00    +0.000 C 
ATOM     22  C   UNL     1       3.561   3.165  19.905  0.00  0.00    +0.000 C 
ATOM     23  C   UNL     1       2.608   2.926  21.092  0.00  0.00    +0.000 C 
ATOM     24  C   UNL     1       3.571   4.659  19.544  0.00  0.00    +0.000 C 
ATOM     25  C   UNL     1       1.666   4.322  17.937  0.00  0.00    +0.000 C 
ENDBRANCH  15  16
ENDBRANCH   1  15
TORSDOF 3
ENDMDL
MODEL 2
REMARK VINA RESULT:      -8.0      0.042      1.515
REMARK  Name = 
REMARK  3 active torsions:
REMARK  status: ('A' for Active; 'I' for Inactive)
REMARK    1  A    between atoms: C_2  and  C_3
REMARK    2  A    between atoms: C_2  and  C_16
REMARK    3  A    between atoms: C_3  and  N_4
REMARK                            x       y       z     vdW  Elec       q    Type
REMARK                         _______ _______ _______ _____ _____    ______ ____
ROOT
ATOM      1  C   UNL     1       2.393   7.755  19.843  0.00  0.00    +0.000 C 
ENDROOT
BRANCH   1   2
ATOM      2  N   UNL     1       1.352   8.762  19.777  0.00  0.00    +0.000 N 
ATOM      3  C   UNL     1       1.391   9.904  18.947  0.00  0.00    +0.000 C 
ATOM      4  N   UNL     1       2.293  10.225  18.120  0.00  0.00    +0.000 NA
ATOM      5  C   UNL     1       2.227  11.655  17.892  0.00  0.00    +0.000 C 
ATOM      6  C   UNL     1       0.995  12.143  18.721  0.00  0.00    +0.000 C 
ATOM      7  N   UNL     1       0.580  10.929  19.356  0.00  0.00    +0.000 N 
ATOM      8  C   UNL     1       0.128  10.534  20.629  0.00  0.00    +0.000 A 
ATOM      9  C   UNL     1      -0.608  11.253  21.565  0.00  0.00    +0.000 A 
ATOM     10  C   UNL     1      -0.900  10.619  22.789  0.00  0.00    +0.000 A 
ATOM     11  C   UNL     1      -0.436   9.311  23.052  0.00  0.00    +0.000 A 
ATOM     12  C   UNL     1       0.312   8.608  22.090  0.00  0.00    +0.000 A 
ATOM     13  C   UNL     1       0.575   9.241  20.876  0.00  0.00    +0.000 A 
ENDBRANCH   1   2
BRANCH   1  15
ATOM     14  O   UNL     1       2.011   7.035  17.636  0.00  0.00    +0.000 OA
ATOM     15  C   UNL     1       2.165   6.677  18.794  0.00  0.00    +0.000 C 
BRANCH  15  16
ATOM     16  C   UNL     1       2.156   5.179  19.132  0.00  0.00    +0.000 C 
ATOM     17  C   UNL     1       3.594   4.693  19.502  0.00  0.00    +0.000 C 
ATOM     18  C   UNL     1       3.575   3.189  19.852  0.00  0.00    +0.000 C 
ATOM     19  C   UNL     1       2.623   2.949  21.045  0.00  0.00    +0.000 C 
ATOM     20  C   UNL     1       1.198   3.404  20.670  0.00  0.00    +0.000 C 
ATOM     21  C   UNL     1       0.707   2.598  19.445  0.00  0.00    +0.000 C 
ATOM     22  C   UNL     1       1.662   2.838  18.257  0.00  0.00    +0.000 C 
ATOM     23  C   UNL     1       3.086   2.383  18.630  0.00  0.00    +0.000 C 
ATOM     24  C   UNL     1       1.670   4.339  17.926  0.00  0.00    +0.000 C 
ATOM     25  C   UNL     1       1.216   4.913  20.331  0.00  0.00    +0.000 C 
ENDBRANCH  15  16
ENDBRANCH   1  15
TORSDOF 3
ENDMDL
MODEL 3
REMARK VINA RESULT:      -8.0      0.074      1.509
REMARK  Name = 
REMARK  3 active torsions:
REMARK  status: ('A' for Active; 'I' for Inactive)
REMARK    1  A    between atoms: C_2  and  C_3
REMARK    2  A    between atoms: C_2  and  C_16
REMARK    3  A    between atoms: C_3  and  N_4
REMARK                            x       y       z     vdW  Elec       q    Type
REMARK                         _______ _______ _______ _____ _____    ______ ____
ROOT
ATOM      1  C   UNL     1       2.404   7.792  19.833  0.00  0.00    +0.000 C 
ENDROOT
BRANCH   1   2
ATOM      2  N   UNL     1       1.366   8.803  19.776  0.00  0.00    +0.000 N 
ATOM      3  C   UNL     1       1.408   9.950  18.952  0.00  0.00    +0.000 C 
ATOM      4  N   UNL     1       2.309  10.272  18.125  0.00  0.00    +0.000 NA
ATOM      5  C   UNL     1       2.249  11.704  17.906  0.00  0.00    +0.000 C 
ATOM      6  C   UNL     1       1.021  12.191  18.740  0.00  0.00    +0.000 C 
ATOM      7  N   UNL     1       0.602  10.975  19.369  0.00  0.00    +0.000 N 
ATOM      8  C   UNL     1       0.152  10.575  20.641  0.00  0.00    +0.000 A 
ATOM      9  C   UNL     1      -0.579  11.291  21.583  0.00  0.00    +0.000 A 
ATOM     10  C   UNL     1      -0.871  10.652  22.804  0.00  0.00    +0.000 A 
ATOM     11  C   UNL     1      -0.411   9.340  23.059  0.00  0.00    +0.000 A 
ATOM     12  C   UNL     1       0.332   8.640  22.090  0.00  0.00    +0.000 A 
ATOM     13  C   UNL     1       0.594   9.278  20.880  0.00  0.00    +0.000 A 
ENDBRANCH   1   2
BRANCH   1  15
ATOM     14  O   UNL     1       1.992   7.072  17.632  0.00  0.00    +0.000 OA
ATOM     15  C   UNL     1       2.162   6.713  18.788  0.00  0.00    +0.000 C 
BRANCH  15  16
ATOM     16  C   UNL     1       2.158   5.215  19.125  0.00  0.00    +0.000 C 
ATOM     17  C   UNL     1       1.650   4.381  17.905  0.00  0.00    +0.000 C 
ATOM     18  C   UNL     1       1.661   2.876  18.247  0.00  0.00    +0.000 C 
ATOM     19  C   UNL     1       3.097   2.440  18.612  0.00  0.00    +0.000 C 
ATOM     20  C   UNL     1       3.587   3.243  19.833  0.00  0.00    +0.000 C 
ATOM     21  C   UNL     1       2.646   2.983  21.031  0.00  0.00    +0.000 C 
ATOM     22  C   UNL     1       1.213   3.416  20.662  0.00  0.00    +0.000 C 
ATOM     23  C   UNL     1       0.721   2.614  19.442  0.00  0.00    +0.000 C 
ATOM     24  C   UNL     1       1.223   4.916  20.322  0.00  0.00    +0.000 C 
ATOM     25  C   UNL     1       3.588   4.751  19.486  0.00  0.00    +0.000 C 
ENDBRANCH  15  16
ENDBRANCH   1  15
TORSDOF 3
ENDMDL
MODEL 4
REMARK VINA RESULT:      -7.8      4.493      6.658
REMARK  Name = 
REMARK  3 active torsions:
REMARK  status: ('A' for Active; 'I' for Inactive)
REMARK    1  A    between atoms: C_2  and  C_3
REMARK    2  A    between atoms: C_2  and  C_16
REMARK    3  A    between atoms: C_3  and  N_4
REMARK                            x       y       z     vdW  Elec       q    Type
REMARK                         _______ _______ _______ _____ _____    ______ ____
ROOT
ATOM      1  C   UNL     1       4.498   2.811  17.070  0.00  0.00    +0.000 C 
ENDROOT
BRANCH   1   2
ATOM      2  N   UNL     1       5.101   4.069  16.676  0.00  0.00    +0.000 N 
ATOM      3  C   UNL     1       5.591   4.354  15.382  0.00  0.00    +0.000 C 
ATOM      4  N   UNL     1       5.563   3.602  14.365  0.00  0.00    +0.000 NA
ATOM      5  C   UNL     1       6.598   4.028  13.444  0.00  0.00    +0.000 C 
ATOM      6  C   UNL     1       7.230   5.296  14.100  0.00  0.00    +0.000 C 
ATOM      7  N   UNL     1       6.508   5.368  15.335  0.00  0.00    +0.000 N 
ATOM      8  C   UNL     1       6.800   5.643  16.684  0.00  0.00    +0.000 A 
ATOM      9  C   UNL     1       7.769   6.482  17.224  0.00  0.00    +0.000 A 
ATOM     10  C   UNL     1       7.866   6.546  18.628  0.00  0.00    +0.000 A 
ATOM     11  C   UNL     1       7.021   5.762  19.446  0.00  0.00    +0.000 A 
ATOM     12  C   UNL     1       6.053   4.916  18.874  0.00  0.00    +0.000 A 
ATOM     13  C   UNL     1       5.955   4.880  17.484  0.00  0.00    +0.000 A 
ENDBRANCH   1   2
BRANCH   1  15
ATOM     14  O   UNL     1       2.236   2.819  16.423  0.00  0.00    +0.000 OA
ATOM     15  C   UNL     1       3.013   2.991  17.350  0.00  0.00    +0.000 C 
BRANCH  15  16
ATOM     16  C   UNL     1       2.467   3.342  18.742  0.00  0.00    +0.000 C 
ATOM     17  C   UNL     1       3.354   2.697  19.856  0.00  0.00    +0.000 C 
ATOM     18  C   UNL     1       2.806   3.065  21.252  0.00  0.00    +0.000 C 
ATOM     19  C   UNL     1       2.802   4.601  21.416  0.00  0.00    +0.000 C 
ATOM     20  C   UNL     1       1.905   5.235  20.334  0.00  0.00    +0.000 C 
ATOM     21  C   UNL     1       0.465   4.694  20.478  0.00  0.00    +0.000 C 
ATOM     22  C   UNL     1       0.473   3.160  20.317  0.00  0.00    +0.000 C 
ATOM     23  C   UNL     1       1.368   2.525  21.398  0.00  0.00    +0.000 C 
ATOM     24  C   UNL     1       1.024   2.814  18.924  0.00  0.00    +0.000 C 
ATOM     25  C   UNL     1       2.462   4.876  18.935  0.00  0.00    +0.000 C 
ENDBRANCH  15  16
ENDBRANCH   1  15
TORSDOF 3
ENDMDL
MODEL 5
REMARK VINA RESULT:      -7.8      4.485      6.556
REMARK  Name = 
REMARK  3 active torsions:
REMARK  status: ('A' for Active; 'I' for Inactive)
REMARK    1  A    between atoms: C_2  and  C_3
REMARK    2  A    between atoms: C_2  and  C_16
REMARK    3  A    between atoms: C_3  and  N_4
REMARK                            x       y       z     vdW  Elec       q    Type
REMARK                         _______ _______ _______ _____ _____    ______ ____
ROOT
ATOM      1  C   UNL     1       4.495   2.826  17.067  0.00  0.00    +0.000 C 
ENDROOT
BRANCH   1   2
ATOM      2  N   UNL     1       5.103   4.082  16.675  0.00  0.00    +0.000 N 
ATOM      3  C   UNL     1       5.595   4.366  15.381  0.00  0.00    +0.000 C 
ATOM      4  N   UNL     1       5.567   3.614  14.364  0.00  0.00    +0.000 NA
ATOM      5  C   UNL     1       6.605   4.036  13.445  0.00  0.00    +0.000 C 
ATOM      6  C   UNL     1       7.239   5.304  14.102  0.00  0.00    +0.000 C 
ATOM      7  N   UNL     1       6.516   5.378  15.336  0.00  0.00    +0.000 N 
ATOM      8  C   UNL     1       6.805   5.652  16.685  0.00  0.00    +0.000 A 
ATOM      9  C   UNL     1       7.775   6.489  17.226  0.00  0.00    +0.000 A 
ATOM     10  C   UNL     1       7.870   6.553  18.631  0.00  0.00    +0.000 A 
ATOM     11  C   UNL     1       7.021   5.772  19.447  0.00  0.00    +0.000 A 
ATOM     12  C   UNL     1       6.052   4.928  18.873  0.00  0.00    +0.000 A 
ATOM     13  C   UNL     1       5.957   4.891  17.484  0.00  0.00    +0.000 A 
ENDBRANCH   1   2
BRANCH   1  15
ATOM     14  O   UNL     1       2.233   2.847  16.420  0.00  0.00    +0.000 OA
ATOM     15  C   UNL     1       3.011   3.011  17.348  0.00  0.00    +0.000 C 
BRANCH  15  16
ATOM     16  C   UNL     1       2.466   3.356  18.742  0.00  0.00    +0.000 C 
ATOM     17  C   UNL     1       2.471   4.903  18.962  0.00  0.00    +0.000 C 
ATOM     18  C   UNL     1       1.910   5.243  20.360  0.00  0.00    +0.000 C 
ATOM     19  C   UNL     1       0.467   4.707  20.481  0.00  0.00    +0.000 C 
ATOM     20  C   UNL     1       0.465   3.176  20.290  0.00  0.00    +0.000 C 
ATOM     21  C   UNL     1       1.354   2.523  21.373  0.00  0.00    +0.000 C 
ATOM     22  C   UNL     1       2.793   3.064  21.251  0.00  0.00    +0.000 C 
ATOM     23  C   UNL     1       2.796   4.593  21.442  0.00  0.00    +0.000 C 
ATOM     24  C   UNL     1       3.333   2.718  19.854  0.00  0.00    +0.000 C 
ATOM     25  C   UNL     1       1.016   2.837  18.885  0.00  0.00    +0.000 C 
ENDBRANCH  15  16
ENDBRANCH   1  15
TORSDOF 3
ENDMDL
MODEL 6
REMARK VINA RESULT:      -7.8      4.487      6.611
REMARK  Name = 
REMARK  3 active torsions:
REMARK  status: ('A' for Active; 'I' for Inactive)
REMARK    1  A    between atoms: C_2  and  C_3
REMARK    2  A    between atoms: C_2  and  C_16
REMARK    3  A    between atoms: C_3  and  N_4
REMARK                            x       y       z     vdW  Elec       q    Type
REMARK                         _______ _______ _______ _____ _____    ______ ____
ROOT
ATOM      1  C   UNL     1       4.500   2.822  17.051  0.00  0.00    +0.000 C 
ENDROOT
BRANCH   1   2
ATOM      2  N   UNL     1       5.104   4.081  16.661  0.00  0.00    +0.000 N 
ATOM      3  C   UNL     1       5.599   4.367  15.369  0.00  0.00    +0.000 C 
ATOM      4  N   UNL     1       5.576   3.615  14.351  0.00  0.00    +0.000 NA
ATOM      5  C   UNL     1       6.615   4.043  13.435  0.00  0.00    +0.000 C 
ATOM      6  C   UNL     1       7.243   5.312  14.095  0.00  0.00    +0.000 C 
ATOM      7  N   UNL     1       6.515   5.383  15.327  0.00  0.00    +0.000 N 
ATOM      8  C   UNL     1       6.801   5.657  16.677  0.00  0.00    +0.000 A 
ATOM      9  C   UNL     1       7.766   6.498  17.221  0.00  0.00    +0.000 A 
ATOM     10  C   UNL     1       7.857   6.561  18.626  0.00  0.00    +0.000 A 
ATOM     11  C   UNL     1       7.009   5.777  19.439  0.00  0.00    +0.000 A 
ATOM     12  C   UNL     1       6.045   4.929  18.863  0.00  0.00    +0.000 A 
ATOM     13  C   UNL     1       5.953   4.893  17.473  0.00  0.00    +0.000 A 
ENDBRANCH   1   2
BRANCH   1  15
ATOM     14  O   UNL     1       2.235   2.830  16.417  0.00  0.00    +0.000 OA
ATOM     15  C   UNL     1       3.018   3.003  17.340  0.00  0.00    +0.000 C 
BRANCH  15  16
ATOM     16  C   UNL     1       2.479   3.355  18.734  0.00  0.00    +0.000 C 
ATOM     17  C   UNL     1       1.013   2.839  18.900  0.00  0.00    +0.000 C 
ATOM     18  C   UNL     1       0.483   3.185  20.308  0.00  0.00    +0.000 C 
ATOM     19  C   UNL     1       1.388   2.532  21.376  0.00  0.00    +0.000 C 
ATOM     20  C   UNL     1       2.829   3.062  21.229  0.00  0.00    +0.000 C 
ATOM     21  C   UNL     1       2.833   4.597  21.415  0.00  0.00    +0.000 C 
ATOM     22  C   UNL     1       1.925   5.245  20.349  0.00  0.00    +0.000 C 
ATOM     23  C   UNL     1       0.486   4.717  20.496  0.00  0.00    +0.000 C 
ATOM     24  C   UNL     1       2.467   4.887  18.956  0.00  0.00    +0.000 C 
ATOM     25  C   UNL     1       3.364   2.704  19.822  0.00  0.00    +0.000 C 
ENDBRANCH  15  16
ENDBRANCH   1  15
TORSDOF 3
ENDMDL
MODEL 7
REMARK VINA RESULT:      -7.5      2.561      7.498
REMARK  Name = 
REMARK  3 active torsions:
REMARK  status: ('A' for Active; 'I' for Inactive)
REMARK    1  A    between atoms: C_2  and  C_3
REMARK    2  A    between atoms: C_2  and  C_16
REMARK    3  A    between atoms: C_3  and  N_4
REMARK                            x       y       z     vdW  Elec       q    Type
REMARK                         _______ _______ _______ _____ _____    ______ ____
ROOT
ATOM      1  C   UNL     1       2.549   7.240  18.844  0.00  0.00    +0.000 C 
ENDROOT
BRANCH   1   2
ATOM      2  N   UNL     1       2.896   6.182  17.916  0.00  0.00    +0.000 N 
ATOM      3  C   UNL     1       2.308   4.898  17.907  0.00  0.00    +0.000 C 
ATOM      4  N   UNL     1       1.386   4.467  18.659  0.00  0.00    +0.000 NA
ATOM      5  C   UNL     1       1.452   3.020  18.693  0.00  0.00    +0.000 C 
ATOM      6  C   UNL     1       2.597   2.641  17.700  0.00  0.00    +0.000 C 
ATOM      7  N   UNL     1       3.064   3.934  17.296  0.00  0.00    +0.000 N 
ATOM      8  C   UNL     1       4.305   4.554  17.063  0.00  0.00    +0.000 A 
ATOM      9  C   UNL     1       5.493   4.001  16.599  0.00  0.00    +0.000 A 
ATOM     10  C   UNL     1       6.609   4.855  16.487  0.00  0.00    +0.000 A 
ATOM     11  C   UNL     1       6.517   6.214  16.861  0.00  0.00    +0.000 A 
ATOM     12  C   UNL     1       5.303   6.747  17.335  0.00  0.00    +0.000 A 
ATOM     13  C   UNL     1       4.204   5.895  17.419  0.00  0.00    +0.000 A 
ENDBRANCH   1   2
BRANCH   1  15
ATOM     14  O   UNL     1       2.496   8.607  16.930  0.00  0.00    +0.000 OA
ATOM     15  C   UNL     1       2.144   8.501  18.096  0.00  0.00    +0.000 C 
BRANCH  15  16
ATOM     16  C   UNL     1       1.293   9.609  18.734  0.00  0.00    +0.000 C 
ATOM     17  C   UNL     1      -0.110   9.684  18.049  0.00  0.00    +0.000 C 
ATOM     18  C   UNL     1      -0.963  10.791  18.705  0.00  0.00    +0.000 C 
ATOM     19  C   UNL     1      -1.136  10.487  20.209  0.00  0.00    +0.000 C 
ATOM     20  C   UNL     1       0.247  10.440  20.890  0.00  0.00    +0.000 C 
ATOM     21  C   UNL     1       0.953  11.804  20.714  0.00  0.00    +0.000 C 
ATOM     22  C   UNL     1       1.120  12.105  19.211  0.00  0.00    +0.000 C 
ATOM     23  C   UNL     1      -0.261  12.154  18.529  0.00  0.00    +0.000 C 
ATOM     24  C   UNL     1       1.970  10.992  18.577  0.00  0.00    +0.000 C 
ATOM     25  C   UNL     1       1.097   9.323  20.242  0.00  0.00    +0.000 C 
ENDBRANCH  15  16
ENDBRANCH   1  15
TORSDOF 3
ENDMDL
MODEL 8
REMARK VINA RESULT:      -7.5      2.555      7.513
REMARK  Name = 
REMARK  3 active torsions:
REMARK  status: ('A' for Active; 'I' for Inactive)
REMARK    1  A    between atoms: C_2  and  C_3
REMARK    2  A    between atoms: C_2  and  C_16
REMARK    3  A    between atoms: C_3  and  N_4
REMARK                            x       y       z     vdW  Elec       q    Type
REMARK                         _______ _______ _______ _____ _____    ______ ____
ROOT
ATOM      1  C   UNL     1       2.543   7.259  18.846  0.00  0.00    +0.000 C 
ENDROOT
BRANCH   1   2
ATOM      2  N   UNL     1       2.898   6.202  17.920  0.00  0.00    +0.000 N 
ATOM      3  C   UNL     1       2.315   4.915  17.909  0.00  0.00    +0.000 C 
ATOM      4  N   UNL     1       1.392   4.481  18.658  0.00  0.00    +0.000 NA
ATOM      5  C   UNL     1       1.464   3.034  18.694  0.00  0.00    +0.000 C 
ATOM      6  C   UNL     1       2.615   2.659  17.706  0.00  0.00    +0.000 C 
ATOM      7  N   UNL     1       3.078   3.953  17.303  0.00  0.00    +0.000 N 
ATOM      8  C   UNL     1       4.318   4.579  17.075  0.00  0.00    +0.000 A 
ATOM      9  C   UNL     1       5.510   4.031  16.615  0.00  0.00    +0.000 A 
ATOM     10  C   UNL     1       6.623   4.889  16.508  0.00  0.00    +0.000 A 
ATOM     11  C   UNL     1       6.523   6.249  16.880  0.00  0.00    +0.000 A 
ATOM     12  C   UNL     1       5.305   6.777  17.348  0.00  0.00    +0.000 A 
ATOM     13  C   UNL     1       4.209   5.920  17.429  0.00  0.00    +0.000 A 
ENDBRANCH   1   2
BRANCH   1  15
ATOM     14  O   UNL     1       2.465   8.611  16.923  0.00  0.00    +0.000 OA
ATOM     15  C   UNL     1       2.133   8.517  18.095  0.00  0.00    +0.000 C 
BRANCH  15  16
ATOM     16  C   UNL     1       1.302   9.636  18.740  0.00  0.00    +0.000 C 
ATOM     17  C   UNL     1       1.123   9.372  20.270  0.00  0.00    +0.000 C 
ATOM     18  C   UNL     1       0.298  10.507  20.913  0.00  0.00    +0.000 C 
ATOM     19  C   UNL     1       1.021  11.855  20.700  0.00  0.00    +0.000 C 
ATOM     20  C   UNL     1       1.173  12.129  19.190  0.00  0.00    +0.000 C 
ATOM     21  C   UNL     1      -0.225  12.182  18.534  0.00  0.00    +0.000 C 
ATOM     22  C   UNL     1      -0.946  10.835  18.751  0.00  0.00    +0.000 C 
ATOM     23  C   UNL     1      -1.099  10.561  20.260  0.00  0.00    +0.000 C 
ATOM     24  C   UNL     1      -0.108   9.718  18.107  0.00  0.00    +0.000 C 
ATOM     25  C   UNL     1       2.011  10.997  18.549  0.00  0.00    +0.000 C 
ENDBRANCH  15  16
ENDBRANCH   1  15
TORSDOF 3
ENDMDL
MODEL 9
REMARK VINA RESULT:      -7.5      2.561      7.477
REMARK  Name = 
REMARK  3 active torsions:
REMARK  status: ('A' for Active; 'I' for Inactive)
REMARK    1  A    between atoms: C_2  and  C_3
REMARK    2  A    between atoms: C_2  and  C_16
REMARK    3  A    between atoms: C_3  and  N_4
REMARK                            x       y       z     vdW  Elec       q    Type
REMARK                         _______ _______ _______ _____ _____    ______ ____
ROOT
ATOM      1  C   UNL     1       2.551   7.249  18.843  0.00  0.00    +0.000 C 
ENDROOT
BRANCH   1   2
ATOM      2  N   UNL     1       2.904   6.192  17.916  0.00  0.00    +0.000 N 
ATOM      3  C   UNL     1       2.319   4.906  17.903  0.00  0.00    +0.000 C 
ATOM      4  N   UNL     1       1.395   4.473  18.651  0.00  0.00    +0.000 NA
ATOM      5  C   UNL     1       1.465   3.025  18.685  0.00  0.00    +0.000 C 
ATOM      6  C   UNL     1       2.616   2.650  17.697  0.00  0.00    +0.000 C 
ATOM      7  N   UNL     1       3.081   3.944  17.296  0.00  0.00    +0.000 N 
ATOM      8  C   UNL     1       4.321   4.568  17.068  0.00  0.00    +0.000 A 
ATOM      9  C   UNL     1       5.513   4.019  16.609  0.00  0.00    +0.000 A 
ATOM     10  C   UNL     1       6.627   4.875  16.503  0.00  0.00    +0.000 A 
ATOM     11  C   UNL     1       6.529   6.234  16.877  0.00  0.00    +0.000 A 
ATOM     12  C   UNL     1       5.312   6.764  17.345  0.00  0.00    +0.000 A 
ATOM     13  C   UNL     1       4.215   5.909  17.424  0.00  0.00    +0.000 A 
ENDBRANCH   1   2
BRANCH   1  15
ATOM     14  O   UNL     1       2.478   8.607  16.924  0.00  0.00    +0.000 OA
ATOM     15  C   UNL     1       2.138   8.507  18.094  0.00  0.00    +0.000 C 
BRANCH  15  16
ATOM     16  C   UNL     1       1.295   9.618  18.736  0.00  0.00    +0.000 C 
ATOM     17  C   UNL     1       1.997  11.004  18.567  0.00  0.00    +0.000 C 
ATOM     18  C   UNL     1       1.138  12.118  19.203  0.00  0.00    +0.000 C 
ATOM     19  C   UNL     1      -0.248  12.152  18.524  0.00  0.00    +0.000 C 
ATOM     20  C   UNL     1      -0.952  10.793  18.715  0.00  0.00    +0.000 C 
ATOM     21  C   UNL     1      -1.122  10.510  20.225  0.00  0.00    +0.000 C 
ATOM     22  C   UNL     1       0.265  10.480  20.901  0.00  0.00    +0.000 C 
ATOM     23  C   UNL     1       0.969  11.837  20.711  0.00  0.00    +0.000 C 
ATOM     24  C   UNL     1       1.105   9.368  20.252  0.00  0.00    +0.000 C 
ATOM     25  C   UNL     1      -0.098   9.680  18.066  0.00  0.00    +0.000 C 
ENDBRANCH  15  16
ENDBRANCH   1  15
TORSDOF 3
ENDMDL
