MODEL 1
REMARK VINA RESULT:      -8.1      0.000      0.000
REMARK  Name = 
REMARK  6 active torsions:
REMARK  status: ('A' for Active; 'I' for Inactive)
REMARK    1  A    between atoms: C_1  and  O_2
REMARK    2  A    between atoms: O_2  and  C_3
REMARK    3  A    between atoms: C_6  and  C_7
REMARK    4  A    between atoms: C_19  and  N_20
REMARK    5  A    between atoms: C_22  and  O_23
REMARK    6  A    between atoms: O_23  and  C_24
REMARK                            x       y       z     vdW  Elec       q    Type
REMARK                         _______ _______ _______ _____ _____    ______ ____
ROOT
ATOM      1  C   UNL     1       2.043   3.816  18.152  0.00  0.00    +0.000 A 
ATOM      2  C   UNL     1       3.247   3.262  17.460  0.00  0.00    +0.000 A 
ATOM      3  N   UNL     1       3.854   3.677  16.394  0.00  0.00    +0.000 NA
ATOM      4  C   UNL     1       5.012   4.216  16.953  0.00  0.00    +0.000 A 
ATOM      5  C   UNL     1       5.480   5.422  16.376  0.00  0.00    +0.000 A 
ATOM      6  C   UNL     1       5.997   6.458  17.143  0.00  0.00    +0.000 A 
ATOM      7  C   UNL     1       6.029   6.250  18.514  0.00  0.00    +0.000 A 
ATOM      8  C   UNL     1       5.609   4.978  19.105  0.00  0.00    +0.000 A 
ATOM      9  C   UNL     1       5.105   3.875  18.310  0.00  0.00    +0.000 A 
ATOM     10  C   UNL     1       4.186   2.617  18.543  0.00  0.00    +0.000 A 
ATOM     11  N   UNL     1       3.355   1.547  18.723  0.00  0.00    +0.000 NA
ATOM     12  N   UNL     1       1.881   1.637  18.499  0.00  0.00    +0.000 N 
ATOM     13  C   UNL     1       1.283   2.864  18.702  0.00  0.00    +0.000 A 
ATOM     14  H   UNL     1       1.256   0.842  18.662  0.00  0.00    +0.000 HD
ENDROOT
BRANCH   1  18
ATOM     15  C   UNL     1       1.924   7.468  20.232  0.00  0.00    +0.000 A 
ATOM     16  C   UNL     1       1.758   6.220  20.834  0.00  0.00    +0.000 A 
ATOM     17  C   UNL     1       1.937   5.036  20.168  0.00  0.00    +0.000 A 
ATOM     18  C   UNL     1       2.250   5.078  18.837  0.00  0.00    +0.000 A 
ATOM     19  C   UNL     1       2.312   6.308  18.143  0.00  0.00    +0.000 A 
ATOM     20  C   UNL     1       2.162   7.524  18.825  0.00  0.00    +0.000 A 
BRANCH  15  22
ATOM     21  C   UNL     1       0.507   8.922  21.627  0.00  0.00    +0.000 C 
ATOM     22  O   UNL     1       1.803   8.530  21.096  0.00  0.00    +0.000 OA
ENDBRANCH  15  22
BRANCH  20  23
ATOM     23  O   UNL     1       2.269   8.566  17.930  0.00  0.00    +0.000 OA
ATOM     24  C   UNL     1       1.172   9.445  17.915  0.00  0.00    +0.000 C 
ENDBRANCH  20  23
ENDBRANCH   1  18
BRANCH  13  25
ATOM     25  N   UNL     1       0.236   3.139  19.552  0.00  0.00    +0.000 N 
ATOM     26  H   UNL     1       0.313   3.864  20.251  0.00  0.00    +0.000 HD
ATOM     27  H   UNL     1      -0.398   2.370  19.772  0.00  0.00    +0.000 HD
ENDBRANCH  13  25
TORSDOF 4
ENDMDL
MODEL 2
REMARK VINA RESULT:      -8.0      2.408      4.992
REMARK  Name = 
REMARK  6 active torsions:
REMARK  status: ('A' for Active; 'I' for Inactive)
REMARK    1  A    between atoms: C_1  and  O_2
REMARK    2  A    between atoms: O_2  and  C_3
REMARK    3  A    between atoms: C_6  and  C_7
REMARK    4  A    between atoms: C_19  and  N_20
REMARK    5  A    between atoms: C_22  and  O_23
REMARK    6  A    between atoms: O_23  and  C_24
REMARK                            x       y       z     vdW  Elec       q    Type
REMARK                         _______ _______ _______ _____ _____    ______ ____
ROOT
ATOM      1  C   UNL     1       3.448   2.821  19.210  0.00  0.00    +0.000 A 
ATOM      2  C   UNL     1       2.199   3.502  19.671  0.00  0.00    +0.000 A 
ATOM      3  N   UNL     1       2.038   4.412  20.578  0.00  0.00    +0.000 NA
ATOM      4  C   UNL     1       1.782   5.525  19.780  0.00  0.00    +0.000 A 
ATOM      5  C   UNL     1       2.366   6.745  20.202  0.00  0.00    +0.000 A 
ATOM      6  C   UNL     1       2.916   7.652  19.307  0.00  0.00    +0.000 A 
ATOM      7  C   UNL     1       2.865   7.300  17.966  0.00  0.00    +0.000 A 
ATOM      8  C   UNL     1       2.201   6.073  17.522  0.00  0.00    +0.000 A 
ATOM      9  C   UNL     1       1.589   5.138  18.445  0.00  0.00    +0.000 A 
ATOM     10  C   UNL     1       1.214   3.607  18.451  0.00  0.00    +0.000 A 
ATOM     11  N   UNL     1       0.925   2.271  18.482  0.00  0.00    +0.000 NA
ATOM     12  N   UNL     1       1.898   1.259  18.990  0.00  0.00    +0.000 N 
ATOM     13  C   UNL     1       3.240   1.549  18.860  0.00  0.00    +0.000 A 
ATOM     14  H   UNL     1       1.689   0.255  18.987  0.00  0.00    +0.000 HD
ENDROOT
BRANCH   1  18
ATOM     15  C   UNL     1       6.401   4.606  16.808  0.00  0.00    +0.000 A 
ATOM     16  C   UNL     1       5.298   3.915  16.305  0.00  0.00    +0.000 A 
ATOM     17  C   UNL     1       4.274   3.460  17.095  0.00  0.00    +0.000 A 
ATOM     18  C   UNL     1       4.358   3.653  18.447  0.00  0.00    +0.000 A 
ATOM     19  C   UNL     1       5.508   4.238  19.027  0.00  0.00    +0.000 A 
ATOM     20  C   UNL     1       6.543   4.734  18.223  0.00  0.00    +0.000 A 
BRANCH  15  22
ATOM     21  C   UNL     1       6.987   4.858  14.428  0.00  0.00    +0.000 C 
ATOM     22  O   UNL     1       7.262   5.070  15.841  0.00  0.00    +0.000 OA
ENDBRANCH  15  22
BRANCH  20  23
ATOM     23  O   UNL     1       7.536   5.254  19.025  0.00  0.00    +0.000 OA
ATOM     24  C   UNL     1       7.905   6.576  18.725  0.00  0.00    +0.000 C 
ENDBRANCH  20  23
ENDBRANCH   1  18
BRANCH  13  25
ATOM     25  N   UNL     1       4.190   0.781  18.225  0.00  0.00    +0.000 N 
ATOM     26  H   UNL     1       3.926   0.114  17.514  0.00  0.00    +0.000 HD
ATOM     27  H   UNL     1       5.040   0.565  18.748  0.00  0.00    +0.000 HD
ENDBRANCH  13  25
TORSDOF 4
ENDMDL
MODEL 3
REMARK VINA RESULT:      -7.9      1.769      4.123
REMARK  Name = 
REMARK  6 active torsions:
REMARK  status: ('A' for Active; 'I' for Inactive)
REMARK    1  A    between atoms: C_1  and  O_2
REMARK    2  A    between atoms: O_2  and  C_3
REMARK    3  A    between atoms: C_6  and  C_7
REMARK    4  A    between atoms: C_19  and  N_20
REMARK    5  A    between atoms: C_22  and  O_23
REMARK    6  A    between atoms: O_23  and  C_24
REMARK                            x       y       z     vdW  Elec       q    Type
REMARK                         _______ _______ _______ _____ _____    ______ ____
ROOT
ATOM      1  C   UNL     1       5.360   5.632  18.338  0.00  0.00    +0.000 A 
ATOM      2  C   UNL     1       5.301   4.138  18.357  0.00  0.00    +0.000 A 
ATOM      3  N   UNL     1       4.963   3.335  19.316  0.00  0.00    +0.000 NA
ATOM      4  C   UNL     1       3.719   2.903  18.859  0.00  0.00    +0.000 A 
ATOM      5  C   UNL     1       2.709   2.758  19.842  0.00  0.00    +0.000 A 
ATOM      6  C   UNL     1       1.392   3.129  19.611  0.00  0.00    +0.000 A 
ATOM      7  C   UNL     1       1.113   3.655  18.358  0.00  0.00    +0.000 A 
ATOM      8  C   UNL     1       2.140   3.742  17.319  0.00  0.00    +0.000 A 
ATOM      9  C   UNL     1       3.510   3.321  17.536  0.00  0.00    +0.000 A 
ATOM     10  C   UNL     1       4.923   3.639  16.916  0.00  0.00    +0.000 A 
ATOM     11  N   UNL     1       6.158   3.941  16.414  0.00  0.00    +0.000 NA
ATOM     12  N   UNL     1       7.003   5.033  16.982  0.00  0.00    +0.000 N 
ATOM     13  C   UNL     1       6.351   6.097  17.572  0.00  0.00    +0.000 A 
ATOM     14  H   UNL     1       7.916   5.276  16.587  0.00  0.00    +0.000 HD
ENDROOT
BRANCH   1  18
ATOM     15  C   UNL     1       2.016   8.174  18.512  0.00  0.00    +0.000 A 
ATOM     16  C   UNL     1       2.895   8.113  17.429  0.00  0.00    +0.000 A 
ATOM     17  C   UNL     1       3.897   7.183  17.329  0.00  0.00    +0.000 A 
ATOM     18  C   UNL     1       4.073   6.300  18.359  0.00  0.00    +0.000 A 
ATOM     19  C   UNL     1       3.293   6.392  19.536  0.00  0.00    +0.000 A 
ATOM     20  C   UNL     1       2.246   7.319  19.632  0.00  0.00    +0.000 A 
BRANCH  15  22
ATOM     21  C   UNL     1       1.295  10.530  18.506  0.00  0.00    +0.000 C 
ATOM     22  O   UNL     1       1.017   9.108  18.372  0.00  0.00    +0.000 OA
ENDBRANCH  15  22
BRANCH  20  23
ATOM     23  O   UNL     1       1.644   7.202  20.865  0.00  0.00    +0.000 OA
ATOM     24  C   UNL     1       1.377   8.423  21.508  0.00  0.00    +0.000 C 
ENDBRANCH  20  23
ENDBRANCH   1  18
BRANCH  13  25
ATOM     25  N   UNL     1       6.483   7.427  17.243  0.00  0.00    +0.000 N 
ATOM     26  H   UNL     1       7.224   7.987  17.639  0.00  0.00    +0.000 HD
ATOM     27  H   UNL     1       5.633   7.929  16.984  0.00  0.00    +0.000 HD
ENDBRANCH  13  25
TORSDOF 4
ENDMDL
MODEL 4
REMARK VINA RESULT:      -7.2      2.352      4.981
REMARK  Name = 
REMARK  6 active torsions:
REMARK  status: ('A' for Active; 'I' for Inactive)
REMARK    1  A    between atoms: C_1  and  O_2
REMARK    2  A    between atoms: O_2  and  C_3
REMARK    3  A    between atoms: C_6  and  C_7
REMARK    4  A    between atoms: C_19  and  N_20
REMARK    5  A    between atoms: C_22  and  O_23
REMARK    6  A    between atoms: O_23  and  C_24
REMARK                            x       y       z     vdW  Elec       q    Type
REMARK                         _______ _______ _______ _____ _____    ______ ____
ROOT
ATOM      1  C   UNL     1       3.976   3.660  20.089  0.00  0.00    +0.000 A 
ATOM      2  C   UNL     1       2.648   4.265  20.419  0.00  0.00    +0.000 A 
ATOM      3  N   UNL     1       2.372   5.403  20.972  0.00  0.00    +0.000 NA
ATOM      4  C   UNL     1       1.887   6.110  19.873  0.00  0.00    +0.000 A 
ATOM      5  C   UNL     1       2.265   7.472  19.790  0.00  0.00    +0.000 A 
ATOM      6  C   UNL     1       2.604   8.074  18.586  0.00  0.00    +0.000 A 
ATOM      7  C   UNL     1       2.554   7.267  17.459  0.00  0.00    +0.000 A 
ATOM      8  C   UNL     1       2.097   5.878  17.533  0.00  0.00    +0.000 A 
ATOM      9  C   UNL     1       1.703   5.250  18.779  0.00  0.00    +0.000 A 
ATOM     10  C   UNL     1       1.605   3.783  19.347  0.00  0.00    +0.000 A 
ATOM     11  N   UNL     1       1.558   2.518  19.863  0.00  0.00    +0.000 NA
ATOM     12  N   UNL     1       2.717   1.908  20.580  0.00  0.00    +0.000 N 
ATOM     13  C   UNL     1       3.980   2.330  20.219  0.00  0.00    +0.000 A 
ATOM     14  H   UNL     1       2.689   0.950  20.942  0.00  0.00    +0.000 HD
ENDROOT
BRANCH   1  18
ATOM     15  C   UNL     1       6.447   4.893  16.919  0.00  0.00    +0.000 A 
ATOM     16  C   UNL     1       5.452   3.922  16.801  0.00  0.00    +0.000 A 
ATOM     17  C   UNL     1       4.565   3.631  17.805  0.00  0.00    +0.000 A 
ATOM     18  C   UNL     1       4.688   4.293  18.996  0.00  0.00    +0.000 A 
ATOM     19  C   UNL     1       5.752   5.199  19.217  0.00  0.00    +0.000 A 
ATOM     20  C   UNL     1       6.642   5.525  18.185  0.00  0.00    +0.000 A 
BRANCH  15  22
ATOM     21  C   UNL     1       6.688   4.607  14.484  0.00  0.00    +0.000 C 
ATOM     22  O   UNL     1       7.163   5.107  15.765  0.00  0.00    +0.000 OA
ENDBRANCH  15  22
BRANCH  20  23
ATOM     23  O   UNL     1       7.574   6.425  18.652  0.00  0.00    +0.000 OA
ATOM     24  C   UNL     1       7.720   7.583  17.869  0.00  0.00    +0.000 C 
ENDBRANCH  20  23
ENDBRANCH   1  18
BRANCH  13  25
ATOM     25  N   UNL     1       5.020   1.538  19.787  0.00  0.00    +0.000 N 
ATOM     26  H   UNL     1       5.140   0.601  20.144  0.00  0.00    +0.000 HD
ATOM     27  H   UNL     1       5.870   2.013  19.480  0.00  0.00    +0.000 HD
ENDBRANCH  13  25
TORSDOF 4
ENDMDL
MODEL 5
REMARK VINA RESULT:      -6.7      2.199      4.467
REMARK  Name = 
REMARK  6 active torsions:
REMARK  status: ('A' for Active; 'I' for Inactive)
REMARK    1  A    between atoms: C_1  and  O_2
REMARK    2  A    between atoms: O_2  and  C_3
REMARK    3  A    between atoms: C_6  and  C_7
REMARK    4  A    between atoms: C_19  and  N_20
REMARK    5  A    between atoms: C_22  and  O_23
REMARK    6  A    between atoms: O_23  and  C_24
REMARK                            x       y       z     vdW  Elec       q    Type
REMARK                         _______ _______ _______ _____ _____    ______ ____
ROOT
ATOM      1  C   UNL     1       3.482   2.836  19.263  0.00  0.00    +0.000 A 
ATOM      2  C   UNL     1       2.209   3.540  19.608  0.00  0.00    +0.000 A 
ATOM      3  N   UNL     1       1.993   4.484  20.468  0.00  0.00    +0.000 NA
ATOM      4  C   UNL     1       1.805   5.570  19.614  0.00  0.00    +0.000 A 
ATOM      5  C   UNL     1       2.369   6.800  20.034  0.00  0.00    +0.000 A 
ATOM      6  C   UNL     1       2.990   7.670  19.149  0.00  0.00    +0.000 A 
ATOM      7  C   UNL     1       3.032   7.270  17.821  0.00  0.00    +0.000 A 
ATOM      8  C   UNL     1       2.390   6.032  17.374  0.00  0.00    +0.000 A 
ATOM      9  C   UNL     1       1.704   5.135  18.284  0.00  0.00    +0.000 A 
ATOM     10  C   UNL     1       1.315   3.609  18.317  0.00  0.00    +0.000 A 
ATOM     11  N   UNL     1       1.012   2.277  18.375  0.00  0.00    +0.000 NA
ATOM     12  N   UNL     1       1.936   1.276  18.988  0.00  0.00    +0.000 N 
ATOM     13  C   UNL     1       3.287   1.552  18.945  0.00  0.00    +0.000 A 
ATOM     14  H   UNL     1       1.719   0.275  19.005  0.00  0.00    +0.000 HD
ENDROOT
BRANCH   1  18
ATOM     15  C   UNL     1       5.848   5.703  17.300  0.00  0.00    +0.000 A 
ATOM     16  C   UNL     1       5.740   5.597  18.687  0.00  0.00    +0.000 A 
ATOM     17  C   UNL     1       5.076   4.573  19.312  0.00  0.00    +0.000 A 
ATOM     18  C   UNL     1       4.452   3.633  18.538  0.00  0.00    +0.000 A 
ATOM     19  C   UNL     1       4.423   3.754  17.129  0.00  0.00    +0.000 A 
ATOM     20  C   UNL     1       5.127   4.780  16.483  0.00  0.00    +0.000 A 
BRANCH  15  22
ATOM     21  C   UNL     1       7.628   7.343  17.763  0.00  0.00    +0.000 C 
ATOM     22  O   UNL     1       6.643   6.742  16.876  0.00  0.00    +0.000 OA
ENDBRANCH  15  22
BRANCH  20  23
ATOM     23  O   UNL     1       4.943   4.674  15.122  0.00  0.00    +0.000 OA
ATOM     24  C   UNL     1       6.031   4.125  14.422  0.00  0.00    +0.000 C 
ENDBRANCH  20  23
ENDBRANCH   1  18
BRANCH  13  25
ATOM     25  N   UNL     1       4.273   0.756  18.407  0.00  0.00    +0.000 N 
ATOM     26  H   UNL     1       4.051  -0.144  18.006  0.00  0.00    +0.000 HD
ATOM     27  H   UNL     1       5.213   0.854  18.794  0.00  0.00    +0.000 HD
ENDBRANCH  13  25
TORSDOF 4
ENDMDL
MODEL 6
REMARK VINA RESULT:      -6.1      3.204      5.174
REMARK  Name = 
REMARK  6 active torsions:
REMARK  status: ('A' for Active; 'I' for Inactive)
REMARK    1  A    between atoms: C_1  and  O_2
REMARK    2  A    between atoms: O_2  and  C_3
REMARK    3  A    between atoms: C_6  and  C_7
REMARK    4  A    between atoms: C_19  and  N_20
REMARK    5  A    between atoms: C_22  and  O_23
REMARK    6  A    between atoms: O_23  and  C_24
REMARK                            x       y       z     vdW  Elec       q    Type
REMARK                         _______ _______ _______ _____ _____    ______ ____
ROOT
ATOM      1  C   UNL     1       5.087   4.838  15.713  0.00  0.00    +0.000 A 
ATOM      2  C   UNL     1       5.226   6.216  16.277  0.00  0.00    +0.000 A 
ATOM      3  N   UNL     1       4.334   7.144  16.422  0.00  0.00    +0.000 NA
ATOM      4  C   UNL     1       4.153   7.111  17.803  0.00  0.00    +0.000 A 
ATOM      5  C   UNL     1       2.823   7.271  18.263  0.00  0.00    +0.000 A 
ATOM      6  C   UNL     1       2.314   6.536  19.325  0.00  0.00    +0.000 A 
ATOM      7  C   UNL     1       3.181   5.631  19.918  0.00  0.00    +0.000 A 
ATOM      8  C   UNL     1       4.576   5.514  19.489  0.00  0.00    +0.000 A 
ATOM      9  C   UNL     1       5.129   6.304  18.407  0.00  0.00    +0.000 A 
ATOM     10  C   UNL     1       6.331   6.184  17.394  0.00  0.00    +0.000 A 
ATOM     11  N   UNL     1       7.344   6.069  16.483  0.00  0.00    +0.000 NA
ATOM     12  N   UNL     1       7.146   5.422  15.152  0.00  0.00    +0.000 N 
ATOM     13  C   UNL     1       6.184   4.437  15.062  0.00  0.00    +0.000 A 
ATOM     14  H   UNL     1       7.914   5.312  14.482  0.00  0.00    +0.000 HD
ENDROOT
BRANCH   1  18
ATOM     15  C   UNL     1       2.718   2.726  18.471  0.00  0.00    +0.000 A 
ATOM     16  C   UNL     1       2.203   3.508  17.436  0.00  0.00    +0.000 A 
ATOM     17  C   UNL     1       2.985   4.077  16.464  0.00  0.00    +0.000 A 
ATOM     18  C   UNL     1       4.341   3.906  16.536  0.00  0.00    +0.000 A 
ATOM     19  C   UNL     1       4.931   3.227  17.627  0.00  0.00    +0.000 A 
ATOM     20  C   UNL     1       4.135   2.616  18.607  0.00  0.00    +0.000 A 
BRANCH  15  22
ATOM     21  C   UNL     1       0.787   2.986  19.978  0.00  0.00    +0.000 C 
ATOM     22  O   UNL     1       1.760   2.161  19.279  0.00  0.00    +0.000 OA
ENDBRANCH  15  22
BRANCH  20  23
ATOM     23  O   UNL     1       4.946   2.022  19.549  0.00  0.00    +0.000 OA
ATOM     24  C   UNL     1       4.459   2.080  20.866  0.00  0.00    +0.000 C 
ENDBRANCH  20  23
ENDBRANCH   1  18
BRANCH  13  25
ATOM     25  N   UNL     1       6.368   3.144  14.629  0.00  0.00    +0.000 N 
ATOM     26  H   UNL     1       6.679   2.424  15.265  0.00  0.00    +0.000 HD
ATOM     27  H   UNL     1       6.619   3.013  13.648  0.00  0.00    +0.000 HD
ENDBRANCH  13  25
TORSDOF 4
ENDMDL
MODEL 7
REMARK VINA RESULT:      -6.1      9.636     11.745
REMARK  Name = 
REMARK  6 active torsions:
REMARK  status: ('A' for Active; 'I' for Inactive)
REMARK    1  A    between atoms: C_1  and  O_2
REMARK    2  A    between atoms: O_2  and  C_3
REMARK    3  A    between atoms: C_6  and  C_7
REMARK    4  A    between atoms: C_19  and  N_20
REMARK    5  A    between atoms: C_22  and  O_23
REMARK    6  A    between atoms: O_23  and  C_24
REMARK                            x       y       z     vdW  Elec       q    Type
REMARK                         _______ _______ _______ _____ _____    ______ ____
ROOT
ATOM      1  C   UNL     1      10.874  15.157  18.624  0.00  0.00    +0.000 A 
ATOM      2  C   UNL     1      11.801  13.985  18.574  0.00  0.00    +0.000 A 
ATOM      3  N   UNL     1      12.184  13.192  19.525  0.00  0.00    +0.000 NA
ATOM      4  C   UNL     1      11.473  12.039  19.198  0.00  0.00    +0.000 A 
ATOM      5  C   UNL     1      10.928  11.312  20.285  0.00  0.00    +0.000 A 
ATOM      6  C   UNL     1       9.669  10.731  20.231  0.00  0.00    +0.000 A 
ATOM      7  C   UNL     1       8.964  10.901  19.048  0.00  0.00    +0.000 A 
ATOM      8  C   UNL     1       9.553  11.592  17.899  0.00  0.00    +0.000 A 
ATOM      9  C   UNL     1      10.882  12.169  17.932  0.00  0.00    +0.000 A 
ATOM     10  C   UNL     1      11.662  13.304  17.165  0.00  0.00    +0.000 A 
ATOM     11  N   UNL     1      12.333  14.315  16.536  0.00  0.00    +0.000 NA
ATOM     12  N   UNL     1      12.330  15.715  17.054  0.00  0.00    +0.000 N 
ATOM     13  C   UNL     1      11.223  16.124  17.770  0.00  0.00    +0.000 A 
ATOM     14  H   UNL     1      12.811  16.477  16.566  0.00  0.00    +0.000 HD
ENDROOT
BRANCH   1  18
ATOM     15  C   UNL     1       6.710  14.928  19.163  0.00  0.00    +0.000 A 
ATOM     16  C   UNL     1       7.327  15.171  17.935  0.00  0.00    +0.000 A 
ATOM     17  C   UNL     1       8.683  15.105  17.750  0.00  0.00    +0.000 A 
ATOM     18  C   UNL     1       9.476  14.831  18.831  0.00  0.00    +0.000 A 
ATOM     19  C   UNL     1       8.920  14.697  20.124  0.00  0.00    +0.000 A 
ATOM     20  C   UNL     1       7.531  14.730  20.315  0.00  0.00    +0.000 A 
BRANCH  15  22
ATOM     21  C   UNL     1       4.627  15.747  18.135  0.00  0.00    +0.000 C 
ATOM     22  O   UNL     1       5.337  14.938  19.114  0.00  0.00    +0.000 OA
ENDBRANCH  15  22
BRANCH  20  23
ATOM     23  O   UNL     1       7.250  14.572  21.654  0.00  0.00    +0.000 OA
ATOM     24  C   UNL     1       7.898  15.484  22.505  0.00  0.00    +0.000 C 
ENDBRANCH  20  23
ENDBRANCH   1  18
BRANCH  13  25
ATOM     25  N   UNL     1      10.421  17.208  17.495  0.00  0.00    +0.000 N 
ATOM     26  H   UNL     1       9.487  17.083  17.133  0.00  0.00    +0.000 HD
ATOM     27  H   UNL     1      10.888  18.079  17.237  0.00  0.00    +0.000 HD
ENDBRANCH  13  25
TORSDOF 4
ENDMDL
MODEL 8
REMARK VINA RESULT:      -5.9      9.985     12.103
REMARK  Name = 
REMARK  6 active torsions:
REMARK  status: ('A' for Active; 'I' for Inactive)
REMARK    1  A    between atoms: C_1  and  O_2
REMARK    2  A    between atoms: O_2  and  C_3
REMARK    3  A    between atoms: C_6  and  C_7
REMARK    4  A    between atoms: C_19  and  N_20
REMARK    5  A    between atoms: C_22  and  O_23
REMARK    6  A    between atoms: O_23  and  C_24
REMARK                            x       y       z     vdW  Elec       q    Type
REMARK                         _______ _______ _______ _____ _____    ______ ____
ROOT
ATOM      1  C   UNL     1      10.923  15.610  19.469  0.00  0.00    +0.000 A 
ATOM      2  C   UNL     1      11.864  14.605  18.884  0.00  0.00    +0.000 A 
ATOM      3  N   UNL     1      12.332  13.513  19.400  0.00  0.00    +0.000 NA
ATOM      4  C   UNL     1      11.618  12.562  18.673  0.00  0.00    +0.000 A 
ATOM      5  C   UNL     1      11.171  11.429  19.398  0.00  0.00    +0.000 A 
ATOM      6  C   UNL     1       9.921  10.863  19.188  0.00  0.00    +0.000 A 
ATOM      7  C   UNL     1       9.126  11.467  18.226  0.00  0.00    +0.000 A 
ATOM      8  C   UNL     1       9.612  12.594  17.428  0.00  0.00    +0.000 A 
ATOM      9  C   UNL     1      10.931  13.170  17.612  0.00  0.00    +0.000 A 
ATOM     10  C   UNL     1      11.630  14.553  17.331  0.00  0.00    +0.000 A 
ATOM     11  N   UNL     1      12.234  15.764  17.132  0.00  0.00    +0.000 NA
ATOM     12  N   UNL     1      12.246  16.828  18.179  0.00  0.00    +0.000 N 
ATOM     13  C   UNL     1      11.190  16.857  19.067  0.00  0.00    +0.000 A 
ATOM     14  H   UNL     1      12.675  17.744  18.018  0.00  0.00    +0.000 HD
ENDROOT
BRANCH   1  18
ATOM     15  C   UNL     1       6.824  14.976  20.151  0.00  0.00    +0.000 A 
ATOM     16  C   UNL     1       7.330  15.765  19.117  0.00  0.00    +0.000 A 
ATOM     17  C   UNL     1       8.667  15.849  18.825  0.00  0.00    +0.000 A 
ATOM     18  C   UNL     1       9.551  15.163  19.611  0.00  0.00    +0.000 A 
ATOM     19  C   UNL     1       9.109  14.446  20.746  0.00  0.00    +0.000 A 
ATOM     20  C   UNL     1       7.742  14.328  21.033  0.00  0.00    +0.000 A 
BRANCH  15  22
ATOM     21  C   UNL     1       4.642  15.087  19.011  0.00  0.00    +0.000 C 
ATOM     22  O   UNL     1       5.451  14.944  20.213  0.00  0.00    +0.000 OA
ENDBRANCH  15  22
BRANCH  20  23
ATOM     23  O   UNL     1       7.577  13.581  22.179  0.00  0.00    +0.000 OA
ATOM     24  C   UNL     1       8.771  13.114  22.755  0.00  0.00    +0.000 C 
ENDBRANCH  20  23
ENDBRANCH   1  18
BRANCH  13  25
ATOM     25  N   UNL     1      10.350  17.919  19.313  0.00  0.00    +0.000 N 
ATOM     26  H   UNL     1       9.370  17.772  19.503  0.00  0.00    +0.000 HD
ATOM     27  H   UNL     1      10.593  18.813  18.882  0.00  0.00    +0.000 HD
ENDBRANCH  13  25
TORSDOF 4
ENDMDL
MODEL 9
REMARK VINA RESULT:      -5.9      1.656      3.759
REMARK  Name = 
REMARK  6 active torsions:
REMARK  status: ('A' for Active; 'I' for Inactive)
REMARK    1  A    between atoms: C_1  and  O_2
REMARK    2  A    between atoms: O_2  and  C_3
REMARK    3  A    between atoms: C_6  and  C_7
REMARK    4  A    between atoms: C_19  and  N_20
REMARK    5  A    between atoms: C_22  and  O_23
REMARK    6  A    between atoms: O_23  and  C_24
REMARK                            x       y       z     vdW  Elec       q    Type
REMARK                         _______ _______ _______ _____ _____    ______ ____
ROOT
ATOM      1  C   UNL     1       5.562   5.164  17.736  0.00  0.00    +0.000 A 
ATOM      2  C   UNL     1       5.118   3.810  17.282  0.00  0.00    +0.000 A 
ATOM      3  N   UNL     1       4.879   2.742  17.976  0.00  0.00    +0.000 NA
ATOM      4  C   UNL     1       3.488   2.698  17.906  0.00  0.00    +0.000 A 
ATOM      5  C   UNL     1       2.815   2.305  19.089  0.00  0.00    +0.000 A 
ATOM      6  C   UNL     1       1.637   2.908  19.506  0.00  0.00    +0.000 A 
ATOM      7  C   UNL     1       1.148   3.925  18.699  0.00  0.00    +0.000 A 
ATOM      8  C   UNL     1       1.804   4.286  17.441  0.00  0.00    +0.000 A 
ATOM      9  C   UNL     1       3.014   3.636  16.976  0.00  0.00    +0.000 A 
ATOM     10  C   UNL     1       4.209   3.987  16.012  0.00  0.00    +0.000 A 
ATOM     11  N   UNL     1       5.273   4.299  15.212  0.00  0.00    +0.000 NA
ATOM     12  N   UNL     1       6.507   4.949  15.747  0.00  0.00    +0.000 N 
ATOM     13  C   UNL     1       6.366   5.763  16.853  0.00  0.00    +0.000 A 
ATOM     14  H   UNL     1       7.291   5.207  15.141  0.00  0.00    +0.000 HD
ENDROOT
BRANCH   1  18
ATOM     15  C   UNL     1       2.264   6.788  19.777  0.00  0.00    +0.000 A 
ATOM     16  C   UNL     1       3.134   5.844  20.324  0.00  0.00    +0.000 A 
ATOM     17  C   UNL     1       4.281   5.429  19.699  0.00  0.00    +0.000 A 
ATOM     18  C   UNL     1       4.565   5.931  18.458  0.00  0.00    +0.000 A 
ATOM     19  C   UNL     1       3.661   6.797  17.801  0.00  0.00    +0.000 A 
ATOM     20  C   UNL     1       2.503   7.251  18.447  0.00  0.00    +0.000 A 
BRANCH  15  22
ATOM     21  C   UNL     1       1.288   8.370  21.395  0.00  0.00    +0.000 C 
ATOM     22  O   UNL     1       1.229   7.147  20.608  0.00  0.00    +0.000 OA
ENDBRANCH  15  22
BRANCH  20  23
ATOM     23  O   UNL     1       1.802   8.081  17.600  0.00  0.00    +0.000 OA
ATOM     24  C   UNL     1       1.914   9.451  17.891  0.00  0.00    +0.000 C 
ENDBRANCH  20  23
ENDBRANCH   1  18
BRANCH  13  25
ATOM     25  N   UNL     1       6.743   7.083  16.956  0.00  0.00    +0.000 N 
ATOM     26  H   UNL     1       6.349   7.783  16.345  0.00  0.00    +0.000 HD
ATOM     27  H   UNL     1       7.684   7.272  17.306  0.00  0.00    +0.000 HD
ENDBRANCH  13  25
TORSDOF 4
ENDMDL
