MODEL 1
REMARK VINA RESULT:      -8.5      0.000      0.000
REMARK  Name = 
REMARK  6 active torsions:
REMARK  status: ('A' for Active; 'I' for Inactive)
REMARK    1  A    between atoms: C_1  and  C_2
REMARK    2  A    between atoms: C_6  and  C_7
REMARK    3  A    between atoms: C_14  and  C_15
REMARK    4  A    between atoms: C_18  and  S_19
REMARK    5  A    between atoms: S_19  and  C_20
REMARK    6  A    between atoms: C_27  and  C_28
REMARK                            x       y       z     vdW  Elec       q    Type
REMARK                         _______ _______ _______ _____ _____    ______ ____
ROOT
ATOM      1  C   UNL     1       6.613   4.167  14.526  0.00  0.00    +0.000 C 
ATOM      2  C   UNL     1       5.660   4.600  15.595  0.00  0.00    +0.000 A 
ATOM      3  C   UNL     1       5.218   3.565  16.565  0.00  0.00    +0.000 A 
ATOM      4  N   UNL     1       4.398   3.728  17.549  0.00  0.00    +0.000 NA
ATOM      5  N   UNL     1       3.935   5.009  17.661  0.00  0.00    +0.000 N 
ATOM      6  C   UNL     1       3.040   5.465  18.622  0.00  0.00    +0.000 A 
ATOM      7  C   UNL     1       2.926   6.829  18.343  0.00  0.00    +0.000 A 
ATOM      8  N   UNL     1       3.655   7.178  17.226  0.00  0.00    +0.000 NA
ATOM      9  C   UNL     1       4.261   6.075  16.840  0.00  0.00    +0.000 A 
ATOM     10  C   UNL     1       5.162   5.848  15.752  0.00  0.00    +0.000 A 
ATOM     11  C   UNL     1       5.563   6.945  14.797  0.00  0.00    +0.000 C 
ENDROOT
BRANCH   6  12
ATOM     12  C   UNL     1       2.402   4.592  19.627  0.00  0.00    +0.000 A 
ATOM     13  C   UNL     1       1.169   3.969  19.382  0.00  0.00    +0.000 A 
ATOM     14  C   UNL     1       0.577   3.143  20.341  0.00  0.00    +0.000 A 
ATOM     15  C   UNL     1       1.244   2.888  21.529  0.00  0.00    +0.000 A 
ATOM     16  F   UNL     1       0.689   2.073  22.437  0.00  0.00    +0.000 F 
ATOM     17  C   UNL     1       2.476   3.465  21.793  0.00  0.00    +0.000 A 
ATOM     18  C   UNL     1       3.031   4.341  20.859  0.00  0.00    +0.000 A 
ENDBRANCH   6  12
BRANCH   7  19
ATOM     19  C   UNL     1       2.150   7.821  19.083  0.00  0.00    +0.000 A 
ATOM     20  C   UNL     1       1.659   8.978  18.456  0.00  0.00    +0.000 A 
ATOM     21  C   UNL     1       0.997   9.968  19.180  0.00  0.00    +0.000 A 
ATOM     22  C   UNL     1       0.740   9.762  20.530  0.00  0.00    +0.000 A 
ATOM     23  C   UNL     1       1.176   8.602  21.175  0.00  0.00    +0.000 A 
ATOM     24  C   UNL     1       1.886   7.637  20.449  0.00  0.00    +0.000 A 
BRANCH  22  25
ATOM     25  S   UNL     1      -0.174  10.998  21.420  0.00  0.00    +0.000 S 
ATOM     26  C   UNL     1      -0.566  10.170  22.939  0.00  0.00    +0.000 C 
ATOM     27  O   UNL     1       0.740  12.088  21.720  0.00  0.00    +0.000 OA
ATOM     28  O   UNL     1      -1.404  11.236  20.703  0.00  0.00    +0.000 OA
ENDBRANCH  22  25
ENDBRANCH   7  19
TORSDOF 3
ENDMDL
MODEL 2
REMARK VINA RESULT:      -8.4      0.146      1.298
REMARK  Name = 
REMARK  6 active torsions:
REMARK  status: ('A' for Active; 'I' for Inactive)
REMARK    1  A    between atoms: C_1  and  C_2
REMARK    2  A    between atoms: C_6  and  C_7
REMARK    3  A    between atoms: C_14  and  C_15
REMARK    4  A    between atoms: C_18  and  S_19
REMARK    5  A    between atoms: S_19  and  C_20
REMARK    6  A    between atoms: C_27  and  C_28
REMARK                            x       y       z     vdW  Elec       q    Type
REMARK                         _______ _______ _______ _____ _____    ______ ____
ROOT
ATOM      1  C   UNL     1       6.619   4.110  14.414  0.00  0.00    +0.000 C 
ATOM      2  C   UNL     1       5.686   4.537  15.502  0.00  0.00    +0.000 A 
ATOM      3  C   UNL     1       5.256   3.496  16.471  0.00  0.00    +0.000 A 
ATOM      4  N   UNL     1       4.454   3.655  17.470  0.00  0.00    +0.000 NA
ATOM      5  N   UNL     1       3.998   4.936  17.601  0.00  0.00    +0.000 N 
ATOM      6  C   UNL     1       3.121   5.388  18.580  0.00  0.00    +0.000 A 
ATOM      7  C   UNL     1       3.008   6.755  18.315  0.00  0.00    +0.000 A 
ATOM      8  N   UNL     1       3.720   7.110  17.189  0.00  0.00    +0.000 NA
ATOM      9  C   UNL     1       4.315   6.007  16.783  0.00  0.00    +0.000 A 
ATOM     10  C   UNL     1       5.196   5.786  15.678  0.00  0.00    +0.000 A 
ATOM     11  C   UNL     1       5.585   6.890  14.726  0.00  0.00    +0.000 C 
ENDROOT
BRANCH   6  12
ATOM     12  C   UNL     1       2.497   4.509  19.588  0.00  0.00    +0.000 A 
ATOM     13  C   UNL     1       3.100   4.275  20.834  0.00  0.00    +0.000 A 
ATOM     14  C   UNL     1       2.499   3.441  21.779  0.00  0.00    +0.000 A 
ATOM     15  C   UNL     1       1.260   2.882  21.509  0.00  0.00    +0.000 A 
ATOM     16  F   UNL     1       0.670   2.106  22.428  0.00  0.00    +0.000 F 
ATOM     17  C   UNL     1       0.623   3.112  20.300  0.00  0.00    +0.000 A 
ATOM     18  C   UNL     1       1.260   3.893  19.333  0.00  0.00    +0.000 A 
ENDBRANCH   6  12
BRANCH   7  19
ATOM     19  C   UNL     1       2.249   7.744  19.076  0.00  0.00    +0.000 A 
ATOM     20  C   UNL     1       1.931   7.536  20.427  0.00  0.00    +0.000 A 
ATOM     21  C   UNL     1       1.131   8.435  21.129  0.00  0.00    +0.000 A 
ATOM     22  C   UNL     1       0.716   9.605  20.503  0.00  0.00    +0.000 A 
ATOM     23  C   UNL     1       1.052   9.864  19.172  0.00  0.00    +0.000 A 
ATOM     24  C   UNL     1       1.814   8.928  18.460  0.00  0.00    +0.000 A 
BRANCH  22  25
ATOM     25  S   UNL     1      -0.236  10.778  21.436  0.00  0.00    +0.000 S 
ATOM     26  C   UNL     1      -0.682   9.852  22.881  0.00  0.00    +0.000 C 
ATOM     27  O   UNL     1       0.660  11.849  21.841  0.00  0.00    +0.000 OA
ATOM     28  O   UNL     1      -1.439  11.061  20.689  0.00  0.00    +0.000 OA
ENDBRANCH  22  25
ENDBRANCH   7  19
TORSDOF 3
ENDMDL
MODEL 3
REMARK VINA RESULT:      -8.2      0.650      1.302
REMARK  Name = 
REMARK  6 active torsions:
REMARK  status: ('A' for Active; 'I' for Inactive)
REMARK    1  A    between atoms: C_1  and  C_2
REMARK    2  A    between atoms: C_6  and  C_7
REMARK    3  A    between atoms: C_14  and  C_15
REMARK    4  A    between atoms: C_18  and  S_19
REMARK    5  A    between atoms: S_19  and  C_20
REMARK    6  A    between atoms: C_27  and  C_28
REMARK                            x       y       z     vdW  Elec       q    Type
REMARK                         _______ _______ _______ _____ _____    ______ ____
ROOT
ATOM      1  C   UNL     1       6.640   4.222  14.427  0.00  0.00    +0.000 C 
ATOM      2  C   UNL     1       5.693   4.640  15.507  0.00  0.00    +0.000 A 
ATOM      3  C   UNL     1       5.266   3.595  16.473  0.00  0.00    +0.000 A 
ATOM      4  N   UNL     1       4.454   3.744  17.465  0.00  0.00    +0.000 NA
ATOM      5  N   UNL     1       3.983   5.021  17.591  0.00  0.00    +0.000 N 
ATOM      6  C   UNL     1       3.093   5.464  18.563  0.00  0.00    +0.000 A 
ATOM      7  C   UNL     1       2.968   6.829  18.296  0.00  0.00    +0.000 A 
ATOM      8  N   UNL     1       3.685   7.192  17.176  0.00  0.00    +0.000 NA
ATOM      9  C   UNL     1       4.295   6.095  16.776  0.00  0.00    +0.000 A 
ATOM     10  C   UNL     1       5.188   5.883  15.678  0.00  0.00    +0.000 A 
ATOM     11  C   UNL     1       5.573   6.991  14.729  0.00  0.00    +0.000 C 
ENDROOT
BRANCH   6  12
ATOM     12  C   UNL     1       2.470   4.578  19.566  0.00  0.00    +0.000 A 
ATOM     13  C   UNL     1       3.035   4.396  20.838  0.00  0.00    +0.000 A 
ATOM     14  C   UNL     1       2.435   3.556  21.778  0.00  0.00    +0.000 A 
ATOM     15  C   UNL     1       1.233   2.937  21.475  0.00  0.00    +0.000 A 
ATOM     16  F   UNL     1       0.643   2.154  22.387  0.00  0.00    +0.000 F 
ATOM     17  C   UNL     1       0.633   3.116  20.238  0.00  0.00    +0.000 A 
ATOM     18  C   UNL     1       1.271   3.904  19.279  0.00  0.00    +0.000 A 
ENDBRANCH   6  12
BRANCH   7  19
ATOM     19  C   UNL     1       2.191   7.811  19.050  0.00  0.00    +0.000 A 
ATOM     20  C   UNL     1       1.682   8.965  18.434  0.00  0.00    +0.000 A 
ATOM     21  C   UNL     1       1.020   9.945  19.171  0.00  0.00    +0.000 A 
ATOM     22  C   UNL     1       0.781   9.730  20.524  0.00  0.00    +0.000 A 
ATOM     23  C   UNL     1       1.236   8.572  21.158  0.00  0.00    +0.000 A 
ATOM     24  C   UNL     1       1.945   7.617  20.418  0.00  0.00    +0.000 A 
BRANCH  22  25
ATOM     25  S   UNL     1      -0.134  10.953  21.431  0.00  0.00    +0.000 S 
ATOM     26  C   UNL     1       0.738  12.449  21.050  0.00  0.00    +0.000 C 
ATOM     27  O   UNL     1      -1.460  11.037  20.840  0.00  0.00    +0.000 OA
ATOM     28  O   UNL     1       0.035  10.675  22.837  0.00  0.00    +0.000 OA
ENDBRANCH  22  25
ENDBRANCH   7  19
TORSDOF 3
ENDMDL
MODEL 4
REMARK VINA RESULT:      -7.5      4.191      6.242
REMARK  Name = 
REMARK  6 active torsions:
REMARK  status: ('A' for Active; 'I' for Inactive)
REMARK    1  A    between atoms: C_1  and  C_2
REMARK    2  A    between atoms: C_6  and  C_7
REMARK    3  A    between atoms: C_14  and  C_15
REMARK    4  A    between atoms: C_18  and  S_19
REMARK    5  A    between atoms: S_19  and  C_20
REMARK    6  A    between atoms: C_27  and  C_28
REMARK                            x       y       z     vdW  Elec       q    Type
REMARK                         _______ _______ _______ _____ _____    ______ ____
ROOT
ATOM      1  C   UNL     1       7.724   3.905  10.598  0.00  0.00    +0.000 C 
ATOM      2  C   UNL     1       7.269   4.181  11.996  0.00  0.00    +0.000 A 
ATOM      3  C   UNL     1       8.050   5.175  12.777  0.00  0.00    +0.000 A 
ATOM      4  N   UNL     1       7.831   5.546  13.994  0.00  0.00    +0.000 NA
ATOM      5  N   UNL     1       6.749   4.933  14.561  0.00  0.00    +0.000 N 
ATOM      6  C   UNL     1       6.288   5.138  15.856  0.00  0.00    +0.000 A 
ATOM      7  C   UNL     1       5.151   4.330  15.932  0.00  0.00    +0.000 A 
ATOM      8  N   UNL     1       4.964   3.612  14.771  0.00  0.00    +0.000 NA
ATOM      9  C   UNL     1       5.926   3.997  13.958  0.00  0.00    +0.000 A 
ATOM     10  C   UNL     1       6.213   3.602  12.612  0.00  0.00    +0.000 A 
ATOM     11  C   UNL     1       5.381   2.578  11.881  0.00  0.00    +0.000 C 
ENDROOT
BRANCH   6  12
ATOM     12  C   UNL     1       6.964   6.011  16.836  0.00  0.00    +0.000 A 
ATOM     13  C   UNL     1       7.537   5.495  18.008  0.00  0.00    +0.000 A 
ATOM     14  C   UNL     1       8.175   6.331  18.927  0.00  0.00    +0.000 A 
ATOM     15  C   UNL     1       8.296   7.685  18.651  0.00  0.00    +0.000 A 
ATOM     16  F   UNL     1       8.933   8.482  19.518  0.00  0.00    +0.000 F 
ATOM     17  C   UNL     1       7.765   8.224  17.490  0.00  0.00    +0.000 A 
ATOM     18  C   UNL     1       7.072   7.394  16.608  0.00  0.00    +0.000 A 
ENDBRANCH   6  12
BRANCH   7  19
ATOM     19  C   UNL     1       4.233   4.200  17.061  0.00  0.00    +0.000 A 
ATOM     20  C   UNL     1       3.484   5.295  17.520  0.00  0.00    +0.000 A 
ATOM     21  C   UNL     1       2.677   5.196  18.652  0.00  0.00    +0.000 A 
ATOM     22  C   UNL     1       2.541   3.963  19.281  0.00  0.00    +0.000 A 
ATOM     23  C   UNL     1       3.238   2.843  18.823  0.00  0.00    +0.000 A 
ATOM     24  C   UNL     1       4.087   2.967  17.715  0.00  0.00    +0.000 A 
BRANCH  22  25
ATOM     25  S   UNL     1       1.447   3.835  20.674  0.00  0.00    +0.000 S 
ATOM     26  C   UNL     1       2.359   2.802  21.789  0.00  0.00    +0.000 C 
ATOM     27  O   UNL     1       1.336   5.158  21.268  0.00  0.00    +0.000 OA
ATOM     28  O   UNL     1       0.272   3.114  20.245  0.00  0.00    +0.000 OA
ENDBRANCH  22  25
ENDBRANCH   7  19
TORSDOF 3
ENDMDL
MODEL 5
REMARK VINA RESULT:      -7.2      4.160      6.879
REMARK  Name = 
REMARK  6 active torsions:
REMARK  status: ('A' for Active; 'I' for Inactive)
REMARK    1  A    between atoms: C_1  and  C_2
REMARK    2  A    between atoms: C_6  and  C_7
REMARK    3  A    between atoms: C_14  and  C_15
REMARK    4  A    between atoms: C_18  and  S_19
REMARK    5  A    between atoms: S_19  and  C_20
REMARK    6  A    between atoms: C_27  and  C_28
REMARK                            x       y       z     vdW  Elec       q    Type
REMARK                         _______ _______ _______ _____ _____    ______ ____
ROOT
ATOM      1  C   UNL     1      -1.043  11.171  21.571  0.00  0.00    +0.000 C 
ATOM      2  C   UNL     1      -0.221  10.021  21.080  0.00  0.00    +0.000 A 
ATOM      3  C   UNL     1      -0.564   8.674  21.602  0.00  0.00    +0.000 A 
ATOM      4  N   UNL     1       0.023   7.561  21.314  0.00  0.00    +0.000 NA
ATOM      5  N   UNL     1       1.049   7.705  20.423  0.00  0.00    +0.000 N 
ATOM      6  C   UNL     1       1.855   6.679  19.943  0.00  0.00    +0.000 A 
ATOM      7  C   UNL     1       2.705   7.324  19.040  0.00  0.00    +0.000 A 
ATOM      8  N   UNL     1       2.481   8.684  19.021  0.00  0.00    +0.000 NA
ATOM      9  C   UNL     1       1.478   8.890  19.849  0.00  0.00    +0.000 A 
ATOM     10  C   UNL     1       0.809  10.103  20.206  0.00  0.00    +0.000 A 
ATOM     11  C   UNL     1       1.216  11.442  19.643  0.00  0.00    +0.000 C 
ENDROOT
BRANCH   6  12
ATOM     12  C   UNL     1       1.752   5.278  20.395  0.00  0.00    +0.000 A 
ATOM     13  C   UNL     1       1.012   4.326  19.677  0.00  0.00    +0.000 A 
ATOM     14  C   UNL     1       0.923   3.003  20.115  0.00  0.00    +0.000 A 
ATOM     15  C   UNL     1       1.623   2.608  21.245  0.00  0.00    +0.000 A 
ATOM     16  F   UNL     1       1.561   1.332  21.649  0.00  0.00    +0.000 F 
ATOM     17  C   UNL     1       2.386   3.515  21.963  0.00  0.00    +0.000 A 
ATOM     18  C   UNL     1       2.417   4.850  21.557  0.00  0.00    +0.000 A 
ENDBRANCH   6  12
BRANCH   7  19
ATOM     19  C   UNL     1       3.728   6.711  18.196  0.00  0.00    +0.000 A 
ATOM     20  C   UNL     1       4.490   5.623  18.650  0.00  0.00    +0.000 A 
ATOM     21  C   UNL     1       5.527   5.096  17.882  0.00  0.00    +0.000 A 
ATOM     22  C   UNL     1       5.748   5.600  16.605  0.00  0.00    +0.000 A 
ATOM     23  C   UNL     1       4.978   6.654  16.106  0.00  0.00    +0.000 A 
ATOM     24  C   UNL     1       3.972   7.210  16.908  0.00  0.00    +0.000 A 
BRANCH  22  25
ATOM     25  S   UNL     1       7.021   4.865  15.608  0.00  0.00    +0.000 S 
ATOM     26  C   UNL     1       6.105   3.769  14.558  0.00  0.00    +0.000 C 
ATOM     27  O   UNL     1       7.592   5.915  14.781  0.00  0.00    +0.000 OA
ATOM     28  O   UNL     1       7.854   4.069  16.477  0.00  0.00    +0.000 OA
ENDBRANCH  22  25
ENDBRANCH   7  19
TORSDOF 3
ENDMDL
MODEL 6
REMARK VINA RESULT:      -7.2      4.210      6.937
REMARK  Name = 
REMARK  6 active torsions:
REMARK  status: ('A' for Active; 'I' for Inactive)
REMARK    1  A    between atoms: C_1  and  C_2
REMARK    2  A    between atoms: C_6  and  C_7
REMARK    3  A    between atoms: C_14  and  C_15
REMARK    4  A    between atoms: C_18  and  S_19
REMARK    5  A    between atoms: S_19  and  C_20
REMARK    6  A    between atoms: C_27  and  C_28
REMARK                            x       y       z     vdW  Elec       q    Type
REMARK                         _______ _______ _______ _____ _____    ______ ____
ROOT
ATOM      1  C   UNL     1      -0.964  11.410  21.148  0.00  0.00    +0.000 C 
ATOM      2  C   UNL     1      -0.150  10.238  20.699  0.00  0.00    +0.000 A 
ATOM      3  C   UNL     1      -0.453   8.925  21.326  0.00  0.00    +0.000 A 
ATOM      4  N   UNL     1       0.136   7.801  21.088  0.00  0.00    +0.000 NA
ATOM      5  N   UNL     1       1.120   7.894  20.145  0.00  0.00    +0.000 N 
ATOM      6  C   UNL     1       1.917   6.846  19.699  0.00  0.00    +0.000 A 
ATOM      7  C   UNL     1       2.718   7.436  18.718  0.00  0.00    +0.000 A 
ATOM      8  N   UNL     1       2.477   8.790  18.617  0.00  0.00    +0.000 NA
ATOM      9  C   UNL     1       1.508   9.042  19.473  0.00  0.00    +0.000 A 
ATOM     10  C   UNL     1       0.840  10.270  19.778  0.00  0.00    +0.000 A 
ATOM     11  C   UNL     1       1.205  11.571  19.108  0.00  0.00    +0.000 C 
ENDROOT
BRANCH   6  12
ATOM     12  C   UNL     1       1.851   5.478  20.249  0.00  0.00    +0.000 A 
ATOM     13  C   UNL     1       2.681   5.070  21.304  0.00  0.00    +0.000 A 
ATOM     14  C   UNL     1       2.608   3.772  21.817  0.00  0.00    +0.000 A 
ATOM     15  C   UNL     1       1.663   2.891  21.316  0.00  0.00    +0.000 A 
ATOM     16  F   UNL     1       1.574   1.656  21.826  0.00  0.00    +0.000 F 
ATOM     17  C   UNL     1       0.810   3.269  20.291  0.00  0.00    +0.000 A 
ATOM     18  C   UNL     1       0.932   4.545  19.738  0.00  0.00    +0.000 A 
ENDBRANCH   6  12
BRANCH   7  19
ATOM     19  C   UNL     1       3.710   6.778  17.872  0.00  0.00    +0.000 A 
ATOM     20  C   UNL     1       3.587   5.423  17.525  0.00  0.00    +0.000 A 
ATOM     21  C   UNL     1       4.579   4.771  16.795  0.00  0.00    +0.000 A 
ATOM     22  C   UNL     1       5.665   5.500  16.325  0.00  0.00    +0.000 A 
ATOM     23  C   UNL     1       5.796   6.860  16.615  0.00  0.00    +0.000 A 
ATOM     24  C   UNL     1       4.818   7.494  17.394  0.00  0.00    +0.000 A 
BRANCH  22  25
ATOM     25  S   UNL     1       6.880   4.672  15.328  0.00  0.00    +0.000 S 
ATOM     26  C   UNL     1       5.882   3.705  14.226  0.00  0.00    +0.000 C 
ATOM     27  O   UNL     1       7.570   5.684  14.546  0.00  0.00    +0.000 OA
ATOM     28  O   UNL     1       7.611   3.771  16.186  0.00  0.00    +0.000 OA
ENDBRANCH  22  25
ENDBRANCH   7  19
TORSDOF 3
ENDMDL
MODEL 7
REMARK VINA RESULT:      -7.0      4.272      6.277
REMARK  Name = 
REMARK  6 active torsions:
REMARK  status: ('A' for Active; 'I' for Inactive)
REMARK    1  A    between atoms: C_1  and  C_2
REMARK    2  A    between atoms: C_6  and  C_7
REMARK    3  A    between atoms: C_14  and  C_15
REMARK    4  A    between atoms: C_18  and  S_19
REMARK    5  A    between atoms: S_19  and  C_20
REMARK    6  A    between atoms: C_27  and  C_28
REMARK                            x       y       z     vdW  Elec       q    Type
REMARK                         _______ _______ _______ _____ _____    ______ ____
ROOT
ATOM      1  C   UNL     1       7.544   3.884  10.606  0.00  0.00    +0.000 C 
ATOM      2  C   UNL     1       7.150   4.172  12.020  0.00  0.00    +0.000 A 
ATOM      3  C   UNL     1       7.961   5.174  12.757  0.00  0.00    +0.000 A 
ATOM      4  N   UNL     1       7.795   5.555  13.979  0.00  0.00    +0.000 NA
ATOM      5  N   UNL     1       6.740   4.946  14.598  0.00  0.00    +0.000 N 
ATOM      6  C   UNL     1       6.335   5.162  15.910  0.00  0.00    +0.000 A 
ATOM      7  C   UNL     1       5.204   4.353  16.042  0.00  0.00    +0.000 A 
ATOM      8  N   UNL     1       4.969   3.624  14.896  0.00  0.00    +0.000 NA
ATOM      9  C   UNL     1       5.894   4.003  14.039  0.00  0.00    +0.000 A 
ATOM     10  C   UNL     1       6.122   3.597  12.686  0.00  0.00    +0.000 A 
ATOM     11  C   UNL     1       5.261   2.565  12.000  0.00  0.00    +0.000 C 
ENDROOT
BRANCH   6  12
ATOM     12  C   UNL     1       7.051   6.045  16.852  0.00  0.00    +0.000 A 
ATOM     13  C   UNL     1       7.171   7.424  16.620  0.00  0.00    +0.000 A 
ATOM     14  C   UNL     1       7.850   8.249  17.519  0.00  0.00    +0.000 A 
ATOM     15  C   UNL     1       8.364   7.709  18.689  0.00  0.00    +0.000 A 
ATOM     16  F   UNL     1       8.990   8.505  19.565  0.00  0.00    +0.000 F 
ATOM     17  C   UNL     1       8.241   6.356  18.962  0.00  0.00    +0.000 A 
ATOM     18  C   UNL     1       7.619   5.526  18.028  0.00  0.00    +0.000 A 
ENDBRANCH   6  12
BRANCH   7  19
ATOM     19  C   UNL     1       4.335   4.232  17.211  0.00  0.00    +0.000 A 
ATOM     20  C   UNL     1       4.130   2.994  17.840  0.00  0.00    +0.000 A 
ATOM     21  C   UNL     1       3.232   2.860  18.897  0.00  0.00    +0.000 A 
ATOM     22  C   UNL     1       2.598   3.993  19.395  0.00  0.00    +0.000 A 
ATOM     23  C   UNL     1       2.814   5.247  18.820  0.00  0.00    +0.000 A 
ATOM     24  C   UNL     1       3.680   5.361  17.724  0.00  0.00    +0.000 A 
BRANCH  22  25
ATOM     25  S   UNL     1       1.518   3.817  20.794  0.00  0.00    +0.000 S 
ATOM     26  C   UNL     1       0.966   5.480  21.068  0.00  0.00    +0.000 C 
ATOM     27  O   UNL     1       0.375   3.024  20.369  0.00  0.00    +0.000 OA
ATOM     28  O   UNL     1       2.322   3.414  21.923  0.00  0.00    +0.000 OA
ENDBRANCH  22  25
ENDBRANCH   7  19
TORSDOF 3
ENDMDL
MODEL 8
REMARK VINA RESULT:      -6.9      5.206      8.499
REMARK  Name = 
REMARK  6 active torsions:
REMARK  status: ('A' for Active; 'I' for Inactive)
REMARK    1  A    between atoms: C_1  and  C_2
REMARK    2  A    between atoms: C_6  and  C_7
REMARK    3  A    between atoms: C_14  and  C_15
REMARK    4  A    between atoms: C_18  and  S_19
REMARK    5  A    between atoms: S_19  and  C_20
REMARK    6  A    between atoms: C_27  and  C_28
REMARK                            x       y       z     vdW  Elec       q    Type
REMARK                         _______ _______ _______ _____ _____    ______ ____
ROOT
ATOM      1  C   UNL     1       1.716  17.514  19.021  0.00  0.00    +0.000 C 
ATOM      2  C   UNL     1       1.358  16.063  18.963  0.00  0.00    +0.000 A 
ATOM      3  C   UNL     1      -0.049  15.727  18.625  0.00  0.00    +0.000 A 
ATOM      4  N   UNL     1      -0.561  14.545  18.534  0.00  0.00    +0.000 NA
ATOM      5  N   UNL     1       0.339  13.545  18.773  0.00  0.00    +0.000 N 
ATOM      6  C   UNL     1       0.062  12.183  18.747  0.00  0.00    +0.000 A 
ATOM      7  C   UNL     1       1.302  11.591  19.003  0.00  0.00    +0.000 A 
ATOM      8  N   UNL     1       2.273  12.540  19.245  0.00  0.00    +0.000 NA
ATOM      9  C   UNL     1       1.677  13.704  19.090  0.00  0.00    +0.000 A 
ATOM     10  C   UNL     1       2.201  15.031  19.196  0.00  0.00    +0.000 A 
ATOM     11  C   UNL     1       3.643  15.301  19.553  0.00  0.00    +0.000 C 
ENDROOT
BRANCH   6  12
ATOM     12  C   UNL     1      -1.286  11.626  18.524  0.00  0.00    +0.000 A 
ATOM     13  C   UNL     1      -2.424  12.201  19.110  0.00  0.00    +0.000 A 
ATOM     14  C   UNL     1      -3.695  11.665  18.890  0.00  0.00    +0.000 A 
ATOM     15  C   UNL     1      -3.844  10.585  18.033  0.00  0.00    +0.000 A 
ATOM     16  F   UNL     1      -5.066  10.089  17.800  0.00  0.00    +0.000 F 
ATOM     17  C   UNL     1      -2.744  10.010  17.417  0.00  0.00    +0.000 A 
ATOM     18  C   UNL     1      -1.470  10.508  17.693  0.00  0.00    +0.000 A 
ENDBRANCH   6  12
BRANCH   7  19
ATOM     19  C   UNL     1       1.610  10.164  19.037  0.00  0.00    +0.000 A 
ATOM     20  C   UNL     1       2.188   9.517  17.933  0.00  0.00    +0.000 A 
ATOM     21  C   UNL     1       2.399   8.140  17.931  0.00  0.00    +0.000 A 
ATOM     22  C   UNL     1       2.116   7.408  19.079  0.00  0.00    +0.000 A 
ATOM     23  C   UNL     1       1.580   8.029  20.210  0.00  0.00    +0.000 A 
ATOM     24  C   UNL     1       1.324   9.406  20.183  0.00  0.00    +0.000 A 
BRANCH  22  25
ATOM     25  S   UNL     1       2.464   5.667  19.086  0.00  0.00    +0.000 S 
ATOM     26  C   UNL     1       1.653   5.117  20.563  0.00  0.00    +0.000 C 
ATOM     27  O   UNL     1       1.781   5.078  17.946  0.00  0.00    +0.000 OA
ATOM     28  O   UNL     1       3.888   5.505  19.264  0.00  0.00    +0.000 OA
ENDBRANCH  22  25
ENDBRANCH   7  19
TORSDOF 3
ENDMDL
MODEL 9
REMARK VINA RESULT:      -6.8      5.513      8.168
REMARK  Name = 
REMARK  6 active torsions:
REMARK  status: ('A' for Active; 'I' for Inactive)
REMARK    1  A    between atoms: C_1  and  C_2
REMARK    2  A    between atoms: C_6  and  C_7
REMARK    3  A    between atoms: C_14  and  C_15
REMARK    4  A    between atoms: C_18  and  S_19
REMARK    5  A    between atoms: S_19  and  C_20
REMARK    6  A    between atoms: C_27  and  C_28
REMARK                            x       y       z     vdW  Elec       q    Type
REMARK                         _______ _______ _______ _____ _____    ______ ____
ROOT
ATOM      1  C   UNL     1       3.967  16.740  18.918  0.00  0.00    +0.000 C 
ATOM      2  C   UNL     1       2.944  15.660  19.078  0.00  0.00    +0.000 A 
ATOM      3  C   UNL     1       3.415  14.358  19.617  0.00  0.00    +0.000 A 
ATOM      4  N   UNL     1       2.700  13.303  19.821  0.00  0.00    +0.000 NA
ATOM      5  N   UNL     1       1.383  13.470  19.499  0.00  0.00    +0.000 N 
ATOM      6  C   UNL     1       0.392  12.502  19.612  0.00  0.00    +0.000 A 
ATOM      7  C   UNL     1      -0.768  13.170  19.211  0.00  0.00    +0.000 A 
ATOM      8  N   UNL     1      -0.492  14.458  18.805  0.00  0.00    +0.000 NA
ATOM      9  C   UNL     1       0.800  14.621  18.996  0.00  0.00    +0.000 A 
ATOM     10  C   UNL     1       1.631  15.764  18.770  0.00  0.00    +0.000 A 
ATOM     11  C   UNL     1       1.087  17.055  18.210  0.00  0.00    +0.000 C 
ENDROOT
BRANCH   6  12
ATOM     12  C   UNL     1       0.651  11.112  20.038  0.00  0.00    +0.000 A 
ATOM     13  C   UNL     1       0.430  10.696  21.360  0.00  0.00    +0.000 A 
ATOM     14  C   UNL     1       0.678   9.378  21.750  0.00  0.00    +0.000 A 
ATOM     15  C   UNL     1       1.093   8.451  20.806  0.00  0.00    +0.000 A 
ATOM     16  F   UNL     1       1.303   7.181  21.174  0.00  0.00    +0.000 F 
ATOM     17  C   UNL     1       1.295   8.822  19.486  0.00  0.00    +0.000 A 
ATOM     18  C   UNL     1       1.109  10.155  19.117  0.00  0.00    +0.000 A 
ENDBRANCH   6  12
BRANCH   7  19
ATOM     19  C   UNL     1      -2.130  12.642  19.189  0.00  0.00    +0.000 A 
ATOM     20  C   UNL     1      -2.551  11.756  18.184  0.00  0.00    +0.000 A 
ATOM     21  C   UNL     1      -3.873  11.324  18.109  0.00  0.00    +0.000 A 
ATOM     22  C   UNL     1      -4.769  11.705  19.102  0.00  0.00    +0.000 A 
ATOM     23  C   UNL     1      -4.371  12.550  20.140  0.00  0.00    +0.000 A 
ATOM     24  C   UNL     1      -3.051  13.021  20.177  0.00  0.00    +0.000 A 
BRANCH  22  25
ATOM     25  S   UNL     1      -6.430  11.081  19.036  0.00  0.00    +0.000 S 
ATOM     26  C   UNL     1      -7.094  11.581  20.602  0.00  0.00    +0.000 C 
ATOM     27  O   UNL     1      -7.131  11.810  17.991  0.00  0.00    +0.000 OA
ATOM     28  O   UNL     1      -6.357   9.639  19.013  0.00  0.00    +0.000 OA
ENDBRANCH  22  25
ENDBRANCH   7  19
TORSDOF 3
ENDMDL
