MODEL 1
REMARK VINA RESULT:      -7.7      0.000      0.000
REMARK  Name = 
REMARK  9 active torsions:
REMARK  status: ('A' for Active; 'I' for Inactive)
REMARK    1  A    between atoms: C_2  and  C_4
REMARK    2  A    between atoms: C_4  and  C_5
REMARK    3  A    between atoms: C_4  and  N_12
REMARK    4  A    between atoms: C_5  and  C_6
REMARK    5  A    between atoms: C_13  and  C_15
REMARK    6  A    between atoms: C_15  and  C_16
REMARK    7  A    between atoms: C_15  and  N_18
REMARK    8  A    between atoms: C_16  and  S_17
REMARK    9  A    between atoms: N_21  and  C_22
REMARK                            x       y       z     vdW  Elec       q    Type
REMARK                         _______ _______ _______ _____ _____    ______ ____
ROOT
ATOM      1  N   UNL     1       5.080   4.969  17.689  0.00  0.00    +0.000 N 
ATOM      2  C   UNL     1       4.049   4.068  17.857  0.00  0.00    +0.000 C 
ATOM      3  O   UNL     1       4.100   2.914  17.437  0.00  0.00    +0.000 OA
ATOM      4  H   UNL     1       4.956   5.919  18.013  0.00  0.00    +0.000 HD
ENDROOT
BRANCH   1   5
ATOM      5  C   UNL     1       6.303   4.719  16.918  0.00  0.00    +0.000 C 
BRANCH   5   7
ATOM      6  N   UNL     1       7.542   6.032  18.602  0.00  0.00    +0.000 N 
ATOM      7  C   UNL     1       7.550   4.918  17.808  0.00  0.00    +0.000 C 
ATOM      8  O   UNL     1       8.473   4.114  17.895  0.00  0.00    +0.000 OA
ATOM      9  H   UNL     1       8.281   6.129  19.286  0.00  0.00    +0.000 HD
ATOM     10  H   UNL     1       6.699   6.593  18.703  0.00  0.00    +0.000 HD
ENDBRANCH   5   7
BRANCH   5  11
ATOM     11  C   UNL     1       6.389   5.675  15.710  0.00  0.00    +0.000 C 
BRANCH  11  12
ATOM     12  C   UNL     1       6.481   4.961  14.378  0.00  0.00    +0.000 A 
ATOM     13  C   UNL     1       7.554   5.210  13.507  0.00  0.00    +0.000 A 
ATOM     14  C   UNL     1       7.631   4.557  12.275  0.00  0.00    +0.000 A 
ATOM     15  C   UNL     1       6.643   3.646  11.905  0.00  0.00    +0.000 A 
ATOM     16  C   UNL     1       5.582   3.384  12.767  0.00  0.00    +0.000 A 
ATOM     17  C   UNL     1       5.501   4.035  13.999  0.00  0.00    +0.000 A 
ENDBRANCH  11  12
ENDBRANCH   5  11
ENDBRANCH   1   5
BRANCH   2  18
ATOM     18  C   UNL     1       2.859   4.638  18.661  0.00  0.00    +0.000 C 
BRANCH  18  19
ATOM     19  N   UNL     1       2.784   6.104  18.673  0.00  0.00    +0.000 N 
ATOM     20  C   UNL     1       2.059   6.696  19.679  0.00  0.00    +0.000 C 
ATOM     21  O   UNL     1       1.612   6.008  20.594  0.00  0.00    +0.000 OA
ATOM     22  N   UNL     1       1.892   8.054  19.539  0.00  0.00    +0.000 N 
ATOM     23  H   UNL     1       2.994   6.598  17.817  0.00  0.00    +0.000 HD
ATOM     24  H   UNL     1       2.221   8.474  18.685  0.00  0.00    +0.000 HD
BRANCH  22  25
ATOM     25  C   UNL     1       1.156   8.884  20.426  0.00  0.00    +0.000 A 
ATOM     26  C   UNL     1       0.444  10.013  20.005  0.00  0.00    +0.000 A 
ATOM     27  C   UNL     1      -0.218  10.839  20.918  0.00  0.00    +0.000 A 
ATOM     28  C   UNL     1      -0.189  10.539  22.273  0.00  0.00    +0.000 A 
ATOM     29  C   UNL     1       0.484   9.398  22.707  0.00  0.00    +0.000 A 
ATOM     30  C   UNL     1       1.150   8.572  21.791  0.00  0.00    +0.000 A 
ENDBRANCH  22  25
ENDBRANCH  18  19
BRANCH  18  31
ATOM     31  C   UNL     1       1.531   3.982  18.213  0.00  0.00    +0.000 C 
BRANCH  31  32
ATOM     32  S   UNL     1       0.988   2.609  19.290  0.00  0.00    +0.000 S 
ATOM     33  H   UNL     1       2.032   2.648  20.132  0.00  0.00    +0.000 HD
ENDBRANCH  31  32
ENDBRANCH  18  31
ENDBRANCH   2  18
TORSDOF 9
ENDMDL
MODEL 2
REMARK VINA RESULT:      -7.7      1.943      2.329
REMARK  Name = 
REMARK  9 active torsions:
REMARK  status: ('A' for Active; 'I' for Inactive)
REMARK    1  A    between atoms: C_2  and  C_4
REMARK    2  A    between atoms: C_4  and  C_5
REMARK    3  A    between atoms: C_4  and  N_12
REMARK    4  A    between atoms: C_5  and  C_6
REMARK    5  A    between atoms: C_13  and  C_15
REMARK    6  A    between atoms: C_15  and  C_16
REMARK    7  A    between atoms: C_15  and  N_18
REMARK    8  A    between atoms: C_16  and  S_17
REMARK    9  A    between atoms: N_21  and  C_22
REMARK                            x       y       z     vdW  Elec       q    Type
REMARK                         _______ _______ _______ _____ _____    ______ ____
ROOT
ATOM      1  N   UNL     1       5.300   5.695  18.415  0.00  0.00    +0.000 N 
ATOM      2  C   UNL     1       4.363   4.832  18.943  0.00  0.00    +0.000 C 
ATOM      3  O   UNL     1       4.638   3.685  19.290  0.00  0.00    +0.000 OA
ATOM      4  H   UNL     1       5.000   6.609  18.101  0.00  0.00    +0.000 HD
ENDROOT
BRANCH   1   5
ATOM      5  C   UNL     1       6.690   5.346  18.104  0.00  0.00    +0.000 C 
BRANCH   5   7
ATOM      6  N   UNL     1       8.365   6.933  18.980  0.00  0.00    +0.000 N 
ATOM      7  C   UNL     1       7.629   5.810  19.238  0.00  0.00    +0.000 C 
ATOM      8  O   UNL     1       7.681   5.289  20.349  0.00  0.00    +0.000 OA
ATOM      9  H   UNL     1       8.896   7.336  19.741  0.00  0.00    +0.000 HD
ATOM     10  H   UNL     1       8.179   7.498  18.155  0.00  0.00    +0.000 HD
ENDBRANCH   5   7
BRANCH   5  11
ATOM     11  C   UNL     1       7.134   6.007  16.782  0.00  0.00    +0.000 C 
BRANCH  11  12
ATOM     12  C   UNL     1       6.744   5.219  15.549  0.00  0.00    +0.000 A 
ATOM     13  C   UNL     1       5.631   4.365  15.571  0.00  0.00    +0.000 A 
ATOM     14  C   UNL     1       5.279   3.632  14.436  0.00  0.00    +0.000 A 
ATOM     15  C   UNL     1       6.030   3.751  13.267  0.00  0.00    +0.000 A 
ATOM     16  C   UNL     1       7.129   4.605  13.232  0.00  0.00    +0.000 A 
ATOM     17  C   UNL     1       7.484   5.339  14.366  0.00  0.00    +0.000 A 
ENDBRANCH  11  12
ENDBRANCH   5  11
ENDBRANCH   1   5
BRANCH   2  18
ATOM     18  C   UNL     1       2.961   5.465  19.098  0.00  0.00    +0.000 C 
BRANCH  18  19
ATOM     19  N   UNL     1       2.706   6.596  18.198  0.00  0.00    +0.000 N 
ATOM     20  C   UNL     1       2.170   7.737  18.746  0.00  0.00    +0.000 C 
ATOM     21  O   UNL     1       2.044   7.825  19.965  0.00  0.00    +0.000 OA
ATOM     22  N   UNL     1       1.804   8.693  17.829  0.00  0.00    +0.000 N 
ATOM     23  H   UNL     1       2.643   6.411  17.207  0.00  0.00    +0.000 HD
ATOM     24  H   UNL     1       1.865   8.445  16.854  0.00  0.00    +0.000 HD
BRANCH  22  25
ATOM     25  C   UNL     1       1.200   9.939  18.142  0.00  0.00    +0.000 A 
ATOM     26  C   UNL     1       1.932  11.109  18.376  0.00  0.00    +0.000 A 
ATOM     27  C   UNL     1       1.302  12.302  18.741  0.00  0.00    +0.000 A 
ATOM     28  C   UNL     1      -0.080  12.347  18.866  0.00  0.00    +0.000 A 
ATOM     29  C   UNL     1      -0.829  11.201  18.602  0.00  0.00    +0.000 A 
ATOM     30  C   UNL     1      -0.196  10.005  18.238  0.00  0.00    +0.000 A 
ENDBRANCH  22  25
ENDBRANCH  18  19
BRANCH  18  31
ATOM     31  C   UNL     1       1.860   4.381  19.014  0.00  0.00    +0.000 C 
BRANCH  31  32
ATOM     32  S   UNL     1       1.288   3.785  20.643  0.00  0.00    +0.000 S 
ATOM     33  H   UNL     1       0.211   3.120  20.197  0.00  0.00    +0.000 HD
ENDBRANCH  31  32
ENDBRANCH  18  31
ENDBRANCH   2  18
TORSDOF 9
ENDMDL
MODEL 3
REMARK VINA RESULT:      -7.6      0.569      1.056
REMARK  Name = 
REMARK  9 active torsions:
REMARK  status: ('A' for Active; 'I' for Inactive)
REMARK    1  A    between atoms: C_2  and  C_4
REMARK    2  A    between atoms: C_4  and  C_5
REMARK    3  A    between atoms: C_4  and  N_12
REMARK    4  A    between atoms: C_5  and  C_6
REMARK    5  A    between atoms: C_13  and  C_15
REMARK    6  A    between atoms: C_15  and  C_16
REMARK    7  A    between atoms: C_15  and  N_18
REMARK    8  A    between atoms: C_16  and  S_17
REMARK    9  A    between atoms: N_21  and  C_22
REMARK                            x       y       z     vdW  Elec       q    Type
REMARK                         _______ _______ _______ _____ _____    ______ ____
ROOT
ATOM      1  N   UNL     1       5.108   4.928  17.375  0.00  0.00    +0.000 N 
ATOM      2  C   UNL     1       4.614   4.340  18.521  0.00  0.00    +0.000 C 
ATOM      3  O   UNL     1       5.278   3.570  19.211  0.00  0.00    +0.000 OA
ATOM      4  H   UNL     1       4.494   5.513  16.822  0.00  0.00    +0.000 HD
ENDROOT
BRANCH   1   5
ATOM      5  C   UNL     1       6.418   4.646  16.778  0.00  0.00    +0.000 C 
BRANCH   5   7
ATOM      6  N   UNL     1       7.388   5.975  18.618  0.00  0.00    +0.000 N 
ATOM      7  C   UNL     1       7.542   4.881  17.810  0.00  0.00    +0.000 C 
ATOM      8  O   UNL     1       8.485   4.117  17.992  0.00  0.00    +0.000 OA
ATOM      9  H   UNL     1       8.037   6.090  19.386  0.00  0.00    +0.000 HD
ATOM     10  H   UNL     1       6.514   6.495  18.629  0.00  0.00    +0.000 HD
ENDBRANCH   5   7
BRANCH   5  11
ATOM     11  C   UNL     1       6.663   5.552  15.552  0.00  0.00    +0.000 C 
BRANCH  11  12
ATOM     12  C   UNL     1       6.559   4.822  14.229  0.00  0.00    +0.000 A 
ATOM     13  C   UNL     1       7.523   5.018  13.228  0.00  0.00    +0.000 A 
ATOM     14  C   UNL     1       7.418   4.351  12.005  0.00  0.00    +0.000 A 
ATOM     15  C   UNL     1       6.356   3.478  11.775  0.00  0.00    +0.000 A 
ATOM     16  C   UNL     1       5.402   3.268  12.767  0.00  0.00    +0.000 A 
ATOM     17  C   UNL     1       5.502   3.933  13.990  0.00  0.00    +0.000 A 
ENDBRANCH  11  12
ENDBRANCH   5  11
ENDBRANCH   1   5
BRANCH   2  18
ATOM     18  C   UNL     1       3.175   4.783  18.868  0.00  0.00    +0.000 C 
BRANCH  18  19
ATOM     19  N   UNL     1       2.961   6.235  18.820  0.00  0.00    +0.000 N 
ATOM     20  C   UNL     1       2.209   6.801  19.821  0.00  0.00    +0.000 C 
ATOM     21  O   UNL     1       1.854   6.117  20.777  0.00  0.00    +0.000 OA
ATOM     22  N   UNL     1       1.911   8.129  19.629  0.00  0.00    +0.000 N 
ATOM     23  H   UNL     1       3.101   6.707  17.938  0.00  0.00    +0.000 HD
ATOM     24  H   UNL     1       2.175   8.539  18.747  0.00  0.00    +0.000 HD
BRANCH  22  25
ATOM     25  C   UNL     1       1.122   8.926  20.501  0.00  0.00    +0.000 A 
ATOM     26  C   UNL     1       0.646   8.469  21.736  0.00  0.00    +0.000 A 
ATOM     27  C   UNL     1      -0.178   9.263  22.538  0.00  0.00    +0.000 A 
ATOM     28  C   UNL     1      -0.530  10.540  22.121  0.00  0.00    +0.000 A 
ATOM     29  C   UNL     1      -0.037  11.026  20.912  0.00  0.00    +0.000 A 
ATOM     30  C   UNL     1       0.788  10.227  20.107  0.00  0.00    +0.000 A 
ENDBRANCH  22  25
ENDBRANCH  18  19
BRANCH  18  31
ATOM     31  C   UNL     1       2.142   4.005  18.018  0.00  0.00    +0.000 C 
BRANCH  31  32
ATOM     32  S   UNL     1       1.182   2.776  18.970  0.00  0.00    +0.000 S 
ATOM     33  H   UNL     1       2.191   2.359  19.751  0.00  0.00    +0.000 HD
ENDBRANCH  31  32
ENDBRANCH  18  31
ENDBRANCH   2  18
TORSDOF 9
ENDMDL
MODEL 4
REMARK VINA RESULT:      -7.6      4.137      7.403
REMARK  Name = 
REMARK  9 active torsions:
REMARK  status: ('A' for Active; 'I' for Inactive)
REMARK    1  A    between atoms: C_2  and  C_4
REMARK    2  A    between atoms: C_4  and  C_5
REMARK    3  A    between atoms: C_4  and  N_12
REMARK    4  A    between atoms: C_5  and  C_6
REMARK    5  A    between atoms: C_13  and  C_15
REMARK    6  A    between atoms: C_15  and  C_16
REMARK    7  A    between atoms: C_15  and  N_18
REMARK    8  A    between atoms: C_16  and  S_17
REMARK    9  A    between atoms: N_21  and  C_22
REMARK                            x       y       z     vdW  Elec       q    Type
REMARK                         _______ _______ _______ _____ _____    ______ ____
ROOT
ATOM      1  N   UNL     1       4.437   6.761  17.753  0.00  0.00    +0.000 N 
ATOM      2  C   UNL     1       5.394   5.771  17.651  0.00  0.00    +0.000 C 
ATOM      3  O   UNL     1       5.172   4.600  17.953  0.00  0.00    +0.000 OA
ATOM      4  H   UNL     1       4.697   7.715  17.537  0.00  0.00    +0.000 HD
ENDROOT
BRANCH   1   5
ATOM      5  C   UNL     1       3.095   6.584  18.316  0.00  0.00    +0.000 C 
BRANCH   5   7
ATOM      6  N   UNL     1       2.377   8.777  17.441  0.00  0.00    +0.000 N 
ATOM      7  C   UNL     1       2.417   7.954  18.533  0.00  0.00    +0.000 C 
ATOM      8  O   UNL     1       1.859   8.294  19.572  0.00  0.00    +0.000 OA
ATOM      9  H   UNL     1       1.834   9.628  17.510  0.00  0.00    +0.000 HD
ATOM     10  H   UNL     1       2.640   8.433  16.520  0.00  0.00    +0.000 HD
ENDBRANCH   5   7
BRANCH   5  11
ATOM     11  C   UNL     1       3.165   5.838  19.666  0.00  0.00    +0.000 C 
BRANCH  11  12
ATOM     12  C   UNL     1       2.301   4.596  19.717  0.00  0.00    +0.000 A 
ATOM     13  C   UNL     1       1.949   4.023  20.949  0.00  0.00    +0.000 A 
ATOM     14  C   UNL     1       1.160   2.871  20.993  0.00  0.00    +0.000 A 
ATOM     15  C   UNL     1       0.710   2.286  19.810  0.00  0.00    +0.000 A 
ATOM     16  C   UNL     1       1.045   2.855  18.584  0.00  0.00    +0.000 A 
ATOM     17  C   UNL     1       1.835   4.006  18.535  0.00  0.00    +0.000 A 
ENDBRANCH  11  12
ENDBRANCH   5  11
ENDBRANCH   1   5
BRANCH   2  18
ATOM     18  C   UNL     1       6.739   6.272  17.079  0.00  0.00    +0.000 C 
BRANCH  18  19
ATOM     19  N   UNL     1       7.640   6.858  18.078  0.00  0.00    +0.000 N 
ATOM     20  C   UNL     1       7.846   8.216  18.032  0.00  0.00    +0.000 C 
ATOM     21  O   UNL     1       7.186   8.906  17.258  0.00  0.00    +0.000 OA
ATOM     22  N   UNL     1       8.822   8.676  18.884  0.00  0.00    +0.000 N 
ATOM     23  H   UNL     1       8.291   6.245  18.551  0.00  0.00    +0.000 HD
ATOM     24  H   UNL     1       9.359   7.986  19.386  0.00  0.00    +0.000 HD
BRANCH  22  25
ATOM     25  C   UNL     1       9.241  10.028  18.996  0.00  0.00    +0.000 A 
ATOM     26  C   UNL     1       9.580  10.819  17.892  0.00  0.00    +0.000 A 
ATOM     27  C   UNL     1      10.046  12.128  18.050  0.00  0.00    +0.000 A 
ATOM     28  C   UNL     1      10.169  12.672  19.320  0.00  0.00    +0.000 A 
ATOM     29  C   UNL     1       9.802  11.912  20.430  0.00  0.00    +0.000 A 
ATOM     30  C   UNL     1       9.337  10.599  20.271  0.00  0.00    +0.000 A 
ENDBRANCH  22  25
ENDBRANCH  18  19
BRANCH  18  31
ATOM     31  C   UNL     1       7.423   5.166  16.242  0.00  0.00    +0.000 C 
BRANCH  31  32
ATOM     32  S   UNL     1       6.622   4.861  14.629  0.00  0.00    +0.000 S 
ATOM     33  H   UNL     1       7.649   5.264  13.865  0.00  0.00    +0.000 HD
ENDBRANCH  31  32
ENDBRANCH  18  31
ENDBRANCH   2  18
TORSDOF 9
ENDMDL
MODEL 5
REMARK VINA RESULT:      -7.6      1.118      1.473
REMARK  Name = 
REMARK  9 active torsions:
REMARK  status: ('A' for Active; 'I' for Inactive)
REMARK    1  A    between atoms: C_2  and  C_4
REMARK    2  A    between atoms: C_4  and  C_5
REMARK    3  A    between atoms: C_4  and  N_12
REMARK    4  A    between atoms: C_5  and  C_6
REMARK    5  A    between atoms: C_13  and  C_15
REMARK    6  A    between atoms: C_15  and  C_16
REMARK    7  A    between atoms: C_15  and  N_18
REMARK    8  A    between atoms: C_16  and  S_17
REMARK    9  A    between atoms: N_21  and  C_22
REMARK                            x       y       z     vdW  Elec       q    Type
REMARK                         _______ _______ _______ _____ _____    ______ ____
ROOT
ATOM      1  N   UNL     1       5.439   5.553  17.899  0.00  0.00    +0.000 N 
ATOM      2  C   UNL     1       4.717   4.723  18.731  0.00  0.00    +0.000 C 
ATOM      3  O   UNL     1       5.234   3.807  19.367  0.00  0.00    +0.000 OA
ATOM      4  H   UNL     1       4.946   6.257  17.364  0.00  0.00    +0.000 HD
ENDROOT
BRANCH   1   5
ATOM      5  C   UNL     1       6.863   5.401  17.582  0.00  0.00    +0.000 C 
BRANCH   5   7
ATOM      6  N   UNL     1       8.028   5.289  19.755  0.00  0.00    +0.000 N 
ATOM      7  C   UNL     1       7.731   6.069  18.671  0.00  0.00    +0.000 C 
ATOM      8  O   UNL     1       8.218   7.191  18.576  0.00  0.00    +0.000 OA
ATOM      9  H   UNL     1       8.695   5.648  20.426  0.00  0.00    +0.000 HD
ATOM     10  H   UNL     1       7.817   4.294  19.754  0.00  0.00    +0.000 HD
ENDBRANCH   5   7
BRANCH   5  11
ATOM     11  C   UNL     1       7.188   6.043  16.217  0.00  0.00    +0.000 C 
BRANCH  11  12
ATOM     12  C   UNL     1       6.774   5.193  15.034  0.00  0.00    +0.000 A 
ATOM     13  C   UNL     1       5.605   4.417  15.086  0.00  0.00    +0.000 A 
ATOM     14  C   UNL     1       5.231   3.627  13.997  0.00  0.00    +0.000 A 
ATOM     15  C   UNL     1       6.016   3.609  12.845  0.00  0.00    +0.000 A 
ATOM     16  C   UNL     1       7.171   4.384  12.780  0.00  0.00    +0.000 A 
ATOM     17  C   UNL     1       7.549   5.175  13.867  0.00  0.00    +0.000 A 
ENDBRANCH  11  12
ENDBRANCH   5  11
ENDBRANCH   1   5
BRANCH   2  18
ATOM     18  C   UNL     1       3.218   5.091  18.818  0.00  0.00    +0.000 C 
BRANCH  18  19
ATOM     19  N   UNL     1       2.952   6.533  18.857  0.00  0.00    +0.000 N 
ATOM     20  C   UNL     1       2.142   7.005  19.863  0.00  0.00    +0.000 C 
ATOM     21  O   UNL     1       1.780   6.245  20.758  0.00  0.00    +0.000 OA
ATOM     22  N   UNL     1       1.801   8.331  19.748  0.00  0.00    +0.000 N 
ATOM     23  H   UNL     1       3.105   7.069  18.014  0.00  0.00    +0.000 HD
ATOM     24  H   UNL     1       2.081   8.808  18.906  0.00  0.00    +0.000 HD
BRANCH  22  25
ATOM     25  C   UNL     1       0.951   9.039  20.639  0.00  0.00    +0.000 A 
ATOM     26  C   UNL     1       0.044  10.018  20.219  0.00  0.00    +0.000 A 
ATOM     27  C   UNL     1      -0.731  10.735  21.134  0.00  0.00    +0.000 A 
ATOM     28  C   UNL     1      -0.619  10.472  22.493  0.00  0.00    +0.000 A 
ATOM     29  C   UNL     1       0.252   9.476  22.929  0.00  0.00    +0.000 A 
ATOM     30  C   UNL     1       1.031   8.759  22.009  0.00  0.00    +0.000 A 
ENDBRANCH  22  25
ENDBRANCH  18  19
BRANCH  18  31
ATOM     31  C   UNL     1       2.413   4.370  17.711  0.00  0.00    +0.000 C 
BRANCH  31  32
ATOM     32  S   UNL     1       2.299   2.561  17.942  0.00  0.00    +0.000 S 
ATOM     33  H   UNL     1       3.166   2.225  16.974  0.00  0.00    +0.000 HD
ENDBRANCH  31  32
ENDBRANCH  18  31
ENDBRANCH   2  18
TORSDOF 9
ENDMDL
MODEL 6
REMARK VINA RESULT:      -7.6      2.929      8.947
REMARK  Name = 
REMARK  9 active torsions:
REMARK  status: ('A' for Active; 'I' for Inactive)
REMARK    1  A    between atoms: C_2  and  C_4
REMARK    2  A    between atoms: C_4  and  C_5
REMARK    3  A    between atoms: C_4  and  N_12
REMARK    4  A    between atoms: C_5  and  C_6
REMARK    5  A    between atoms: C_13  and  C_15
REMARK    6  A    between atoms: C_15  and  C_16
REMARK    7  A    between atoms: C_15  and  N_18
REMARK    8  A    between atoms: C_16  and  S_17
REMARK    9  A    between atoms: N_21  and  C_22
REMARK                            x       y       z     vdW  Elec       q    Type
REMARK                         _______ _______ _______ _____ _____    ______ ____
ROOT
ATOM      1  N   UNL     1       3.824   6.772  17.761  0.00  0.00    +0.000 N 
ATOM      2  C   UNL     1       4.330   5.592  17.256  0.00  0.00    +0.000 C 
ATOM      3  O   UNL     1       3.682   4.548  17.233  0.00  0.00    +0.000 OA
ATOM      4  H   UNL     1       4.426   7.585  17.798  0.00  0.00    +0.000 HD
ENDROOT
BRANCH   1   5
ATOM      5  C   UNL     1       2.522   6.920  18.419  0.00  0.00    +0.000 C 
BRANCH   5   7
ATOM      6  N   UNL     1       1.423   8.899  19.402  0.00  0.00    +0.000 N 
ATOM      7  C   UNL     1       2.014   8.373  18.287  0.00  0.00    +0.000 C 
ATOM      8  O   UNL     1       2.186   9.078  17.297  0.00  0.00    +0.000 OA
ATOM      9  H   UNL     1       1.192   9.885  19.394  0.00  0.00    +0.000 HD
ATOM     10  H   UNL     1       1.464   8.410  20.293  0.00  0.00    +0.000 HD
ENDBRANCH   5   7
BRANCH   5  11
ATOM     11  C   UNL     1       2.624   6.557  19.915  0.00  0.00    +0.000 C 
BRANCH  11  12
ATOM     12  C   UNL     1       2.135   5.159  20.234  0.00  0.00    +0.000 A 
ATOM     13  C   UNL     1       2.541   4.513  21.412  0.00  0.00    +0.000 A 
ATOM     14  C   UNL     1       2.097   3.220  21.698  0.00  0.00    +0.000 A 
ATOM     15  C   UNL     1       1.238   2.565  20.816  0.00  0.00    +0.000 A 
ATOM     16  C   UNL     1       0.821   3.203  19.651  0.00  0.00    +0.000 A 
ATOM     17  C   UNL     1       1.264   4.495  19.361  0.00  0.00    +0.000 A 
ENDBRANCH  11  12
ENDBRANCH   5  11
ENDBRANCH   1   5
BRANCH   2  18
ATOM     18  C   UNL     1       5.758   5.730  16.683  0.00  0.00    +0.000 C 
BRANCH  18  19
ATOM     19  N   UNL     1       5.824   5.727  15.217  0.00  0.00    +0.000 N 
ATOM     20  C   UNL     1       5.906   4.509  14.585  0.00  0.00    +0.000 C 
ATOM     21  O   UNL     1       5.792   3.475  15.240  0.00  0.00    +0.000 OA
ATOM     22  N   UNL     1       6.130   4.582  13.231  0.00  0.00    +0.000 N 
ATOM     23  H   UNL     1       6.106   6.579  14.751  0.00  0.00    +0.000 HD
ATOM     24  H   UNL     1       6.311   5.493  12.841  0.00  0.00    +0.000 HD
BRANCH  22  25
ATOM     25  C   UNL     1       6.286   3.466  12.366  0.00  0.00    +0.000 A 
ATOM     26  C   UNL     1       5.222   2.642  11.979  0.00  0.00    +0.000 A 
ATOM     27  C   UNL     1       5.428   1.518  11.174  0.00  0.00    +0.000 A 
ATOM     28  C   UNL     1       6.705   1.206  10.730  0.00  0.00    +0.000 A 
ATOM     29  C   UNL     1       7.772   2.035  11.075  0.00  0.00    +0.000 A 
ATOM     30  C   UNL     1       7.565   3.161  11.885  0.00  0.00    +0.000 A 
ENDBRANCH  22  25
ENDBRANCH  18  19
BRANCH  18  31
ATOM     31  C   UNL     1       6.482   6.948  17.305  0.00  0.00    +0.000 C 
BRANCH  31  32
ATOM     32  S   UNL     1       7.783   6.496  18.506  0.00  0.00    +0.000 S 
ATOM     33  H   UNL     1       7.296   7.203  19.538  0.00  0.00    +0.000 HD
ENDBRANCH  31  32
ENDBRANCH  18  31
ENDBRANCH   2  18
TORSDOF 9
ENDMDL
MODEL 7
REMARK VINA RESULT:      -7.6      4.016      7.313
REMARK  Name = 
REMARK  9 active torsions:
REMARK  status: ('A' for Active; 'I' for Inactive)
REMARK    1  A    between atoms: C_2  and  C_4
REMARK    2  A    between atoms: C_4  and  C_5
REMARK    3  A    between atoms: C_4  and  N_12
REMARK    4  A    between atoms: C_5  and  C_6
REMARK    5  A    between atoms: C_13  and  C_15
REMARK    6  A    between atoms: C_15  and  C_16
REMARK    7  A    between atoms: C_15  and  N_18
REMARK    8  A    between atoms: C_16  and  S_17
REMARK    9  A    between atoms: N_21  and  C_22
REMARK                            x       y       z     vdW  Elec       q    Type
REMARK                         _______ _______ _______ _____ _____    ______ ____
ROOT
ATOM      1  N   UNL     1       4.469   6.619  17.700  0.00  0.00    +0.000 N 
ATOM      2  C   UNL     1       5.340   5.576  17.462  0.00  0.00    +0.000 C 
ATOM      3  O   UNL     1       5.034   4.400  17.648  0.00  0.00    +0.000 OA
ATOM      4  H   UNL     1       4.799   7.568  17.575  0.00  0.00    +0.000 HD
ENDROOT
BRANCH   1   5
ATOM      5  C   UNL     1       3.133   6.488  18.290  0.00  0.00    +0.000 C 
BRANCH   5   7
ATOM      6  N   UNL     1       2.506   8.683  17.353  0.00  0.00    +0.000 N 
ATOM      7  C   UNL     1       2.479   7.876  18.457  0.00  0.00    +0.000 C 
ATOM      8  O   UNL     1       1.885   8.244  19.467  0.00  0.00    +0.000 OA
ATOM      9  H   UNL     1       1.980   9.547  17.386  0.00  0.00    +0.000 HD
ATOM     10  H   UNL     1       2.800   8.319  16.450  0.00  0.00    +0.000 HD
ENDBRANCH   5   7
BRANCH   5  11
ATOM     11  C   UNL     1       3.212   5.799  19.668  0.00  0.00    +0.000 C 
BRANCH  11  12
ATOM     12  C   UNL     1       2.364   4.549  19.771  0.00  0.00    +0.000 A 
ATOM     13  C   UNL     1       1.735   4.018  18.635  0.00  0.00    +0.000 A 
ATOM     14  C   UNL     1       0.945   2.870  18.734  0.00  0.00    +0.000 A 
ATOM     15  C   UNL     1       0.782   2.240  19.967  0.00  0.00    +0.000 A 
ATOM     16  C   UNL     1       1.412   2.753  21.098  0.00  0.00    +0.000 A 
ATOM     17  C   UNL     1       2.202   3.900  21.003  0.00  0.00    +0.000 A 
ENDBRANCH  11  12
ENDBRANCH   5  11
ENDBRANCH   1   5
BRANCH   2  18
ATOM     18  C   UNL     1       6.705   6.029  16.898  0.00  0.00    +0.000 C 
BRANCH  18  19
ATOM     19  N   UNL     1       7.604   6.624  17.894  0.00  0.00    +0.000 N 
ATOM     20  C   UNL     1       7.723   7.993  17.909  0.00  0.00    +0.000 C 
ATOM     21  O   UNL     1       6.992   8.674  17.193  0.00  0.00    +0.000 OA
ATOM     22  N   UNL     1       8.698   8.473  18.749  0.00  0.00    +0.000 N 
ATOM     23  H   UNL     1       8.309   6.032  18.312  0.00  0.00    +0.000 HD
ATOM     24  H   UNL     1       9.296   7.796  19.197  0.00  0.00    +0.000 HD
BRANCH  22  25
ATOM     25  C   UNL     1       9.036   9.842  18.915  0.00  0.00    +0.000 A 
ATOM     26  C   UNL     1       9.476  10.382  20.130  0.00  0.00    +0.000 A 
ATOM     27  C   UNL     1       9.740  11.747  20.267  0.00  0.00    +0.000 A 
ATOM     28  C   UNL     1       9.579  12.598  19.182  0.00  0.00    +0.000 A 
ATOM     29  C   UNL     1       9.177  12.074  17.955  0.00  0.00    +0.000 A 
ATOM     30  C   UNL     1       8.909  10.704  17.819  0.00  0.00    +0.000 A 
ENDBRANCH  22  25
ENDBRANCH  18  19
BRANCH  18  31
ATOM     31  C   UNL     1       7.376   4.884  16.103  0.00  0.00    +0.000 C 
BRANCH  31  32
ATOM     32  S   UNL     1       6.576   4.532  14.499  0.00  0.00    +0.000 S 
ATOM     33  H   UNL     1       6.105   3.318  14.822  0.00  0.00    +0.000 HD
ENDBRANCH  31  32
ENDBRANCH  18  31
ENDBRANCH   2  18
TORSDOF 9
ENDMDL
MODEL 8
REMARK VINA RESULT:      -7.5      2.906      8.284
REMARK  Name = 
REMARK  9 active torsions:
REMARK  status: ('A' for Active; 'I' for Inactive)
REMARK    1  A    between atoms: C_2  and  C_4
REMARK    2  A    between atoms: C_4  and  C_5
REMARK    3  A    between atoms: C_4  and  N_12
REMARK    4  A    between atoms: C_5  and  C_6
REMARK    5  A    between atoms: C_13  and  C_15
REMARK    6  A    between atoms: C_15  and  C_16
REMARK    7  A    between atoms: C_15  and  N_18
REMARK    8  A    between atoms: C_16  and  S_17
REMARK    9  A    between atoms: N_21  and  C_22
REMARK                            x       y       z     vdW  Elec       q    Type
REMARK                         _______ _______ _______ _____ _____    ______ ____
ROOT
ATOM      1  N   UNL     1       5.409   4.024  18.534  0.00  0.00    +0.000 N 
ATOM      2  C   UNL     1       6.022   5.229  18.810  0.00  0.00    +0.000 C 
ATOM      3  O   UNL     1       5.675   5.954  19.740  0.00  0.00    +0.000 OA
ATOM      4  H   UNL     1       5.709   3.498  17.723  0.00  0.00    +0.000 HD
ENDROOT
BRANCH   1   5
ATOM      5  C   UNL     1       4.225   3.501  19.224  0.00  0.00    +0.000 C 
BRANCH   5   7
ATOM      6  N   UNL     1       5.122   1.360  20.061  0.00  0.00    +0.000 N 
ATOM      7  C   UNL     1       4.232   1.957  19.211  0.00  0.00    +0.000 C 
ATOM      8  O   UNL     1       3.451   1.267  18.564  0.00  0.00    +0.000 OA
ATOM      9  H   UNL     1       5.069   0.356  20.171  0.00  0.00    +0.000 HD
ATOM     10  H   UNL     1       5.624   1.906  20.757  0.00  0.00    +0.000 HD
ENDBRANCH   5   7
BRANCH   5  11
ATOM     11  C   UNL     1       2.934   4.004  18.545  0.00  0.00    +0.000 C 
BRANCH  11  12
ATOM     12  C   UNL     1       2.524   5.396  18.977  0.00  0.00    +0.000 A 
ATOM     13  C   UNL     1       2.614   6.476  18.085  0.00  0.00    +0.000 A 
ATOM     14  C   UNL     1       2.244   7.761  18.489  0.00  0.00    +0.000 A 
ATOM     15  C   UNL     1       1.776   7.977  19.784  0.00  0.00    +0.000 A 
ATOM     16  C   UNL     1       1.672   6.910  20.673  0.00  0.00    +0.000 A 
ATOM     17  C   UNL     1       2.041   5.624  20.272  0.00  0.00    +0.000 A 
ENDBRANCH  11  12
ENDBRANCH   5  11
ENDBRANCH   1   5
BRANCH   2  18
ATOM     18  C   UNL     1       7.208   5.545  17.870  0.00  0.00    +0.000 C 
BRANCH  18  19
ATOM     19  N   UNL     1       6.821   5.834  16.485  0.00  0.00    +0.000 N 
ATOM     20  C   UNL     1       6.649   4.768  15.635  0.00  0.00    +0.000 C 
ATOM     21  O   UNL     1       6.693   3.623  16.079  0.00  0.00    +0.000 OA
ATOM     22  N   UNL     1       6.449   5.111  14.319  0.00  0.00    +0.000 N 
ATOM     23  H   UNL     1       6.985   6.766  16.129  0.00  0.00    +0.000 HD
ATOM     24  H   UNL     1       6.544   6.085  14.077  0.00  0.00    +0.000 HD
BRANCH  22  25
ATOM     25  C   UNL     1       6.280   4.193  13.249  0.00  0.00    +0.000 A 
ATOM     26  C   UNL     1       7.348   3.683  12.501  0.00  0.00    +0.000 A 
ATOM     27  C   UNL     1       7.135   2.828  11.416  0.00  0.00    +0.000 A 
ATOM     28  C   UNL     1       5.843   2.456  11.069  0.00  0.00    +0.000 A 
ATOM     29  C   UNL     1       4.769   2.924  11.825  0.00  0.00    +0.000 A 
ATOM     30  C   UNL     1       4.985   3.785  12.911  0.00  0.00    +0.000 A 
ENDBRANCH  22  25
ENDBRANCH  18  19
BRANCH  18  31
ATOM     31  C   UNL     1       8.107   6.649  18.476  0.00  0.00    +0.000 C 
BRANCH  31  32
ATOM     32  S   UNL     1       7.861   8.295  17.723  0.00  0.00    +0.000 S 
ATOM     33  H   UNL     1       8.359   9.010  18.744  0.00  0.00    +0.000 HD
ENDBRANCH  31  32
ENDBRANCH  18  31
ENDBRANCH   2  18
TORSDOF 9
ENDMDL
MODEL 9
REMARK VINA RESULT:      -7.4      1.339      1.790
REMARK  Name = 
REMARK  9 active torsions:
REMARK  status: ('A' for Active; 'I' for Inactive)
REMARK    1  A    between atoms: C_2  and  C_4
REMARK    2  A    between atoms: C_4  and  C_5
REMARK    3  A    between atoms: C_4  and  N_12
REMARK    4  A    between atoms: C_5  and  C_6
REMARK    5  A    between atoms: C_13  and  C_15
REMARK    6  A    between atoms: C_15  and  C_16
REMARK    7  A    between atoms: C_15  and  N_18
REMARK    8  A    between atoms: C_16  and  S_17
REMARK    9  A    between atoms: N_21  and  C_22
REMARK                            x       y       z     vdW  Elec       q    Type
REMARK                         _______ _______ _______ _____ _____    ______ ____
ROOT
ATOM      1  N   UNL     1       5.252   5.684  18.887  0.00  0.00    +0.000 N 
ATOM      2  C   UNL     1       4.300   4.748  19.235  0.00  0.00    +0.000 C 
ATOM      3  O   UNL     1       4.518   3.539  19.212  0.00  0.00    +0.000 OA
ATOM      4  H   UNL     1       4.993   6.663  18.877  0.00  0.00    +0.000 HD
ENDROOT
BRANCH   1   5
ATOM      5  C   UNL     1       6.584   5.377  18.354  0.00  0.00    +0.000 C 
BRANCH   5   7
ATOM      6  N   UNL     1       8.415   6.867  19.072  0.00  0.00    +0.000 N 
ATOM      7  C   UNL     1       7.674   5.760  19.379  0.00  0.00    +0.000 C 
ATOM      8  O   UNL     1       7.843   5.191  20.453  0.00  0.00    +0.000 OA
ATOM      9  H   UNL     1       9.052   7.220  19.776  0.00  0.00    +0.000 HD
ATOM     10  H   UNL     1       8.150   7.474  18.299  0.00  0.00    +0.000 HD
ENDBRANCH   5   7
BRANCH   5  11
ATOM     11  C   UNL     1       6.835   6.147  17.041  0.00  0.00    +0.000 C 
BRANCH  11  12
ATOM     12  C   UNL     1       6.553   5.331  15.797  0.00  0.00    +0.000 A 
ATOM     13  C   UNL     1       7.470   5.308  14.735  0.00  0.00    +0.000 A 
ATOM     14  C   UNL     1       7.203   4.562  13.585  0.00  0.00    +0.000 A 
ATOM     15  C   UNL     1       6.021   3.828  13.488  0.00  0.00    +0.000 A 
ATOM     16  C   UNL     1       5.110   3.835  14.541  0.00  0.00    +0.000 A 
ATOM     17  C   UNL     1       5.374   4.581  15.692  0.00  0.00    +0.000 A 
ENDBRANCH  11  12
ENDBRANCH   5  11
ENDBRANCH   1   5
BRANCH   2  18
ATOM     18  C   UNL     1       2.964   5.372  19.700  0.00  0.00    +0.000 C 
BRANCH  18  19
ATOM     19  N   UNL     1       2.729   6.733  19.204  0.00  0.00    +0.000 N 
ATOM     20  C   UNL     1       1.888   7.540  19.933  0.00  0.00    +0.000 C 
ATOM     21  O   UNL     1       1.470   7.156  21.023  0.00  0.00    +0.000 OA
ATOM     22  N   UNL     1       1.581   8.737  19.331  0.00  0.00    +0.000 N 
ATOM     23  H   UNL     1       2.930   6.928  18.233  0.00  0.00    +0.000 HD
ATOM     24  H   UNL     1       1.908   8.877  18.389  0.00  0.00    +0.000 HD
BRANCH  22  25
ATOM     25  C   UNL     1       0.710   9.723  19.867  0.00  0.00    +0.000 A 
ATOM     26  C   UNL     1       0.838  10.237  21.163  0.00  0.00    +0.000 A 
ATOM     27  C   UNL     1      -0.077  11.162  21.673  0.00  0.00    +0.000 A 
ATOM     28  C   UNL     1      -1.133  11.600  20.886  0.00  0.00    +0.000 A 
ATOM     29  C   UNL     1      -1.256  11.128  19.580  0.00  0.00    +0.000 A 
ATOM     30  C   UNL     1      -0.339  10.197  19.070  0.00  0.00    +0.000 A 
ENDBRANCH  22  25
ENDBRANCH  18  19
BRANCH  18  31
ATOM     31  C   UNL     1       1.782   4.420  19.400  0.00  0.00    +0.000 C 
BRANCH  31  32
ATOM     32  S   UNL     1       1.307   3.368  20.816  0.00  0.00    +0.000 S 
ATOM     33  H   UNL     1       0.097   3.913  21.017  0.00  0.00    +0.000 HD
ENDBRANCH  31  32
ENDBRANCH  18  31
ENDBRANCH   2  18
TORSDOF 9
ENDMDL
