MODEL 1
REMARK VINA RESULT:      -7.6      0.000      0.000
REMARK  Name = 
REMARK  8 active torsions:
REMARK  status: ('A' for Active; 'I' for Inactive)
REMARK    1  A    between atoms: C_2  and  C_3
REMARK    2  A    between atoms: C_6  and  N_7
REMARK    3  A    between atoms: N_7  and  C_8
REMARK    4  A    between atoms: N_7  and  N_21
REMARK    5  A    between atoms: C_8  and  C_9
REMARK    6  A    between atoms: C_12  and  O_13
REMARK    7  A    between atoms: O_13  and  S_14
REMARK    8  A    between atoms: S_14  and  N_15
REMARK                            x       y       z     vdW  Elec       q    Type
REMARK                         _______ _______ _______ _____ _____    ______ ____
ROOT
ATOM      1  C   UNL     1       3.575   5.929  19.568  0.00  0.00    +0.000 C 
ENDROOT
BRANCH   1   2
ATOM      2  C   UNL     1       2.666   7.101  19.217  0.00  0.00    +0.000 A 
ATOM      3  C   UNL     1       1.833   7.643  20.196  0.00  0.00    +0.000 A 
ATOM      4  C   UNL     1       1.090   8.800  19.993  0.00  0.00    +0.000 A 
ATOM      5  C   UNL     1       1.168   9.485  18.792  0.00  0.00    +0.000 A 
ATOM      6  C   UNL     1       1.987   8.995  17.779  0.00  0.00    +0.000 A 
ATOM      7  C   UNL     1       2.726   7.807  18.000  0.00  0.00    +0.000 A 
ATOM      8  F   UNL     1       3.535   7.377  17.019  0.00  0.00    +0.000 F 
BRANCH   5   9
ATOM      9  O   UNL     1       0.306  10.540  18.713  0.00  0.00    +0.000 OA
BRANCH   9  10
ATOM     10  S   UNL     1       0.722  12.063  19.091  0.00  0.00    +0.000 S 
ATOM     11  O   UNL     1       0.223  12.397  20.400  0.00  0.00    +0.000 OA
ATOM     12  O   UNL     1       2.088  12.275  18.690  0.00  0.00    +0.000 OA
BRANCH  10  13
ATOM     13  N   UNL     1      -0.232  12.933  18.003  0.00  0.00    +0.000 NA
ATOM     14  H   UNL     1      -0.203  12.517  17.074  0.00  0.00    +0.000 HD
ATOM     15  H   UNL     1      -0.000  13.926  18.022  0.00  0.00    +0.000 HD
ENDBRANCH  10  13
ENDBRANCH   9  10
ENDBRANCH   5   9
ENDBRANCH   1   2
BRANCH   1  16
ATOM     16  N   UNL     1       3.700   4.816  18.588  0.00  0.00    +0.000 N 
BRANCH  16  20
ATOM     17  C   UNL     1       6.554   4.997  15.405  0.00  0.00    +0.000 A 
ATOM     18  C   UNL     1       5.419   4.202  15.291  0.00  0.00    +0.000 A 
ATOM     19  C   UNL     1       4.556   4.019  16.393  0.00  0.00    +0.000 A 
ATOM     20  C   UNL     1       4.710   4.702  17.604  0.00  0.00    +0.000 A 
ATOM     21  C   UNL     1       5.921   5.417  17.721  0.00  0.00    +0.000 A 
ATOM     22  C   UNL     1       6.830   5.560  16.649  0.00  0.00    +0.000 A 
BRANCH  17  24
ATOM     23  N   UNL     1       8.097   5.436  13.353  0.00  0.00    +0.000 NA
ATOM     24  C   UNL     1       7.414   5.220  14.277  0.00  0.00    +0.000 C 
ENDBRANCH  17  24
ENDBRANCH  16  20
BRANCH  16  25
ATOM     25  N   UNL     1       2.724   3.805  18.744  0.00  0.00    +0.000 N 
ATOM     26  C   UNL     1       2.779   2.691  19.543  0.00  0.00    +0.000 A 
ATOM     27  C   UNL     1       1.627   1.985  19.281  0.00  0.00    +0.000 A 
ATOM     28  N   UNL     1       0.817   2.674  18.422  0.00  0.00    +0.000 NA
ATOM     29  C   UNL     1       1.495   3.759  18.123  0.00  0.00    +0.000 A 
ENDBRANCH  16  25
ENDBRANCH   1  16
TORSDOF 8
ENDMDL
MODEL 2
REMARK VINA RESULT:      -7.6      4.684      7.525
REMARK  Name = 
REMARK  8 active torsions:
REMARK  status: ('A' for Active; 'I' for Inactive)
REMARK    1  A    between atoms: C_2  and  C_3
REMARK    2  A    between atoms: C_6  and  N_7
REMARK    3  A    between atoms: N_7  and  C_8
REMARK    4  A    between atoms: N_7  and  N_21
REMARK    5  A    between atoms: C_8  and  C_9
REMARK    6  A    between atoms: C_12  and  O_13
REMARK    7  A    between atoms: O_13  and  S_14
REMARK    8  A    between atoms: S_14  and  N_15
REMARK                            x       y       z     vdW  Elec       q    Type
REMARK                         _______ _______ _______ _____ _____    ______ ____
ROOT
ATOM      1  C   UNL     1       4.693   6.161  18.548  0.00  0.00    +0.000 C 
ENDROOT
BRANCH   1   2
ATOM      2  C   UNL     1       5.217   5.487  17.285  0.00  0.00    +0.000 A 
ATOM      3  C   UNL     1       5.616   4.153  17.332  0.00  0.00    +0.000 A 
ATOM      4  C   UNL     1       5.962   3.431  16.195  0.00  0.00    +0.000 A 
ATOM      5  C   UNL     1       5.900   4.019  14.942  0.00  0.00    +0.000 A 
ATOM      6  C   UNL     1       5.503   5.348  14.832  0.00  0.00    +0.000 A 
ATOM      7  C   UNL     1       5.167   6.071  16.003  0.00  0.00    +0.000 A 
ATOM      8  F   UNL     1       4.754   7.340  15.864  0.00  0.00    +0.000 F 
BRANCH   5   9
ATOM      9  O   UNL     1       6.365   3.215  13.943  0.00  0.00    +0.000 OA
BRANCH   9  10
ATOM     10  S   UNL     1       6.061   3.479  12.370  0.00  0.00    +0.000 S 
ATOM     11  O   UNL     1       4.649   3.677  12.170  0.00  0.00    +0.000 OA
ATOM     12  O   UNL     1       7.064   4.375  11.857  0.00  0.00    +0.000 OA
BRANCH  10  13
ATOM     13  N   UNL     1       6.406   1.959  11.720  0.00  0.00    +0.000 NA
ATOM     14  H   UNL     1       7.387   1.718  11.847  0.00  0.00    +0.000 HD
ATOM     15  H   UNL     1       6.080   1.888  10.756  0.00  0.00    +0.000 HD
ENDBRANCH  10  13
ENDBRANCH   9  10
ENDBRANCH   5   9
ENDBRANCH   1   2
BRANCH   1  16
ATOM     16  N   UNL     1       3.220   6.284  18.721  0.00  0.00    +0.000 N 
BRANCH  16  20
ATOM     17  C   UNL     1       0.586   9.632  19.128  0.00  0.00    +0.000 A 
ATOM     18  C   UNL     1       1.244   9.393  17.926  0.00  0.00    +0.000 A 
ATOM     19  C   UNL     1       2.228   8.384  17.833  0.00  0.00    +0.000 A 
ATOM     20  C   UNL     1       2.513   7.500  18.878  0.00  0.00    +0.000 A 
ATOM     21  C   UNL     1       1.906   7.833  20.107  0.00  0.00    +0.000 A 
ATOM     22  C   UNL     1       0.966   8.879  20.236  0.00  0.00    +0.000 A 
BRANCH  17  24
ATOM     23  N   UNL     1      -1.289  11.428  19.329  0.00  0.00    +0.000 NA
ATOM     24  C   UNL     1      -0.444  10.628  19.218  0.00  0.00    +0.000 C 
ENDBRANCH  17  24
ENDBRANCH  16  20
BRANCH  16  25
ATOM     25  N   UNL     1       2.533   5.049  18.667  0.00  0.00    +0.000 N 
ATOM     26  C   UNL     1       2.555   4.027  19.582  0.00  0.00    +0.000 A 
ATOM     27  C   UNL     1       1.792   3.020  19.038  0.00  0.00    +0.000 A 
ATOM     28  N   UNL     1       1.219   3.422  17.864  0.00  0.00    +0.000 NA
ATOM     29  C   UNL     1       1.674   4.639  17.671  0.00  0.00    +0.000 A 
ENDBRANCH  16  25
ENDBRANCH   1  16
TORSDOF 8
ENDMDL
MODEL 3
REMARK VINA RESULT:      -7.6      1.606      2.277
REMARK  Name = 
REMARK  8 active torsions:
REMARK  status: ('A' for Active; 'I' for Inactive)
REMARK    1  A    between atoms: C_2  and  C_3
REMARK    2  A    between atoms: C_6  and  N_7
REMARK    3  A    between atoms: N_7  and  C_8
REMARK    4  A    between atoms: N_7  and  N_21
REMARK    5  A    between atoms: C_8  and  C_9
REMARK    6  A    between atoms: C_12  and  O_13
REMARK    7  A    between atoms: O_13  and  S_14
REMARK    8  A    between atoms: S_14  and  N_15
REMARK                            x       y       z     vdW  Elec       q    Type
REMARK                         _______ _______ _______ _____ _____    ______ ____
ROOT
ATOM      1  C   UNL     1       3.081   6.269  19.751  0.00  0.00    +0.000 C 
ENDROOT
BRANCH   1   2
ATOM      2  C   UNL     1       2.310   7.558  19.493  0.00  0.00    +0.000 A 
ATOM      3  C   UNL     1       2.224   8.060  18.196  0.00  0.00    +0.000 A 
ATOM      4  C   UNL     1       1.418   9.142  17.861  0.00  0.00    +0.000 A 
ATOM      5  C   UNL     1       0.637   9.763  18.822  0.00  0.00    +0.000 A 
ATOM      6  C   UNL     1       0.678   9.303  20.134  0.00  0.00    +0.000 A 
ATOM      7  C   UNL     1       1.515   8.207  20.459  0.00  0.00    +0.000 A 
ATOM      8  F   UNL     1       1.508   7.762  21.725  0.00  0.00    +0.000 F 
BRANCH   5   9
ATOM      9  O   UNL     1      -0.016  10.867  18.358  0.00  0.00    +0.000 OA
BRANCH   9  10
ATOM     10  S   UNL     1      -1.633  11.017  18.366  0.00  0.00    +0.000 S 
ATOM     11  O   UNL     1      -2.242   9.774  17.968  0.00  0.00    +0.000 OA
ATOM     12  O   UNL     1      -2.017  11.740  19.550  0.00  0.00    +0.000 OA
BRANCH  10  13
ATOM     13  N   UNL     1      -1.860  12.074  17.069  0.00  0.00    +0.000 NA
ATOM     14  H   UNL     1      -1.408  12.970  17.241  0.00  0.00    +0.000 HD
ATOM     15  H   UNL     1      -2.847  12.146  16.822  0.00  0.00    +0.000 HD
ENDBRANCH  10  13
ENDBRANCH   9  10
ENDBRANCH   5   9
ENDBRANCH   1   2
BRANCH   1  16
ATOM     16  N   UNL     1       3.109   5.238  18.678  0.00  0.00    +0.000 N 
BRANCH  16  20
ATOM     17  C   UNL     1       5.944   5.277  15.473  0.00  0.00    +0.000 A 
ATOM     18  C   UNL     1       5.531   6.466  16.065  0.00  0.00    +0.000 A 
ATOM     19  C   UNL     1       4.486   6.471  17.014  0.00  0.00    +0.000 A 
ATOM     20  C   UNL     1       3.894   5.302  17.503  0.00  0.00    +0.000 A 
ATOM     21  C   UNL     1       4.262   4.129  16.811  0.00  0.00    +0.000 A 
ATOM     22  C   UNL     1       5.261   4.112  15.813  0.00  0.00    +0.000 A 
BRANCH  17  24
ATOM     23  N   UNL     1       7.893   5.249  13.746  0.00  0.00    +0.000 NA
ATOM     24  C   UNL     1       7.033   5.260  14.537  0.00  0.00    +0.000 C 
ENDBRANCH  17  24
ENDBRANCH  16  20
BRANCH  16  25
ATOM     25  N   UNL     1       2.298   4.112  18.946  0.00  0.00    +0.000 N 
ATOM     26  C   UNL     1       1.185   3.688  18.264  0.00  0.00    +0.000 A 
ATOM     27  C   UNL     1       0.711   2.600  18.960  0.00  0.00    +0.000 A 
ATOM     28  N   UNL     1       1.548   2.277  19.991  0.00  0.00    +0.000 NA
ATOM     29  C   UNL     1       2.489   3.193  19.955  0.00  0.00    +0.000 A 
ENDBRANCH  16  25
ENDBRANCH   1  16
TORSDOF 8
ENDMDL
MODEL 4
REMARK VINA RESULT:      -7.5      1.826      2.302
REMARK  Name = 
REMARK  8 active torsions:
REMARK  status: ('A' for Active; 'I' for Inactive)
REMARK    1  A    between atoms: C_2  and  C_3
REMARK    2  A    between atoms: C_6  and  N_7
REMARK    3  A    between atoms: N_7  and  C_8
REMARK    4  A    between atoms: N_7  and  N_21
REMARK    5  A    between atoms: C_8  and  C_9
REMARK    6  A    between atoms: C_12  and  O_13
REMARK    7  A    between atoms: O_13  and  S_14
REMARK    8  A    between atoms: S_14  and  N_15
REMARK                            x       y       z     vdW  Elec       q    Type
REMARK                         _______ _______ _______ _____ _____    ______ ____
ROOT
ATOM      1  C   UNL     1       2.833   6.620  20.108  0.00  0.00    +0.000 C 
ENDROOT
BRANCH   1   2
ATOM      2  C   UNL     1       2.044   7.870  19.737  0.00  0.00    +0.000 A 
ATOM      3  C   UNL     1       1.970   8.267  18.403  0.00  0.00    +0.000 A 
ATOM      4  C   UNL     1       1.151   9.304  17.972  0.00  0.00    +0.000 A 
ATOM      5  C   UNL     1       0.343   9.983  18.869  0.00  0.00    +0.000 A 
ATOM      6  C   UNL     1       0.371   9.629  20.214  0.00  0.00    +0.000 A 
ATOM      7  C   UNL     1       1.221   8.578  20.636  0.00  0.00    +0.000 A 
ATOM      8  F   UNL     1       1.202   8.233  21.933  0.00  0.00    +0.000 F 
BRANCH   5   9
ATOM      9  O   UNL     1      -0.322  11.035  18.310  0.00  0.00    +0.000 OA
BRANCH   9  10
ATOM     10  S   UNL     1      -1.939  11.096  18.170  0.00  0.00    +0.000 S 
ATOM     11  O   UNL     1      -2.460   9.776  17.931  0.00  0.00    +0.000 OA
ATOM     12  O   UNL     1      -2.451  11.975  19.189  0.00  0.00    +0.000 OA
BRANCH  10  13
ATOM     13  N   UNL     1      -2.100  11.923  16.706  0.00  0.00    +0.000 NA
ATOM     14  H   UNL     1      -1.326  11.713  16.078  0.00  0.00    +0.000 HD
ATOM     15  H   UNL     1      -2.251  12.919  16.861  0.00  0.00    +0.000 HD
ENDBRANCH  10  13
ENDBRANCH   9  10
ENDBRANCH   5   9
ENDBRANCH   1   2
BRANCH   1  16
ATOM     16  N   UNL     1       3.090   5.609  19.046  0.00  0.00    +0.000 N 
BRANCH  16  20
ATOM     17  C   UNL     1       6.053   5.395  15.966  0.00  0.00    +0.000 A 
ATOM     18  C   UNL     1       6.002   4.429  16.966  0.00  0.00    +0.000 A 
ATOM     19  C   UNL     1       5.130   4.578  18.065  0.00  0.00    +0.000 A 
ATOM     20  C   UNL     1       4.195   5.614  18.162  0.00  0.00    +0.000 A 
ATOM     21  C   UNL     1       4.343   6.626  17.190  0.00  0.00    +0.000 A 
ATOM     22  C   UNL     1       5.254   6.526  16.117  0.00  0.00    +0.000 A 
BRANCH  17  24
ATOM     23  N   UNL     1       7.623   5.130  13.906  0.00  0.00    +0.000 NA
ATOM     24  C   UNL     1       6.909   5.230  14.825  0.00  0.00    +0.000 C 
ENDBRANCH  17  24
ENDBRANCH  16  20
BRANCH  16  25
ATOM     25  N   UNL     1       2.138   4.565  19.009  0.00  0.00    +0.000 N 
ATOM     26  C   UNL     1       1.524   3.940  20.066  0.00  0.00    +0.000 A 
ATOM     27  C   UNL     1       0.749   2.946  19.514  0.00  0.00    +0.000 A 
ATOM     28  N   UNL     1       0.787   2.999  18.149  0.00  0.00    +0.000 NA
ATOM     29  C   UNL     1       1.618   3.978  17.876  0.00  0.00    +0.000 A 
ENDBRANCH  16  25
ENDBRANCH   1  16
TORSDOF 8
ENDMDL
MODEL 5
REMARK VINA RESULT:      -7.5      1.057      1.425
REMARK  Name = 
REMARK  8 active torsions:
REMARK  status: ('A' for Active; 'I' for Inactive)
REMARK    1  A    between atoms: C_2  and  C_3
REMARK    2  A    between atoms: C_6  and  N_7
REMARK    3  A    between atoms: N_7  and  C_8
REMARK    4  A    between atoms: N_7  and  N_21
REMARK    5  A    between atoms: C_8  and  C_9
REMARK    6  A    between atoms: C_12  and  O_13
REMARK    7  A    between atoms: O_13  and  S_14
REMARK    8  A    between atoms: S_14  and  N_15
REMARK                            x       y       z     vdW  Elec       q    Type
REMARK                         _______ _______ _______ _____ _____    ______ ____
ROOT
ATOM      1  C   UNL     1       3.182   6.268  19.814  0.00  0.00    +0.000 C 
ENDROOT
BRANCH   1   2
ATOM      2  C   UNL     1       2.371   7.485  19.384  0.00  0.00    +0.000 A 
ATOM      3  C   UNL     1       1.540   8.119  20.306  0.00  0.00    +0.000 A 
ATOM      4  C   UNL     1       0.888   9.316  20.031  0.00  0.00    +0.000 A 
ATOM      5  C   UNL     1       1.061   9.948  18.811  0.00  0.00    +0.000 A 
ATOM      6  C   UNL     1       1.882   9.364  17.852  0.00  0.00    +0.000 A 
ATOM      7  C   UNL     1       2.528   8.138  18.145  0.00  0.00    +0.000 A 
ATOM      8  F   UNL     1       3.342   7.616  17.215  0.00  0.00    +0.000 F 
BRANCH   5   9
ATOM      9  O   UNL     1       0.278  11.055  18.659  0.00  0.00    +0.000 OA
BRANCH   9  10
ATOM     10  S   UNL     1      -1.302  10.987  18.290  0.00  0.00    +0.000 S 
ATOM     11  O   UNL     1      -1.571   9.813  17.501  0.00  0.00    +0.000 OA
ATOM     12  O   UNL     1      -2.058  11.341  19.463  0.00  0.00    +0.000 OA
BRANCH  10  13
ATOM     13  N   UNL     1      -1.436  12.292  17.227  0.00  0.00    +0.000 NA
ATOM     14  H   UNL     1      -0.547  12.489  16.771  0.00  0.00    +0.000 HD
ATOM     15  H   UNL     1      -1.856  13.100  17.687  0.00  0.00    +0.000 HD
ENDBRANCH  10  13
ENDBRANCH   9  10
ENDBRANCH   5   9
ENDBRANCH   1   2
BRANCH   1  16
ATOM     16  N   UNL     1       3.288   5.123  18.869  0.00  0.00    +0.000 N 
BRANCH  16  20
ATOM     17  C   UNL     1       6.274   5.057  15.805  0.00  0.00    +0.000 A 
ATOM     18  C   UNL     1       5.111   4.305  15.674  0.00  0.00    +0.000 A 
ATOM     19  C   UNL     1       4.197   4.203  16.745  0.00  0.00    +0.000 A 
ATOM     20  C   UNL     1       4.331   4.928  17.934  0.00  0.00    +0.000 A 
ATOM     21  C   UNL     1       5.566   5.595  18.074  0.00  0.00    +0.000 A 
ATOM     22  C   UNL     1       6.522   5.657  17.037  0.00  0.00    +0.000 A 
BRANCH  17  24
ATOM     23  N   UNL     1       7.901   5.305  13.787  0.00  0.00    +0.000 NA
ATOM     24  C   UNL     1       7.188   5.198  14.706  0.00  0.00    +0.000 C 
ENDBRANCH  17  24
ENDBRANCH  16  20
BRANCH  16  25
ATOM     25  N   UNL     1       2.253   4.169  19.008  0.00  0.00    +0.000 N 
ATOM     26  C   UNL     1       1.649   3.736  20.162  0.00  0.00    +0.000 A 
ATOM     27  C   UNL     1       0.767   2.754  19.778  0.00  0.00    +0.000 A 
ATOM     28  N   UNL     1       0.734   2.633  18.416  0.00  0.00    +0.000 NA
ATOM     29  C   UNL     1       1.626   3.494  17.984  0.00  0.00    +0.000 A 
ENDBRANCH  16  25
ENDBRANCH   1  16
TORSDOF 8
ENDMDL
MODEL 6
REMARK VINA RESULT:      -7.5      4.138      6.965
REMARK  Name = 
REMARK  8 active torsions:
REMARK  status: ('A' for Active; 'I' for Inactive)
REMARK    1  A    between atoms: C_2  and  C_3
REMARK    2  A    between atoms: C_6  and  N_7
REMARK    3  A    between atoms: N_7  and  C_8
REMARK    4  A    between atoms: N_7  and  N_21
REMARK    5  A    between atoms: C_8  and  C_9
REMARK    6  A    between atoms: C_12  and  O_13
REMARK    7  A    between atoms: O_13  and  S_14
REMARK    8  A    between atoms: S_14  and  N_15
REMARK                            x       y       z     vdW  Elec       q    Type
REMARK                         _______ _______ _______ _____ _____    ______ ____
ROOT
ATOM      1  C   UNL     1       4.274   4.827  19.938  0.00  0.00    +0.000 C 
ENDROOT
BRANCH   1   2
ATOM      2  C   UNL     1       5.267   4.691  18.790  0.00  0.00    +0.000 A 
ATOM      3  C   UNL     1       4.836   4.191  17.562  0.00  0.00    +0.000 A 
ATOM      4  C   UNL     1       5.643   4.178  16.431  0.00  0.00    +0.000 A 
ATOM      5  C   UNL     1       6.928   4.694  16.477  0.00  0.00    +0.000 A 
ATOM      6  C   UNL     1       7.412   5.211  17.674  0.00  0.00    +0.000 A 
ATOM      7  C   UNL     1       6.579   5.204  18.820  0.00  0.00    +0.000 A 
ATOM      8  F   UNL     1       7.059   5.742  19.952  0.00  0.00    +0.000 F 
BRANCH   5   9
ATOM      9  O   UNL     1       7.624   4.516  15.317  0.00  0.00    +0.000 OA
BRANCH   9  10
ATOM     10  S   UNL     1       7.062   4.965  13.861  0.00  0.00    +0.000 S 
ATOM     11  O   UNL     1       6.862   3.803  13.034  0.00  0.00    +0.000 OA
ATOM     12  O   UNL     1       6.058   5.979  14.054  0.00  0.00    +0.000 OA
BRANCH  10  13
ATOM     13  N   UNL     1       8.415   5.751  13.226  0.00  0.00    +0.000 NA
ATOM     14  H   UNL     1       8.874   6.323  13.933  0.00  0.00    +0.000 HD
ATOM     15  H   UNL     1       8.180   6.255  12.371  0.00  0.00    +0.000 HD
ENDBRANCH  10  13
ENDBRANCH   9  10
ENDBRANCH   5   9
ENDBRANCH   1   2
BRANCH   1  16
ATOM     16  N   UNL     1       2.903   5.317  19.629  0.00  0.00    +0.000 N 
BRANCH  16  20
ATOM     17  C   UNL     1       1.243   9.217  19.037  0.00  0.00    +0.000 A 
ATOM     18  C   UNL     1       1.984   8.605  18.032  0.00  0.00    +0.000 A 
ATOM     19  C   UNL     1       2.660   7.390  18.275  0.00  0.00    +0.000 A 
ATOM     20  C   UNL     1       2.536   6.675  19.471  0.00  0.00    +0.000 A 
ATOM     21  C   UNL     1       1.866   7.370  20.500  0.00  0.00    +0.000 A 
ATOM     22  C   UNL     1       1.236   8.617  20.294  0.00  0.00    +0.000 A 
BRANCH  17  24
ATOM     23  N   UNL     1      -0.098  11.398  18.562  0.00  0.00    +0.000 NA
ATOM     24  C   UNL     1       0.520  10.431  18.784  0.00  0.00    +0.000 C 
ENDBRANCH  17  24
ENDBRANCH  16  20
BRANCH  16  25
ATOM     25  N   UNL     1       1.954   4.286  19.446  0.00  0.00    +0.000 N 
ATOM     26  C   UNL     1       1.337   3.522  20.405  0.00  0.00    +0.000 A 
ATOM     27  C   UNL     1       0.567   2.610  19.720  0.00  0.00    +0.000 A 
ATOM     28  N   UNL     1       0.612   2.847  18.375  0.00  0.00    +0.000 NA
ATOM     29  C   UNL     1       1.442   3.856  18.241  0.00  0.00    +0.000 A 
ENDBRANCH  16  25
ENDBRANCH   1  16
TORSDOF 8
ENDMDL
MODEL 7
REMARK VINA RESULT:      -7.4      4.677      7.480
REMARK  Name = 
REMARK  8 active torsions:
REMARK  status: ('A' for Active; 'I' for Inactive)
REMARK    1  A    between atoms: C_2  and  C_3
REMARK    2  A    between atoms: C_6  and  N_7
REMARK    3  A    between atoms: N_7  and  C_8
REMARK    4  A    between atoms: N_7  and  N_21
REMARK    5  A    between atoms: C_8  and  C_9
REMARK    6  A    between atoms: C_12  and  O_13
REMARK    7  A    between atoms: O_13  and  S_14
REMARK    8  A    between atoms: S_14  and  N_15
REMARK                            x       y       z     vdW  Elec       q    Type
REMARK                         _______ _______ _______ _____ _____    ______ ____
ROOT
ATOM      1  C   UNL     1       4.627   6.102  18.540  0.00  0.00    +0.000 C 
ENDROOT
BRANCH   1   2
ATOM      2  C   UNL     1       5.179   5.445  17.281  0.00  0.00    +0.000 A 
ATOM      3  C   UNL     1       5.553   4.102  17.312  0.00  0.00    +0.000 A 
ATOM      4  C   UNL     1       5.922   3.398  16.172  0.00  0.00    +0.000 A 
ATOM      5  C   UNL     1       5.911   4.012  14.930  0.00  0.00    +0.000 A 
ATOM      6  C   UNL     1       5.541   5.350  14.836  0.00  0.00    +0.000 A 
ATOM      7  C   UNL     1       5.181   6.055  16.010  0.00  0.00    +0.000 A 
ATOM      8  F   UNL     1       4.795   7.334  15.885  0.00  0.00    +0.000 F 
BRANCH   5   9
ATOM      9  O   UNL     1       6.394   3.220  13.930  0.00  0.00    +0.000 OA
BRANCH   9  10
ATOM     10  S   UNL     1       6.032   3.442  12.363  0.00  0.00    +0.000 S 
ATOM     11  O   UNL     1       4.615   3.651  12.211  0.00  0.00    +0.000 OA
ATOM     12  O   UNL     1       7.025   4.311  11.785  0.00  0.00    +0.000 OA
BRANCH  10  13
ATOM     13  N   UNL     1       6.335   1.900  11.745  0.00  0.00    +0.000 NA
ATOM     14  H   UNL     1       5.629   1.234  12.056  0.00  0.00    +0.000 HD
ATOM     15  H   UNL     1       7.294   1.609  11.934  0.00  0.00    +0.000 HD
ENDBRANCH  10  13
ENDBRANCH   9  10
ENDBRANCH   5   9
ENDBRANCH   1   2
BRANCH   1  16
ATOM     16  N   UNL     1       3.152   6.122  18.736  0.00  0.00    +0.000 N 
BRANCH  16  20
ATOM     17  C   UNL     1       1.256   9.940  19.103  0.00  0.00    +0.000 A 
ATOM     18  C   UNL     1       1.275   9.055  20.175  0.00  0.00    +0.000 A 
ATOM     19  C   UNL     1       1.761   7.740  20.014  0.00  0.00    +0.000 A 
ATOM     20  C   UNL     1       2.355   7.287  18.831  0.00  0.00    +0.000 A 
ATOM     21  C   UNL     1       2.227   8.170  17.738  0.00  0.00    +0.000 A 
ATOM     22  C   UNL     1       1.685   9.468  17.865  0.00  0.00    +0.000 A 
BRANCH  17  24
ATOM     23  N   UNL     1       0.411  12.380  19.441  0.00  0.00    +0.000 NA
ATOM     24  C   UNL     1       0.800  11.292  19.271  0.00  0.00    +0.000 C 
ENDBRANCH  17  24
ENDBRANCH  16  20
BRANCH  16  25
ATOM     25  N   UNL     1       2.563   4.837  18.772  0.00  0.00    +0.000 N 
ATOM     26  C   UNL     1       1.710   4.269  17.859  0.00  0.00    +0.000 A 
ATOM     27  C   UNL     1       1.358   3.047  18.383  0.00  0.00    +0.000 A 
ATOM     28  N   UNL     1       2.040   2.799  19.542  0.00  0.00    +0.000 NA
ATOM     29  C   UNL     1       2.756   3.881  19.746  0.00  0.00    +0.000 A 
ENDBRANCH  16  25
ENDBRANCH   1  16
TORSDOF 8
ENDMDL
MODEL 8
REMARK VINA RESULT:      -7.3      1.095      1.539
REMARK  Name = 
REMARK  8 active torsions:
REMARK  status: ('A' for Active; 'I' for Inactive)
REMARK    1  A    between atoms: C_2  and  C_3
REMARK    2  A    between atoms: C_6  and  N_7
REMARK    3  A    between atoms: N_7  and  C_8
REMARK    4  A    between atoms: N_7  and  N_21
REMARK    5  A    between atoms: C_8  and  C_9
REMARK    6  A    between atoms: C_12  and  O_13
REMARK    7  A    between atoms: O_13  and  S_14
REMARK    8  A    between atoms: S_14  and  N_15
REMARK                            x       y       z     vdW  Elec       q    Type
REMARK                         _______ _______ _______ _____ _____    ______ ____
ROOT
ATOM      1  C   UNL     1       3.789   5.561  19.566  0.00  0.00    +0.000 C 
ENDROOT
BRANCH   1   2
ATOM      2  C   UNL     1       3.035   6.864  19.327  0.00  0.00    +0.000 A 
ATOM      3  C   UNL     1       3.189   7.536  18.116  0.00  0.00    +0.000 A 
ATOM      4  C   UNL     1       2.425   8.644  17.769  0.00  0.00    +0.000 A 
ATOM      5  C   UNL     1       1.444   9.119  18.624  0.00  0.00    +0.000 A 
ATOM      6  C   UNL     1       1.241   8.486  19.846  0.00  0.00    +0.000 A 
ATOM      7  C   UNL     1       2.038   7.366  20.188  0.00  0.00    +0.000 A 
ATOM      8  F   UNL     1       1.796   6.753  21.357  0.00  0.00    +0.000 F 
BRANCH   5   9
ATOM      9  O   UNL     1       0.853  10.268  18.185  0.00  0.00    +0.000 OA
BRANCH   9  10
ATOM     10  S   UNL     1       1.266  11.744  18.722  0.00  0.00    +0.000 S 
ATOM     11  O   UNL     1       1.037  11.832  20.141  0.00  0.00    +0.000 OA
ATOM     12  O   UNL     1       2.506  12.125  18.098  0.00  0.00    +0.000 OA
BRANCH  10  13
ATOM     13  N   UNL     1       0.064  12.690  18.006  0.00  0.00    +0.000 NA
ATOM     14  H   UNL     1      -0.708  12.115  17.674  0.00  0.00    +0.000 HD
ATOM     15  H   UNL     1       0.457  13.309  17.297  0.00  0.00    +0.000 HD
ENDBRANCH  10  13
ENDBRANCH   9  10
ENDBRANCH   5   9
ENDBRANCH   1   2
BRANCH   1  16
ATOM     16  N   UNL     1       3.787   4.538  18.486  0.00  0.00    +0.000 N 
BRANCH  16  20
ATOM     17  C   UNL     1       6.585   4.895  15.268  0.00  0.00    +0.000 A 
ATOM     18  C   UNL     1       5.276   4.495  15.024  0.00  0.00    +0.000 A 
ATOM     19  C   UNL     1       4.394   4.228  16.094  0.00  0.00    +0.000 A 
ATOM     20  C   UNL     1       4.729   4.459  17.432  0.00  0.00    +0.000 A 
ATOM     21  C   UNL     1       6.089   4.764  17.650  0.00  0.00    +0.000 A 
ATOM     22  C   UNL     1       7.003   4.974  16.594  0.00  0.00    +0.000 A 
BRANCH  17  24
ATOM     23  N   UNL     1       8.191   5.500  13.309  0.00  0.00    +0.000 NA
ATOM     24  C   UNL     1       7.474   5.207  14.184  0.00  0.00    +0.000 C 
ENDBRANCH  17  24
ENDBRANCH  16  20
BRANCH  16  25
ATOM     25  N   UNL     1       2.762   3.573  18.613  0.00  0.00    +0.000 N 
ATOM     26  C   UNL     1       1.432   3.703  18.299  0.00  0.00    +0.000 A 
ATOM     27  C   UNL     1       0.840   2.520  18.678  0.00  0.00    +0.000 A 
ATOM     28  N   UNL     1       1.775   1.628  19.124  0.00  0.00    +0.000 NA
ATOM     29  C   UNL     1       2.913   2.281  19.069  0.00  0.00    +0.000 A 
ENDBRANCH  16  25
ENDBRANCH   1  16
TORSDOF 8
ENDMDL
MODEL 9
REMARK VINA RESULT:      -7.3      1.399      1.810
REMARK  Name = 
REMARK  8 active torsions:
REMARK  status: ('A' for Active; 'I' for Inactive)
REMARK    1  A    between atoms: C_2  and  C_3
REMARK    2  A    between atoms: C_6  and  N_7
REMARK    3  A    between atoms: N_7  and  C_8
REMARK    4  A    between atoms: N_7  and  N_21
REMARK    5  A    between atoms: C_8  and  C_9
REMARK    6  A    between atoms: C_12  and  O_13
REMARK    7  A    between atoms: O_13  and  S_14
REMARK    8  A    between atoms: S_14  and  N_15
REMARK                            x       y       z     vdW  Elec       q    Type
REMARK                         _______ _______ _______ _____ _____    ______ ____
ROOT
ATOM      1  C   UNL     1       3.077   6.493  19.743  0.00  0.00    +0.000 C 
ENDROOT
BRANCH   1   2
ATOM      2  C   UNL     1       2.208   7.726  19.524  0.00  0.00    +0.000 A 
ATOM      3  C   UNL     1       2.049   8.236  18.236  0.00  0.00    +0.000 A 
ATOM      4  C   UNL     1       1.159   9.261  17.939  0.00  0.00    +0.000 A 
ATOM      5  C   UNL     1       0.363   9.811  18.930  0.00  0.00    +0.000 A 
ATOM      6  C   UNL     1       0.474   9.340  20.233  0.00  0.00    +0.000 A 
ATOM      7  C   UNL     1       1.396   8.303  20.520  0.00  0.00    +0.000 A 
ATOM      8  F   UNL     1       1.457   7.844  21.779  0.00  0.00    +0.000 F 
BRANCH   5   9
ATOM      9  O   UNL     1      -0.381  10.871  18.500  0.00  0.00    +0.000 OA
BRANCH   9  10
ATOM     10  S   UNL     1      -0.097  12.404  18.953  0.00  0.00    +0.000 S 
ATOM     11  O   UNL     1      -0.880  12.724  20.119  0.00  0.00    +0.000 OA
ATOM     12  O   UNL     1       1.319  12.650  18.862  0.00  0.00    +0.000 OA
BRANCH  10  13
ATOM     13  N   UNL     1      -0.809  13.251  17.678  0.00  0.00    +0.000 NA
ATOM     14  H   UNL     1      -0.297  13.106  16.809  0.00  0.00    +0.000 HD
ATOM     15  H   UNL     1      -0.950  14.231  17.920  0.00  0.00    +0.000 HD
ENDBRANCH  10  13
ENDBRANCH   9  10
ENDBRANCH   5   9
ENDBRANCH   1   2
BRANCH   1  16
ATOM     16  N   UNL     1       3.036   5.412  18.721  0.00  0.00    +0.000 N 
BRANCH  16  20
ATOM     17  C   UNL     1       5.878   5.230  15.527  0.00  0.00    +0.000 A 
ATOM     18  C   UNL     1       5.340   6.449  15.925  0.00  0.00    +0.000 A 
ATOM     19  C   UNL     1       4.292   6.499  16.870  0.00  0.00    +0.000 A 
ATOM     20  C   UNL     1       3.820   5.368  17.544  0.00  0.00    +0.000 A 
ATOM     21  C   UNL     1       4.312   4.143  17.045  0.00  0.00    +0.000 A 
ATOM     22  C   UNL     1       5.315   4.070  16.054  0.00  0.00    +0.000 A 
BRANCH  17  24
ATOM     23  N   UNL     1       7.863   5.171  13.842  0.00  0.00    +0.000 NA
ATOM     24  C   UNL     1       6.971   5.176  14.597  0.00  0.00    +0.000 C 
ENDBRANCH  17  24
ENDBRANCH  16  20
BRANCH  16  25
ATOM     25  N   UNL     1       2.154   4.354  19.043  0.00  0.00    +0.000 N 
ATOM     26  C   UNL     1       1.922   3.789  20.272  0.00  0.00    +0.000 A 
ATOM     27  C   UNL     1       1.046   2.752  20.049  0.00  0.00    +0.000 A 
ATOM     28  N   UNL     1       0.654   2.718  18.740  0.00  0.00    +0.000 NA
ATOM     29  C   UNL     1       1.326   3.689  18.165  0.00  0.00    +0.000 A 
ENDBRANCH  16  25
ENDBRANCH   1  16
TORSDOF 8
ENDMDL
