MODEL 1
REMARK VINA RESULT:      -7.4      0.000      0.000
REMARK  Name = 
REMARK  3 active torsions:
REMARK  status: ('A' for Active; 'I' for Inactive)
REMARK    1  A    between atoms: C_4  and  C_5
REMARK    2  A    between atoms: C_5  and  N_6
REMARK    3  A    between atoms: C_9  and  N_10
REMARK                            x       y       z     vdW  Elec       q    Type
REMARK                         _______ _______ _______ _____ _____    ______ ____
ROOT
ATOM      1  N   UNL     1       6.589   5.757  16.692  0.00  0.00    +0.000 NA
ATOM      2  C   UNL     1       5.190   6.047  16.373  0.00  0.00    +0.000 C 
ATOM      3  C   UNL     1       4.255   5.944  17.579  0.00  0.00    +0.000 C 
ATOM      4  C   UNL     1       4.344   4.559  18.255  0.00  0.00    +0.000 C 
ATOM      5  C   UNL     1       5.826   4.459  18.685  0.00  0.00    +0.000 C 
ATOM      6  C   UNL     1       6.813   4.585  17.533  0.00  0.00    +0.000 C 
ENDROOT
BRANCH   4   7
ATOM      7  N   UNL     1       3.816   3.446  17.407  0.00  0.00    +0.000 NA
ATOM      8  C   UNL     1       2.603   3.800  16.624  0.00  0.00    +0.000 C 
ATOM      9  C   UNL     1       1.254   4.018  17.350  0.00  0.00    +0.000 C 
ATOM     10  O   UNL     1       0.814   2.929  18.167  0.00  0.00    +0.000 OA
ATOM     11  C   UNL     1       1.497   2.877  19.348  0.00  0.00    +0.000 A 
ATOM     12  C   UNL     1       0.894   3.339  20.516  0.00  0.00    +0.000 A 
ATOM     13  C   UNL     1       1.577   3.247  21.730  0.00  0.00    +0.000 A 
ATOM     14  C   UNL     1       2.802   2.590  21.790  0.00  0.00    +0.000 A 
ATOM     15  C   UNL     1       3.377   2.089  20.629  0.00  0.00    +0.000 A 
ATOM     16  C   UNL     1       2.773   2.320  19.384  0.00  0.00    +0.000 A 
ATOM     17  C   UNL     1       3.571   2.162  18.113  0.00  0.00    +0.000 C 
ENDBRANCH   4   7
BRANCH   1  18
ATOM     18  C   UNL     1       7.465   5.761  15.504  0.00  0.00    +0.000 C 
BRANCH  18  22
ATOM     19  C   UNL     1       6.193   3.569  12.749  0.00  0.00    +0.000 A 
ATOM     20  C   UNL     1       7.112   4.425  12.188  0.00  0.00    +0.000 A 
ATOM     21  O   UNL     1       7.630   5.250  13.140  0.00  0.00    +0.000 OA
ATOM     22  C   UNL     1       7.034   4.928  14.324  0.00  0.00    +0.000 A 
ATOM     23  C   UNL     1       6.147   3.891  14.124  0.00  0.00    +0.000 A 
ENDBRANCH  18  22
ENDBRANCH   1  18
TORSDOF 3
ENDMDL
MODEL 2
REMARK VINA RESULT:      -7.2      1.707      2.356
REMARK  Name = 
REMARK  3 active torsions:
REMARK  status: ('A' for Active; 'I' for Inactive)
REMARK    1  A    between atoms: C_4  and  C_5
REMARK    2  A    between atoms: C_5  and  N_6
REMARK    3  A    between atoms: C_9  and  N_10
REMARK                            x       y       z     vdW  Elec       q    Type
REMARK                         _______ _______ _______ _____ _____    ______ ____
ROOT
ATOM      1  N   UNL     1       6.407   4.436  15.577  0.00  0.00    +0.000 NA
ATOM      2  C   UNL     1       6.326   5.601  16.460  0.00  0.00    +0.000 C 
ATOM      3  C   UNL     1       5.898   5.256  17.887  0.00  0.00    +0.000 C 
ATOM      4  C   UNL     1       4.551   4.504  17.915  0.00  0.00    +0.000 C 
ATOM      5  C   UNL     1       4.831   3.226  17.090  0.00  0.00    +0.000 C 
ATOM      6  C   UNL     1       5.290   3.499  15.665  0.00  0.00    +0.000 C 
ENDROOT
BRANCH   4   7
ATOM      7  N   UNL     1       3.391   5.341  17.480  0.00  0.00    +0.000 NA
ATOM      8  C   UNL     1       3.341   6.687  18.111  0.00  0.00    +0.000 C 
ATOM      9  C   UNL     1       3.001   6.821  19.615  0.00  0.00    +0.000 C 
ATOM     10  O   UNL     1       1.767   6.221  20.019  0.00  0.00    +0.000 OA
ATOM     11  C   UNL     1       1.874   4.863  20.115  0.00  0.00    +0.000 A 
ATOM     12  C   UNL     1       1.996   4.266  21.368  0.00  0.00    +0.000 A 
ATOM     13  C   UNL     1       2.064   2.875  21.467  0.00  0.00    +0.000 A 
ATOM     14  C   UNL     1       1.892   2.088  20.333  0.00  0.00    +0.000 A 
ATOM     15  C   UNL     1       1.724   2.689  19.092  0.00  0.00    +0.000 A 
ATOM     16  C   UNL     1       1.815   4.083  18.963  0.00  0.00    +0.000 A 
ATOM     17  C   UNL     1       2.055   4.705  17.609  0.00  0.00    +0.000 C 
ENDBRANCH   4   7
BRANCH   1  18
ATOM     18  C   UNL     1       6.723   4.791  14.180  0.00  0.00    +0.000 C 
BRANCH  18  22
ATOM     19  C   UNL     1       5.660   2.398  11.505  0.00  0.00    +0.000 A 
ATOM     20  C   UNL     1       4.558   3.157  11.823  0.00  0.00    +0.000 A 
ATOM     21  O   UNL     1       4.875   4.064  12.788  0.00  0.00    +0.000 OA
ATOM     22  C   UNL     1       6.191   3.884  13.099  0.00  0.00    +0.000 A 
ATOM     23  C   UNL     1       6.711   2.869  12.323  0.00  0.00    +0.000 A 
ENDBRANCH  18  22
ENDBRANCH   1  18
TORSDOF 3
ENDMDL
MODEL 3
REMARK VINA RESULT:      -7.0      1.528      2.035
REMARK  Name = 
REMARK  3 active torsions:
REMARK  status: ('A' for Active; 'I' for Inactive)
REMARK    1  A    between atoms: C_4  and  C_5
REMARK    2  A    between atoms: C_5  and  N_6
REMARK    3  A    between atoms: C_9  and  N_10
REMARK                            x       y       z     vdW  Elec       q    Type
REMARK                         _______ _______ _______ _____ _____    ______ ____
ROOT
ATOM      1  N   UNL     1       6.615   4.877  16.305  0.00  0.00    +0.000 NA
ATOM      2  C   UNL     1       6.366   5.983  17.232  0.00  0.00    +0.000 C 
ATOM      3  C   UNL     1       5.794   5.535  18.578  0.00  0.00    +0.000 C 
ATOM      4  C   UNL     1       4.496   4.719  18.405  0.00  0.00    +0.000 C 
ATOM      5  C   UNL     1       4.941   3.506  17.553  0.00  0.00    +0.000 C 
ATOM      6  C   UNL     1       5.548   3.884  16.210  0.00  0.00    +0.000 C 
ENDROOT
BRANCH   4   7
ATOM      7  N   UNL     1       3.351   5.523  17.878  0.00  0.00    +0.000 NA
ATOM      8  C   UNL     1       3.089   6.776  18.634  0.00  0.00    +0.000 C 
ATOM      9  C   UNL     1       2.508   6.704  20.066  0.00  0.00    +0.000 C 
ATOM     10  O   UNL     1       1.282   5.979  20.195  0.00  0.00    +0.000 OA
ATOM     11  C   UNL     1       1.489   4.629  20.159  0.00  0.00    +0.000 A 
ATOM     12  C   UNL     1       1.465   3.895  21.343  0.00  0.00    +0.000 A 
ATOM     13  C   UNL     1       1.636   2.510  21.302  0.00  0.00    +0.000 A 
ATOM     14  C   UNL     1       1.710   1.855  20.076  0.00  0.00    +0.000 A 
ATOM     15  C   UNL     1       1.686   2.590  18.897  0.00  0.00    +0.000 A 
ATOM     16  C   UNL     1       1.677   3.992  18.936  0.00  0.00    +0.000 A 
ATOM     17  C   UNL     1       2.070   4.787  17.715  0.00  0.00    +0.000 C 
ENDBRANCH   4   7
BRANCH   1  18
ATOM     18  C   UNL     1       7.071   5.329  14.977  0.00  0.00    +0.000 C 
BRANCH  18  22
ATOM     19  C   UNL     1       5.757   3.251  12.154  0.00  0.00    +0.000 A 
ATOM     20  C   UNL     1       6.964   3.767  11.743  0.00  0.00    +0.000 A 
ATOM     21  O   UNL     1       7.511   4.528  12.730  0.00  0.00    +0.000 OA
ATOM     22  C   UNL     1       6.645   4.510  13.785  0.00  0.00    +0.000 A 
ATOM     23  C   UNL     1       5.555   3.726  13.469  0.00  0.00    +0.000 A 
ENDBRANCH  18  22
ENDBRANCH   1  18
TORSDOF 3
ENDMDL
MODEL 4
REMARK VINA RESULT:      -6.3      4.695      7.439
REMARK  Name = 
REMARK  3 active torsions:
REMARK  status: ('A' for Active; 'I' for Inactive)
REMARK    1  A    between atoms: C_4  and  C_5
REMARK    2  A    between atoms: C_5  and  N_6
REMARK    3  A    between atoms: C_9  and  N_10
REMARK                            x       y       z     vdW  Elec       q    Type
REMARK                         _______ _______ _______ _____ _____    ______ ____
ROOT
ATOM      1  N   UNL     1       1.302   8.790  19.927  0.00  0.00    +0.000 NA
ATOM      2  C   UNL     1       1.863   8.862  18.577  0.00  0.00    +0.000 C 
ATOM      3  C   UNL     1       1.799   7.536  17.817  0.00  0.00    +0.000 C 
ATOM      4  C   UNL     1       2.493   6.397  18.593  0.00  0.00    +0.000 C 
ATOM      5  C   UNL     1       1.698   6.324  19.918  0.00  0.00    +0.000 C 
ATOM      6  C   UNL     1       1.697   7.622  20.711  0.00  0.00    +0.000 C 
ENDROOT
BRANCH   4   7
ATOM      7  N   UNL     1       3.973   6.571  18.710  0.00  0.00    +0.000 NA
ATOM      8  C   UNL     1       4.667   6.772  17.410  0.00  0.00    +0.000 C 
ATOM      9  C   UNL     1       4.784   5.598  16.409  0.00  0.00    +0.000 C 
ATOM     10  O   UNL     1       5.391   4.410  16.926  0.00  0.00    +0.000 OA
ATOM     11  C   UNL     1       4.529   3.710  17.722  0.00  0.00    +0.000 A 
ATOM     12  C   UNL     1       3.901   2.571  17.224  0.00  0.00    +0.000 A 
ATOM     13  C   UNL     1       3.053   1.832  18.051  0.00  0.00    +0.000 A 
ATOM     14  C   UNL     1       2.930   2.164  19.396  0.00  0.00    +0.000 A 
ATOM     15  C   UNL     1       3.598   3.275  19.898  0.00  0.00    +0.000 A 
ATOM     16  C   UNL     1       4.322   4.114  19.038  0.00  0.00    +0.000 A 
ATOM     17  C   UNL     1       4.686   5.512  19.472  0.00  0.00    +0.000 C 
ENDBRANCH   4   7
BRANCH   1  18
ATOM     18  C   UNL     1       1.460  10.045  20.687  0.00  0.00    +0.000 C 
BRANCH  18  22
ATOM     19  C   UNL     1      -1.241  10.716  23.190  0.00  0.00    +0.000 A 
ATOM     20  C   UNL     1      -1.085  11.866  22.452  0.00  0.00    +0.000 A 
ATOM     21  O   UNL     1      -0.121  11.691  21.506  0.00  0.00    +0.000 OA
ATOM     22  C   UNL     1       0.354  10.419  21.641  0.00  0.00    +0.000 A 
ATOM     23  C   UNL     1      -0.317   9.784  22.665  0.00  0.00    +0.000 A 
ENDBRANCH  18  22
ENDBRANCH   1  18
TORSDOF 3
ENDMDL
MODEL 5
REMARK VINA RESULT:      -6.2      9.755     13.189
REMARK  Name = 
REMARK  3 active torsions:
REMARK  status: ('A' for Active; 'I' for Inactive)
REMARK    1  A    between atoms: C_4  and  C_5
REMARK    2  A    between atoms: C_5  and  N_6
REMARK    3  A    between atoms: C_9  and  N_10
REMARK                            x       y       z     vdW  Elec       q    Type
REMARK                         _______ _______ _______ _____ _____    ______ ____
ROOT
ATOM      1  N   UNL     1       7.609  12.920  22.699  0.00  0.00    +0.000 NA
ATOM      2  C   UNL     1       8.534  11.906  22.190  0.00  0.00    +0.000 C 
ATOM      3  C   UNL     1       9.810  12.493  21.585  0.00  0.00    +0.000 C 
ATOM      4  C   UNL     1       9.499  13.504  20.461  0.00  0.00    +0.000 C 
ATOM      5  C   UNL     1       8.664  14.593  21.174  0.00  0.00    +0.000 C 
ATOM      6  C   UNL     1       7.392  14.070  21.825  0.00  0.00    +0.000 C 
ENDROOT
BRANCH   4   7
ATOM      7  N   UNL     1       8.887  12.878  19.249  0.00  0.00    +0.000 NA
ATOM      8  C   UNL     1       9.612  11.678  18.752  0.00  0.00    +0.000 C 
ATOM      9  C   UNL     1      11.002  11.837  18.090  0.00  0.00    +0.000 C 
ATOM     10  O   UNL     1      11.053  12.737  16.980  0.00  0.00    +0.000 OA
ATOM     11  C   UNL     1      11.044  14.040  17.387  0.00  0.00    +0.000 A 
ATOM     12  C   UNL     1      12.230  14.771  17.390  0.00  0.00    +0.000 A 
ATOM     13  C   UNL     1      12.214  16.115  17.766  0.00  0.00    +0.000 A 
ATOM     14  C   UNL     1      11.003  16.750  18.022  0.00  0.00    +0.000 A 
ATOM     15  C   UNL     1       9.817  16.027  17.971  0.00  0.00    +0.000 A 
ATOM     16  C   UNL     1       9.843  14.642  17.751  0.00  0.00    +0.000 A 
ATOM     17  C   UNL     1       8.645  13.796  18.106  0.00  0.00    +0.000 C 
ENDBRANCH   4   7
BRANCH   1  18
ATOM     18  C   UNL     1       6.339  12.350  23.189  0.00  0.00    +0.000 C 
BRANCH  18  22
ATOM     19  C   UNL     1       6.502  11.294  26.776  0.00  0.00    +0.000 A 
ATOM     20  C   UNL     1       5.289  10.866  26.288  0.00  0.00    +0.000 A 
ATOM     21  O   UNL     1       5.164  11.207  24.975  0.00  0.00    +0.000 OA
ATOM     22  C   UNL     1       6.303  11.866  24.616  0.00  0.00    +0.000 A 
ATOM     23  C   UNL     1       7.155  11.933  25.699  0.00  0.00    +0.000 A 
ENDBRANCH  18  22
ENDBRANCH   1  18
TORSDOF 3
ENDMDL
MODEL 6
REMARK VINA RESULT:      -6.0      5.191      7.592
REMARK  Name = 
REMARK  3 active torsions:
REMARK  status: ('A' for Active; 'I' for Inactive)
REMARK    1  A    between atoms: C_4  and  C_5
REMARK    2  A    between atoms: C_5  and  N_6
REMARK    3  A    between atoms: C_9  and  N_10
REMARK                            x       y       z     vdW  Elec       q    Type
REMARK                         _______ _______ _______ _____ _____    ______ ____
ROOT
ATOM      1  N   UNL     1       0.786   9.603  18.906  0.00  0.00    +0.000 NA
ATOM      2  C   UNL     1       0.710   8.818  20.140  0.00  0.00    +0.000 C 
ATOM      3  C   UNL     1       2.019   8.112  20.496  0.00  0.00    +0.000 C 
ATOM      4  C   UNL     1       2.510   7.204  19.348  0.00  0.00    +0.000 C 
ATOM      5  C   UNL     1       2.705   8.185  18.168  0.00  0.00    +0.000 C 
ATOM      6  C   UNL     1       1.445   8.945  17.781  0.00  0.00    +0.000 C 
ENDROOT
BRANCH   4   7
ATOM      7  N   UNL     1       1.624   6.026  19.099  0.00  0.00    +0.000 NA
ATOM      8  C   UNL     1       1.419   5.157  20.289  0.00  0.00    +0.000 C 
ATOM      9  C   UNL     1       2.586   4.293  20.823  0.00  0.00    +0.000 C 
ATOM     10  O   UNL     1       3.181   3.409  19.868  0.00  0.00    +0.000 OA
ATOM     11  C   UNL     1       4.005   4.078  19.008  0.00  0.00    +0.000 A 
ATOM     12  C   UNL     1       5.386   4.010  19.182  0.00  0.00    +0.000 A 
ATOM     13  C   UNL     1       6.229   4.659  18.279  0.00  0.00    +0.000 A 
ATOM     14  C   UNL     1       5.697   5.269  17.146  0.00  0.00    +0.000 A 
ATOM     15  C   UNL     1       4.321   5.292  16.954  0.00  0.00    +0.000 A 
ATOM     16  C   UNL     1       3.461   4.783  17.938  0.00  0.00    +0.000 A 
ATOM     17  C   UNL     1       2.003   5.170  17.944  0.00  0.00    +0.000 C 
ENDBRANCH   4   7
BRANCH   1  18
ATOM     18  C   UNL     1      -0.507  10.199  18.519  0.00  0.00    +0.000 C 
BRANCH  18  22
ATOM     19  C   UNL     1      -1.454  13.494  20.020  0.00  0.00    +0.000 A 
ATOM     20  C   UNL     1      -0.475  13.746  19.087  0.00  0.00    +0.000 A 
ATOM     21  O   UNL     1      -0.088  12.587  18.487  0.00  0.00    +0.000 OA
ATOM     22  C   UNL     1      -0.818  11.577  19.043  0.00  0.00    +0.000 A 
ATOM     23  C   UNL     1      -1.677  12.099  19.989  0.00  0.00    +0.000 A 
ENDBRANCH  18  22
ENDBRANCH   1  18
TORSDOF 3
ENDMDL
MODEL 7
REMARK VINA RESULT:      -5.9      4.646      6.919
REMARK  Name = 
REMARK  3 active torsions:
REMARK  status: ('A' for Active; 'I' for Inactive)
REMARK    1  A    between atoms: C_4  and  C_5
REMARK    2  A    between atoms: C_5  and  N_6
REMARK    3  A    between atoms: C_9  and  N_10
REMARK                            x       y       z     vdW  Elec       q    Type
REMARK                         _______ _______ _______ _____ _____    ______ ____
ROOT
ATOM      1  N   UNL     1       1.237   8.904  19.800  0.00  0.00    +0.000 NA
ATOM      2  C   UNL     1       1.825   8.870  18.460  0.00  0.00    +0.000 C 
ATOM      3  C   UNL     1       1.768   7.490  17.803  0.00  0.00    +0.000 C 
ATOM      4  C   UNL     1       2.442   6.411  18.678  0.00  0.00    +0.000 C 
ATOM      5  C   UNL     1       1.621   6.443  19.988  0.00  0.00    +0.000 C 
ATOM      6  C   UNL     1       1.610   7.798  20.679  0.00  0.00    +0.000 C 
ENDROOT
BRANCH   4   7
ATOM      7  N   UNL     1       3.920   6.588  18.810  0.00  0.00    +0.000 NA
ATOM      8  C   UNL     1       4.623   6.819  17.520  0.00  0.00    +0.000 C 
ATOM      9  C   UNL     1       4.753   5.667  16.496  0.00  0.00    +0.000 C 
ATOM     10  O   UNL     1       5.360   4.471  16.993  0.00  0.00    +0.000 OA
ATOM     11  C   UNL     1       4.495   3.751  17.766  0.00  0.00    +0.000 A 
ATOM     12  C   UNL     1       3.875   2.620  17.239  0.00  0.00    +0.000 A 
ATOM     13  C   UNL     1       3.024   1.860  18.044  0.00  0.00    +0.000 A 
ATOM     14  C   UNL     1       2.889   2.164  19.395  0.00  0.00    +0.000 A 
ATOM     15  C   UNL     1       3.548   3.267  19.925  0.00  0.00    +0.000 A 
ATOM     16  C   UNL     1       4.276   4.126  19.089  0.00  0.00    +0.000 A 
ATOM     17  C   UNL     1       4.631   5.516  19.555  0.00  0.00    +0.000 C 
ENDBRANCH   4   7
BRANCH   1  18
ATOM     18  C   UNL     1       1.387  10.213  20.464  0.00  0.00    +0.000 C 
BRANCH  18  22
ATOM     19  C   UNL     1       0.285  13.293  18.644  0.00  0.00    +0.000 A 
ATOM     20  C   UNL     1      -0.842  12.539  18.873  0.00  0.00    +0.000 A 
ATOM     21  O   UNL     1      -0.518  11.401  19.547  0.00  0.00    +0.000 OA
ATOM     22  C   UNL     1       0.831  11.418  19.748  0.00  0.00    +0.000 A 
ATOM     23  C   UNL     1       1.360  12.573  19.211  0.00  0.00    +0.000 A 
ENDBRANCH  18  22
ENDBRANCH   1  18
TORSDOF 3
ENDMDL
MODEL 8
REMARK VINA RESULT:      -5.9      9.249     10.849
REMARK  Name = 
REMARK  3 active torsions:
REMARK  status: ('A' for Active; 'I' for Inactive)
REMARK    1  A    between atoms: C_4  and  C_5
REMARK    2  A    between atoms: C_5  and  N_6
REMARK    3  A    between atoms: C_9  and  N_10
REMARK                            x       y       z     vdW  Elec       q    Type
REMARK                         _______ _______ _______ _____ _____    ______ ____
ROOT
ATOM      1  N   UNL     1       2.069  15.524  19.865  0.00  0.00    +0.000 NA
ATOM      2  C   UNL     1       1.821  14.749  21.082  0.00  0.00    +0.000 C 
ATOM      3  C   UNL     1       2.280  13.294  20.984  0.00  0.00    +0.000 C 
ATOM      4  C   UNL     1       1.635  12.570  19.783  0.00  0.00    +0.000 C 
ATOM      5  C   UNL     1       2.113  13.392  18.563  0.00  0.00    +0.000 C 
ATOM      6  C   UNL     1       1.714  14.860  18.613  0.00  0.00    +0.000 C 
ENDROOT
BRANCH   4   7
ATOM      7  N   UNL     1       0.159  12.379  19.925  0.00  0.00    +0.000 NA
ATOM      8  C   UNL     1      -0.292  12.124  21.319  0.00  0.00    +0.000 C 
ATOM      9  C   UNL     1       0.047  10.779  22.004  0.00  0.00    +0.000 C 
ATOM     10  O   UNL     1      -0.379   9.608  21.300  0.00  0.00    +0.000 OA
ATOM     11  C   UNL     1       0.439   9.331  20.242  0.00  0.00    +0.000 A 
ATOM     12  C   UNL     1       1.384   8.313  20.347  0.00  0.00    +0.000 A 
ATOM     13  C   UNL     1       2.191   8.003  19.251  0.00  0.00    +0.000 A 
ATOM     14  C   UNL     1       1.971   8.626  18.027  0.00  0.00    +0.000 A 
ATOM     15  C   UNL     1       0.994   9.608  17.916  0.00  0.00    +0.000 A 
ATOM     16  C   UNL     1       0.290  10.037  19.051  0.00  0.00    +0.000 A 
ATOM     17  C   UNL     1      -0.445  11.355  19.034  0.00  0.00    +0.000 C 
ENDBRANCH   4   7
BRANCH   1  18
ATOM     18  C   UNL     1       1.532  16.897  19.934  0.00  0.00    +0.000 C 
BRANCH  18  22
ATOM     19  C   UNL     1      -0.293  18.189  16.932  0.00  0.00    +0.000 A 
ATOM     20  C   UNL     1       1.006  18.630  16.831  0.00  0.00    +0.000 A 
ATOM     21  O   UNL     1       1.738  18.185  17.890  0.00  0.00    +0.000 OA
ATOM     22  C   UNL     1       0.901  17.456  18.684  0.00  0.00    +0.000 A 
ATOM     23  C   UNL     1      -0.358  17.430  18.123  0.00  0.00    +0.000 A 
ENDBRANCH  18  22
ENDBRANCH   1  18
TORSDOF 3
ENDMDL
MODEL 9
REMARK VINA RESULT:      -5.8      4.033      6.342
REMARK  Name = 
REMARK  3 active torsions:
REMARK  status: ('A' for Active; 'I' for Inactive)
REMARK    1  A    between atoms: C_4  and  C_5
REMARK    2  A    between atoms: C_5  and  N_6
REMARK    3  A    between atoms: C_9  and  N_10
REMARK                            x       y       z     vdW  Elec       q    Type
REMARK                         _______ _______ _______ _____ _____    ______ ____
ROOT
ATOM      1  N   UNL     1       2.353   8.765  17.551  0.00  0.00    +0.000 NA
ATOM      2  C   UNL     1       3.758   8.378  17.412  0.00  0.00    +0.000 C 
ATOM      3  C   UNL     1       3.951   6.927  16.970  0.00  0.00    +0.000 C 
ATOM      4  C   UNL     1       3.246   5.940  17.924  0.00  0.00    +0.000 C 
ATOM      5  C   UNL     1       1.759   6.357  17.845  0.00  0.00    +0.000 C 
ATOM      6  C   UNL     1       1.500   7.803  18.244  0.00  0.00    +0.000 C 
ENDROOT
BRANCH   4   7
ATOM      7  N   UNL     1       3.855   5.891  19.289  0.00  0.00    +0.000 NA
ATOM      8  C   UNL     1       5.266   5.420  19.309  0.00  0.00    +0.000 C 
ATOM      9  C   UNL     1       5.587   3.937  19.004  0.00  0.00    +0.000 C 
ATOM     10  O   UNL     1       4.909   2.982  19.824  0.00  0.00    +0.000 OA
ATOM     11  C   UNL     1       3.606   2.828  19.445  0.00  0.00    +0.000 A 
ATOM     12  C   UNL     1       3.230   1.710  18.703  0.00  0.00    +0.000 A 
ATOM     13  C   UNL     1       1.891   1.532  18.351  0.00  0.00    +0.000 A 
ATOM     14  C   UNL     1       0.922   2.402  18.840  0.00  0.00    +0.000 A 
ATOM     15  C   UNL     1       1.298   3.490  19.619  0.00  0.00    +0.000 A 
ATOM     16  C   UNL     1       2.656   3.765  19.842  0.00  0.00    +0.000 A 
ATOM     17  C   UNL     1       3.085   5.133  20.309  0.00  0.00    +0.000 C 
ENDBRANCH   4   7
BRANCH   1  18
ATOM     18  C   UNL     1       2.179  10.134  18.073  0.00  0.00    +0.000 C 
BRANCH  18  22
ATOM     19  C   UNL     1      -1.215  10.891  19.459  0.00  0.00    +0.000 A 
ATOM     20  C   UNL     1      -0.337  10.911  20.518  0.00  0.00    +0.000 A 
ATOM     21  O   UNL     1       0.928  10.655  20.084  0.00  0.00    +0.000 OA
ATOM     22  C   UNL     1       0.865  10.460  18.735  0.00  0.00    +0.000 A 
ATOM     23  C   UNL     1      -0.440  10.604  18.312  0.00  0.00    +0.000 A 
ENDBRANCH  18  22
ENDBRANCH   1  18
TORSDOF 3
ENDMDL
