MODEL 1
REMARK VINA RESULT:      -7.8      0.000      0.000
REMARK  Name = 
REMARK  3 active torsions:
REMARK  status: ('A' for Active; 'I' for Inactive)
REMARK    1  A    between atoms: C_2  and  O_3
REMARK    2  A    between atoms: C_2  and  C_4
REMARK    3  A    between atoms: C_6  and  C_7
REMARK                            x       y       z     vdW  Elec       q    Type
REMARK                         _______ _______ _______ _____ _____    ______ ____
ROOT
ATOM      1  C   UNL     1       6.347   5.126  18.152  0.00  0.00    +0.000 A 
ATOM      2  C   UNL     1       5.253   4.631  18.758  0.00  0.00    +0.000 A 
ATOM      3  C   UNL     1       4.242   3.951  17.883  0.00  0.00    +0.000 A 
ATOM      4  N   UNL     1       4.376   3.833  16.589  0.00  0.00    +0.000 NA
ATOM      5  C   UNL     1       5.501   4.361  16.016  0.00  0.00    +0.000 A 
ATOM      6  C   UNL     1       5.954   4.397  14.715  0.00  0.00    +0.000 A 
ATOM      7 CL   UNL     1       5.222   3.769  13.324  0.00  0.00    +0.000 Cl
ATOM      8  C   UNL     1       7.185   5.068  14.764  0.00  0.00    +0.000 A 
ATOM      9  N   UNL     1       7.519   5.448  16.003  0.00  0.00    +0.000 NA
ATOM     10  N   UNL     1       6.480   5.003  16.774  0.00  0.00    +0.000 N 
ENDROOT
BRANCH   3  11
ATOM     11  C   UNL     1       3.072   3.389  18.542  0.00  0.00    +0.000 A 
ATOM     12  C   UNL     1       1.843   3.045  18.003  0.00  0.00    +0.000 A 
ATOM     13  C   UNL     1       0.920   2.588  18.988  0.00  0.00    +0.000 A 
ATOM     14  C   UNL     1       1.471   2.586  20.248  0.00  0.00    +0.000 A 
ATOM     15  S   UNL     1       3.099   3.103  20.236  0.00  0.00    +0.000 S 
ENDBRANCH   3  11
BRANCH   1  17
ATOM     16  O   UNL     1       7.623   5.364  20.138  0.00  0.00    +0.000 OA
ATOM     17  C   UNL     1       7.362   5.766  19.013  0.00  0.00    +0.000 C 
BRANCH  17  18
ATOM     18  O   UNL     1       7.987   6.832  18.472  0.00  0.00    +0.000 OA
ATOM     19  H   UNL     1       7.524   7.697  18.591  0.00  0.00    +0.000 HD
ENDBRANCH  17  18
ENDBRANCH   1  17
TORSDOF 3
ENDMDL
MODEL 2
REMARK VINA RESULT:      -7.6      1.226      1.339
REMARK  Name = 
REMARK  3 active torsions:
REMARK  status: ('A' for Active; 'I' for Inactive)
REMARK    1  A    between atoms: C_2  and  O_3
REMARK    2  A    between atoms: C_2  and  C_4
REMARK    3  A    between atoms: C_6  and  C_7
REMARK                            x       y       z     vdW  Elec       q    Type
REMARK                         _______ _______ _______ _____ _____    ______ ____
ROOT
ATOM      1  C   UNL     1       6.460   5.577  16.929  0.00  0.00    +0.000 A 
ATOM      2  C   UNL     1       5.378   5.111  17.579  0.00  0.00    +0.000 A 
ATOM      3  C   UNL     1       4.481   4.179  16.821  0.00  0.00    +0.000 A 
ATOM      4  N   UNL     1       4.700   3.819  15.585  0.00  0.00    +0.000 NA
ATOM      5  C   UNL     1       5.807   4.326  14.961  0.00  0.00    +0.000 A 
ATOM      6  C   UNL     1       6.330   4.146  13.699  0.00  0.00    +0.000 A 
ATOM      7 CL   UNL     1       5.735   3.187  12.436  0.00  0.00    +0.000 Cl
ATOM      8  C   UNL     1       7.495   4.926  13.660  0.00  0.00    +0.000 A 
ATOM      9  N   UNL     1       7.724   5.574  14.808  0.00  0.00    +0.000 NA
ATOM     10  N   UNL     1       6.682   5.196  15.611  0.00  0.00    +0.000 N 
ENDROOT
BRANCH   3  11
ATOM     11  C   UNL     1       3.326   3.650  17.533  0.00  0.00    +0.000 A 
ATOM     12  C   UNL     1       2.108   4.254  17.797  0.00  0.00    +0.000 A 
ATOM     13  C   UNL     1       1.251   3.437  18.591  0.00  0.00    +0.000 A 
ATOM     14  C   UNL     1       1.833   2.231  18.902  0.00  0.00    +0.000 A 
ATOM     15  S   UNL     1       3.390   2.075  18.217  0.00  0.00    +0.000 S 
ENDBRANCH   3  11
BRANCH   1  17
ATOM     16  O   UNL     1       7.807   6.182  18.786  0.00  0.00    +0.000 OA
ATOM     17  C   UNL     1       7.366   6.469  17.681  0.00  0.00    +0.000 C 
BRANCH  17  18
ATOM     18  O   UNL     1       7.676   7.627  17.066  0.00  0.00    +0.000 OA
ATOM     19  H   UNL     1       7.545   7.631  16.086  0.00  0.00    +0.000 HD
ENDBRANCH  17  18
ENDBRANCH   1  17
TORSDOF 3
ENDMDL
MODEL 3
REMARK VINA RESULT:      -7.1      4.174      5.163
REMARK  Name = 
REMARK  3 active torsions:
REMARK  status: ('A' for Active; 'I' for Inactive)
REMARK    1  A    between atoms: C_2  and  O_3
REMARK    2  A    between atoms: C_2  and  C_4
REMARK    3  A    between atoms: C_6  and  C_7
REMARK                            x       y       z     vdW  Elec       q    Type
REMARK                         _______ _______ _______ _____ _____    ______ ____
ROOT
ATOM      1  C   UNL     1       4.846   5.034  18.394  0.00  0.00    +0.000 A 
ATOM      2  C   UNL     1       4.200   6.206  18.252  0.00  0.00    +0.000 A 
ATOM      3  C   UNL     1       2.930   6.378  19.030  0.00  0.00    +0.000 A 
ATOM      4  N   UNL     1       2.436   5.455  19.812  0.00  0.00    +0.000 NA
ATOM      5  C   UNL     1       3.123   4.276  19.917  0.00  0.00    +0.000 A 
ATOM      6  C   UNL     1       2.898   3.129  20.646  0.00  0.00    +0.000 A 
ATOM      7 CL   UNL     1       1.622   2.784  21.705  0.00  0.00    +0.000 Cl
ATOM      8  C   UNL     1       3.967   2.274  20.342  0.00  0.00    +0.000 A 
ATOM      9  N   UNL     1       4.833   2.815  19.476  0.00  0.00    +0.000 NA
ATOM     10  N   UNL     1       4.311   4.054  19.221  0.00  0.00    +0.000 N 
ENDROOT
BRANCH   3  11
ATOM     11  C   UNL     1       2.246   7.657  18.901  0.00  0.00    +0.000 A 
ATOM     12  C   UNL     1       2.134   8.483  17.795  0.00  0.00    +0.000 A 
ATOM     13  C   UNL     1       1.442   9.695  18.082  0.00  0.00    +0.000 A 
ATOM     14  C   UNL     1       1.037   9.757  19.394  0.00  0.00    +0.000 A 
ATOM     15  S   UNL     1       1.463   8.350  20.264  0.00  0.00    +0.000 S 
ENDBRANCH   3  11
BRANCH   1  17
ATOM     16  O   UNL     1       6.283   5.307  16.526  0.00  0.00    +0.000 OA
ATOM     17  C   UNL     1       6.116   4.871  17.657  0.00  0.00    +0.000 C 
BRANCH  17  18
ATOM     18  O   UNL     1       7.085   4.207  18.318  0.00  0.00    +0.000 OA
ATOM     19  H   UNL     1       6.807   3.347  18.720  0.00  0.00    +0.000 HD
ENDBRANCH  17  18
ENDBRANCH   1  17
TORSDOF 3
ENDMDL
MODEL 4
REMARK VINA RESULT:      -6.9      3.782      4.742
REMARK  Name = 
REMARK  3 active torsions:
REMARK  status: ('A' for Active; 'I' for Inactive)
REMARK    1  A    between atoms: C_2  and  O_3
REMARK    2  A    between atoms: C_2  and  C_4
REMARK    3  A    between atoms: C_6  and  C_7
REMARK                            x       y       z     vdW  Elec       q    Type
REMARK                         _______ _______ _______ _____ _____    ______ ____
ROOT
ATOM      1  C   UNL     1       4.879   4.981  18.928  0.00  0.00    +0.000 A 
ATOM      2  C   UNL     1       4.336   6.210  18.879  0.00  0.00    +0.000 A 
ATOM      3  C   UNL     1       2.841   6.288  18.805  0.00  0.00    +0.000 A 
ATOM      4  N   UNL     1       2.067   5.237  18.778  0.00  0.00    +0.000 NA
ATOM      5  C   UNL     1       2.665   4.006  18.820  0.00  0.00    +0.000 A 
ATOM      6  C   UNL     1       2.160   2.725  18.825  0.00  0.00    +0.000 A 
ATOM      7 CL   UNL     1       0.542   2.227  18.771  0.00  0.00    +0.000 Cl
ATOM      8  C   UNL     1       3.277   1.880  18.894  0.00  0.00    +0.000 A 
ATOM      9  N   UNL     1       4.434   2.552  18.931  0.00  0.00    +0.000 NA
ATOM     10  N   UNL     1       4.051   3.866  18.892  0.00  0.00    +0.000 N 
ENDROOT
BRANCH   3  11
ATOM     11  C   UNL     1       2.251   7.620  18.781  0.00  0.00    +0.000 A 
ATOM     12  C   UNL     1       2.201   8.538  17.746  0.00  0.00    +0.000 A 
ATOM     13  C   UNL     1       1.596   9.769  18.133  0.00  0.00    +0.000 A 
ATOM     14  C   UNL     1       1.194   9.754  19.447  0.00  0.00    +0.000 A 
ATOM     15  S   UNL     1       1.516   8.254  20.199  0.00  0.00    +0.000 S 
ENDBRANCH   3  11
BRANCH   1  17
ATOM     16  O   UNL     1       6.981   5.469  19.914  0.00  0.00    +0.000 OA
ATOM     17  C   UNL     1       6.350   4.898  19.035  0.00  0.00    +0.000 C 
BRANCH  17  18
ATOM     18  O   UNL     1       6.955   4.145  18.095  0.00  0.00    +0.000 OA
ATOM     19  H   UNL     1       7.867   4.434  17.847  0.00  0.00    +0.000 HD
ENDBRANCH  17  18
ENDBRANCH   1  17
TORSDOF 3
ENDMDL
MODEL 5
REMARK VINA RESULT:      -6.8      4.627      5.536
REMARK  Name = 
REMARK  3 active torsions:
REMARK  status: ('A' for Active; 'I' for Inactive)
REMARK    1  A    between atoms: C_2  and  O_3
REMARK    2  A    between atoms: C_2  and  C_4
REMARK    3  A    between atoms: C_6  and  C_7
REMARK                            x       y       z     vdW  Elec       q    Type
REMARK                         _______ _______ _______ _____ _____    ______ ____
ROOT
ATOM      1  C   UNL     1       2.318   4.451  20.363  0.00  0.00    +0.000 A 
ATOM      2  C   UNL     1       1.820   5.652  20.708  0.00  0.00    +0.000 A 
ATOM      3  C   UNL     1       2.194   6.816  19.839  0.00  0.00    +0.000 A 
ATOM      4  N   UNL     1       2.970   6.711  18.794  0.00  0.00    +0.000 NA
ATOM      5  C   UNL     1       3.461   5.470  18.487  0.00  0.00    +0.000 A 
ATOM      6  C   UNL     1       4.272   5.015  17.472  0.00  0.00    +0.000 A 
ATOM      7 CL   UNL     1       4.971   5.892  16.203  0.00  0.00    +0.000 Cl
ATOM      8  C   UNL     1       4.408   3.636  17.689  0.00  0.00    +0.000 A 
ATOM      9  N   UNL     1       3.737   3.213  18.767  0.00  0.00    +0.000 NA
ATOM     10  N   UNL     1       3.149   4.348  19.254  0.00  0.00    +0.000 N 
ENDROOT
BRANCH   3  11
ATOM     11  C   UNL     1       1.632   8.111  20.194  0.00  0.00    +0.000 A 
ATOM     12  C   UNL     1       1.213   8.576  21.430  0.00  0.00    +0.000 A 
ATOM     13  C   UNL     1       0.650   9.883  21.363  0.00  0.00    +0.000 A 
ATOM     14  C   UNL     1       0.662  10.384  20.083  0.00  0.00    +0.000 A 
ATOM     15  S   UNL     1       1.376   9.296  18.976  0.00  0.00    +0.000 S 
ENDBRANCH   3  11
BRANCH   1  17
ATOM     16  O   UNL     1       2.677   2.786  22.014  0.00  0.00    +0.000 OA
ATOM     17  C   UNL     1       1.925   3.295  21.195  0.00  0.00    +0.000 C 
BRANCH  17  18
ATOM     18  O   UNL     1       0.674   2.836  20.990  0.00  0.00    +0.000 OA
ATOM     19  H   UNL     1       0.019   3.517  20.698  0.00  0.00    +0.000 HD
ENDBRANCH  17  18
ENDBRANCH   1  17
TORSDOF 3
ENDMDL
MODEL 6
REMARK VINA RESULT:      -6.7      2.621      5.151
REMARK  Name = 
REMARK  3 active torsions:
REMARK  status: ('A' for Active; 'I' for Inactive)
REMARK    1  A    between atoms: C_2  and  O_3
REMARK    2  A    between atoms: C_2  and  C_4
REMARK    3  A    between atoms: C_6  and  C_7
REMARK                            x       y       z     vdW  Elec       q    Type
REMARK                         _______ _______ _______ _____ _____    ______ ____
ROOT
ATOM      1  C   UNL     1       6.804   5.291  18.007  0.00  0.00    +0.000 A 
ATOM      2  C   UNL     1       7.207   5.260  16.724  0.00  0.00    +0.000 A 
ATOM      3  C   UNL     1       6.312   4.555  15.749  0.00  0.00    +0.000 A 
ATOM      4  N   UNL     1       5.191   3.978  16.091  0.00  0.00    +0.000 NA
ATOM      5  C   UNL     1       4.827   4.026  17.410  0.00  0.00    +0.000 A 
ATOM      6  C   UNL     1       3.730   3.548  18.091  0.00  0.00    +0.000 A 
ATOM      7 CL   UNL     1       2.401   2.690  17.484  0.00  0.00    +0.000 Cl
ATOM      8  C   UNL     1       3.922   3.926  19.427  0.00  0.00    +0.000 A 
ATOM      9  N   UNL     1       5.061   4.603  19.615  0.00  0.00    +0.000 NA
ATOM     10  N   UNL     1       5.614   4.668  18.365  0.00  0.00    +0.000 N 
ENDROOT
BRANCH   3  11
ATOM     11  C   UNL     1       6.732   4.547  14.355  0.00  0.00    +0.000 A 
ATOM     12  C   UNL     1       7.691   5.323  13.725  0.00  0.00    +0.000 A 
ATOM     13  C   UNL     1       7.767   5.071  12.324  0.00  0.00    +0.000 A 
ATOM     14  C   UNL     1       6.873   4.106  11.926  0.00  0.00    +0.000 A 
ATOM     15  S   UNL     1       5.970   3.488  13.238  0.00  0.00    +0.000 S 
ENDBRANCH   3  11
BRANCH   1  17
ATOM     16  O   UNL     1       8.246   7.050  18.680  0.00  0.00    +0.000 OA
ATOM     17  C   UNL     1       7.664   6.013  18.967  0.00  0.00    +0.000 C 
BRANCH  17  18
ATOM     18  O   UNL     1       7.765   5.450  20.187  0.00  0.00    +0.000 OA
ATOM     19  H   UNL     1       6.955   5.518  20.750  0.00  0.00    +0.000 HD
ENDBRANCH  17  18
ENDBRANCH   1  17
TORSDOF 3
ENDMDL
MODEL 7
REMARK VINA RESULT:      -6.7      2.809      5.022
REMARK  Name = 
REMARK  3 active torsions:
REMARK  status: ('A' for Active; 'I' for Inactive)
REMARK    1  A    between atoms: C_2  and  O_3
REMARK    2  A    between atoms: C_2  and  C_4
REMARK    3  A    between atoms: C_6  and  C_7
REMARK                            x       y       z     vdW  Elec       q    Type
REMARK                         _______ _______ _______ _____ _____    ______ ____
ROOT
ATOM      1  C   UNL     1       6.734   5.449  17.936  0.00  0.00    +0.000 A 
ATOM      2  C   UNL     1       7.040   5.245  16.642  0.00  0.00    +0.000 A 
ATOM      3  C   UNL     1       5.996   4.582  15.795  0.00  0.00    +0.000 A 
ATOM      4  N   UNL     1       4.836   4.197  16.255  0.00  0.00    +0.000 NA
ATOM      5  C   UNL     1       4.573   4.417  17.580  0.00  0.00    +0.000 A 
ATOM      6  C   UNL     1       3.472   4.157  18.367  0.00  0.00    +0.000 A 
ATOM      7 CL   UNL     1       2.005   3.436  17.925  0.00  0.00    +0.000 Cl
ATOM      8  C   UNL     1       3.804   4.629  19.645  0.00  0.00    +0.000 A 
ATOM      9  N   UNL     1       5.032   5.158  19.700  0.00  0.00    +0.000 NA
ATOM     10  N   UNL     1       5.501   5.031  18.421  0.00  0.00    +0.000 N 
ENDROOT
BRANCH   3  11
ATOM     11  C   UNL     1       6.315   4.387  14.387  0.00  0.00    +0.000 A 
ATOM     12  C   UNL     1       5.653   3.629  13.435  0.00  0.00    +0.000 A 
ATOM     13  C   UNL     1       6.316   3.631  12.174  0.00  0.00    +0.000 A 
ATOM     14  C   UNL     1       7.458   4.397  12.194  0.00  0.00    +0.000 A 
ATOM     15  S   UNL     1       7.710   5.131  13.715  0.00  0.00    +0.000 S 
ENDBRANCH   3  11
BRANCH   1  17
ATOM     16  O   UNL     1       8.208   7.228  18.476  0.00  0.00    +0.000 OA
ATOM     17  C   UNL     1       7.745   6.134  18.767  0.00  0.00    +0.000 C 
BRANCH  17  18
ATOM     18  O   UNL     1       8.126   5.467  19.875  0.00  0.00    +0.000 OA
ATOM     19  H   UNL     1       8.382   4.523  19.732  0.00  0.00    +0.000 HD
ENDBRANCH  17  18
ENDBRANCH   1  17
TORSDOF 3
ENDMDL
MODEL 8
REMARK VINA RESULT:      -6.6      4.299      5.279
REMARK  Name = 
REMARK  3 active torsions:
REMARK  status: ('A' for Active; 'I' for Inactive)
REMARK    1  A    between atoms: C_2  and  O_3
REMARK    2  A    between atoms: C_2  and  C_4
REMARK    3  A    between atoms: C_6  and  C_7
REMARK                            x       y       z     vdW  Elec       q    Type
REMARK                         _______ _______ _______ _____ _____    ______ ____
ROOT
ATOM      1  C   UNL     1       4.768   5.032  18.660  0.00  0.00    +0.000 A 
ATOM      2  C   UNL     1       4.129   6.214  18.589  0.00  0.00    +0.000 A 
ATOM      3  C   UNL     1       2.856   6.344  19.370  0.00  0.00    +0.000 A 
ATOM      4  N   UNL     1       2.353   5.377  20.090  0.00  0.00    +0.000 NA
ATOM      5  C   UNL     1       3.033   4.190  20.124  0.00  0.00    +0.000 A 
ATOM      6  C   UNL     1       2.799   3.001  20.779  0.00  0.00    +0.000 A 
ATOM      7 CL   UNL     1       1.516   2.597  21.808  0.00  0.00    +0.000 Cl
ATOM      8  C   UNL     1       3.865   2.161  20.427  0.00  0.00    +0.000 A 
ATOM      9  N   UNL     1       4.738   2.750  19.601  0.00  0.00    +0.000 NA
ATOM     10  N   UNL     1       4.224   4.006  19.422  0.00  0.00    +0.000 N 
ENDROOT
BRANCH   3  11
ATOM     11  C   UNL     1       2.179   7.632  19.317  0.00  0.00    +0.000 A 
ATOM     12  C   UNL     1       1.456   8.284  20.303  0.00  0.00    +0.000 A 
ATOM     13  C   UNL     1       0.880   9.504  19.846  0.00  0.00    +0.000 A 
ATOM     14  C   UNL     1       1.185   9.756  18.529  0.00  0.00    +0.000 A 
ATOM     15  S   UNL     1       2.184   8.543  17.860  0.00  0.00    +0.000 S 
ENDBRANCH   3  11
BRANCH   1  17
ATOM     16  O   UNL     1       6.125   5.103  16.715  0.00  0.00    +0.000 OA
ATOM     17  C   UNL     1       6.041   4.909  17.920  0.00  0.00    +0.000 C 
BRANCH  17  18
ATOM     18  O   UNL     1       7.110   4.567  18.666  0.00  0.00    +0.000 OA
ATOM     19  H   UNL     1       6.902   4.077  19.499  0.00  0.00    +0.000 HD
ENDBRANCH  17  18
ENDBRANCH   1  17
TORSDOF 3
ENDMDL
MODEL 9
REMARK VINA RESULT:      -6.6      3.884      4.781
REMARK  Name = 
REMARK  3 active torsions:
REMARK  status: ('A' for Active; 'I' for Inactive)
REMARK    1  A    between atoms: C_2  and  O_3
REMARK    2  A    between atoms: C_2  and  C_4
REMARK    3  A    between atoms: C_6  and  C_7
REMARK                            x       y       z     vdW  Elec       q    Type
REMARK                         _______ _______ _______ _____ _____    ______ ____
ROOT
ATOM      1  C   UNL     1       4.662   5.257  17.390  0.00  0.00    +0.000 A 
ATOM      2  C   UNL     1       4.130   6.468  17.641  0.00  0.00    +0.000 A 
ATOM      3  C   UNL     1       2.737   6.495  18.195  0.00  0.00    +0.000 A 
ATOM      4  N   UNL     1       2.036   5.418  18.428  0.00  0.00    +0.000 NA
ATOM      5  C   UNL     1       2.615   4.209  18.147  0.00  0.00    +0.000 A 
ATOM      6  C   UNL     1       2.173   2.911  18.285  0.00  0.00    +0.000 A 
ATOM      7 CL   UNL     1       0.685   2.358  18.874  0.00  0.00    +0.000 Cl
ATOM      8  C   UNL     1       3.231   2.106  17.839  0.00  0.00    +0.000 A 
ATOM      9  N   UNL     1       4.290   2.817  17.435  0.00  0.00    +0.000 NA
ATOM     10  N   UNL     1       3.908   4.116  17.634  0.00  0.00    +0.000 N 
ENDROOT
BRANCH   3  11
ATOM     11  C   UNL     1       2.172   7.803  18.494  0.00  0.00    +0.000 A 
ATOM     12  C   UNL     1       2.042   8.910  17.673  0.00  0.00    +0.000 A 
ATOM     13  C   UNL     1       1.500  10.039  18.354  0.00  0.00    +0.000 A 
ATOM     14  C   UNL     1       1.222   9.760  19.671  0.00  0.00    +0.000 A 
ATOM     15  S   UNL     1       1.586   8.140  20.074  0.00  0.00    +0.000 S 
ENDBRANCH   3  11
BRANCH   1  17
ATOM     16  O   UNL     1       6.471   6.035  16.067  0.00  0.00    +0.000 OA
ATOM     17  C   UNL     1       6.047   5.223  16.878  0.00  0.00    +0.000 C 
BRANCH  17  18
ATOM     18  O   UNL     1       6.817   4.230  17.366  0.00  0.00    +0.000 OA
ATOM     19  H   UNL     1       7.789   4.411  17.361  0.00  0.00    +0.000 HD
ENDBRANCH  17  18
ENDBRANCH   1  17
TORSDOF 3
ENDMDL
