MODEL 1
REMARK VINA RESULT:      -7.6      0.000      0.000
REMARK  Name = 
REMARK  5 active torsions:
REMARK  status: ('A' for Active; 'I' for Inactive)
REMARK    1  A    between atoms: C_1  and  C_2
REMARK    2  A    between atoms: C_5  and  C_6
REMARK    3  A    between atoms: C_6  and  C_7
REMARK    4  A    between atoms: N_11  and  C_12
REMARK    5  A    between atoms: C_12  and  C_13
REMARK                            x       y       z     vdW  Elec       q    Type
REMARK                         _______ _______ _______ _____ _____    ______ ____
ROOT
ATOM      1  C   UNL     1       6.148   6.063  16.013  0.00  0.00    +0.000 C 
ATOM      2  C   UNL     1       7.377   6.906  16.422  0.00  0.00    +0.000 C 
ATOM      3  C   UNL     1       4.921   6.991  15.937  0.00  0.00    +0.000 C 
ATOM      4  C   UNL     1       4.345   6.927  17.320  0.00  0.00    +0.000 C 
ATOM      5  O   UNL     1       3.552   7.735  17.779  0.00  0.00    +0.000 OA
ATOM      6  N   UNL     1       4.820   5.808  17.940  0.00  0.00    +0.000 N 
ATOM      7  C   UNL     1       5.818   5.195  17.226  0.00  0.00    +0.000 C 
ATOM      8  O   UNL     1       6.398   4.168  17.550  0.00  0.00    +0.000 OA
ENDROOT
BRANCH   1  13
ATOM      9  C   UNL     1       6.914   2.692  11.266  0.00  0.00    +0.000 C 
ATOM     10  C   UNL     1       6.707   3.589  12.450  0.00  0.00    +0.000 A 
ATOM     11  C   UNL     1       7.660   4.548  12.799  0.00  0.00    +0.000 A 
ATOM     12  C   UNL     1       7.476   5.358  13.925  0.00  0.00    +0.000 A 
ATOM     13  C   UNL     1       6.340   5.232  14.742  0.00  0.00    +0.000 A 
ATOM     14  C   UNL     1       5.382   4.271  14.367  0.00  0.00    +0.000 A 
ATOM     15  C   UNL     1       5.562   3.464  13.237  0.00  0.00    +0.000 A 
ENDBRANCH   1  13
BRANCH   6  16
ATOM     16  C   UNL     1       4.379   5.371  19.256  0.00  0.00    +0.000 C 
BRANCH  16  17
ATOM     17  C   UNL     1       3.039   4.590  19.241  0.00  0.00    +0.000 C 
ATOM     18  C   UNL     1       3.304   3.108  18.887  0.00  0.00    +0.000 C 
ATOM     19  C   UNL     1       2.129   2.156  19.036  0.00  0.00    +0.000 C 
ATOM     20  N   UNL     1       1.864   1.835  20.417  0.00  0.00    +0.000 N 
ATOM     21  C   UNL     1       1.337   2.692  21.344  0.00  0.00    +0.000 C 
ATOM     22  O   UNL     1       1.129   2.311  22.488  0.00  0.00    +0.000 OA
ATOM     23  C   UNL     1       1.051   4.093  20.872  0.00  0.00    +0.000 C 
ATOM     24  C   UNL     1       2.341   4.857  20.595  0.00  0.00    +0.000 C 
ATOM     25  H   UNL     1       2.085   0.912  20.770  0.00  0.00    +0.000 HD
ENDBRANCH  16  17
ENDBRANCH   6  16
TORSDOF 3
ENDMDL
MODEL 2
REMARK VINA RESULT:      -7.4      5.332      7.826
REMARK  Name = 
REMARK  5 active torsions:
REMARK  status: ('A' for Active; 'I' for Inactive)
REMARK    1  A    between atoms: C_1  and  C_2
REMARK    2  A    between atoms: C_5  and  C_6
REMARK    3  A    between atoms: C_6  and  C_7
REMARK    4  A    between atoms: N_11  and  C_12
REMARK    5  A    between atoms: C_12  and  C_13
REMARK                            x       y       z     vdW  Elec       q    Type
REMARK                         _______ _______ _______ _____ _____    ______ ____
ROOT
ATOM      1  C   UNL     1       0.325  10.305  19.310  0.00  0.00    +0.000 C 
ATOM      2  C   UNL     1       1.253  11.527  19.495  0.00  0.00    +0.000 C 
ATOM      3  C   UNL     1       0.077   9.665  20.689  0.00  0.00    +0.000 C 
ATOM      4  C   UNL     1       1.177   8.651  20.810  0.00  0.00    +0.000 C 
ATOM      5  O   UNL     1       1.532   8.137  21.858  0.00  0.00    +0.000 OA
ATOM      6  N   UNL     1       1.665   8.385  19.564  0.00  0.00    +0.000 N 
ATOM      7  C   UNL     1       1.174   9.243  18.612  0.00  0.00    +0.000 C 
ATOM      8  O   UNL     1       1.437   9.208  17.418  0.00  0.00    +0.000 OA
ENDROOT
BRANCH   1  13
ATOM      9  C   UNL     1      -4.768  11.346  16.580  0.00  0.00    +0.000 C 
ATOM     10  C   UNL     1      -3.444  11.103  17.242  0.00  0.00    +0.000 A 
ATOM     11  C   UNL     1      -2.569  10.128  16.760  0.00  0.00    +0.000 A 
ATOM     12  C   UNL     1      -1.351   9.883  17.404  0.00  0.00    +0.000 A 
ATOM     13  C   UNL     1      -0.972  10.598  18.552  0.00  0.00    +0.000 A 
ATOM     14  C   UNL     1      -1.859  11.588  19.016  0.00  0.00    +0.000 A 
ATOM     15  C   UNL     1      -3.075  11.838  18.369  0.00  0.00    +0.000 A 
ENDBRANCH   1  13
BRANCH   6  16
ATOM     16  C   UNL     1       2.665   7.363  19.296  0.00  0.00    +0.000 C 
BRANCH  16  17
ATOM     17  C   UNL     1       2.093   5.922  19.253  0.00  0.00    +0.000 C 
ATOM     18  C   UNL     1       2.360   5.297  17.863  0.00  0.00    +0.000 C 
ATOM     19  C   UNL     1       2.055   3.816  17.717  0.00  0.00    +0.000 C 
ATOM     20  N   UNL     1       3.061   2.992  18.340  0.00  0.00    +0.000 N 
ATOM     21  C   UNL     1       3.255   2.859  19.688  0.00  0.00    +0.000 C 
ATOM     22  O   UNL     1       4.125   2.113  20.115  0.00  0.00    +0.000 OA
ATOM     23  C   UNL     1       2.355   3.677  20.576  0.00  0.00    +0.000 C 
ATOM     24  C   UNL     1       2.676   5.164  20.468  0.00  0.00    +0.000 C 
ATOM     25  H   UNL     1       3.705   2.462  17.765  0.00  0.00    +0.000 HD
ENDBRANCH  16  17
ENDBRANCH   6  16
TORSDOF 3
ENDMDL
MODEL 3
REMARK VINA RESULT:      -7.3      2.748      7.133
REMARK  Name = 
REMARK  5 active torsions:
REMARK  status: ('A' for Active; 'I' for Inactive)
REMARK    1  A    between atoms: C_1  and  C_2
REMARK    2  A    between atoms: C_5  and  C_6
REMARK    3  A    between atoms: C_6  and  C_7
REMARK    4  A    between atoms: N_11  and  C_12
REMARK    5  A    between atoms: C_12  and  C_13
REMARK                            x       y       z     vdW  Elec       q    Type
REMARK                         _______ _______ _______ _____ _____    ______ ____
ROOT
ATOM      1  C   UNL     1       2.170   5.254  19.776  0.00  0.00    +0.000 C 
ATOM      2  C   UNL     1       1.980   4.632  21.178  0.00  0.00    +0.000 C 
ATOM      3  C   UNL     1       1.331   4.449  18.765  0.00  0.00    +0.000 C 
ATOM      4  C   UNL     1       2.280   3.392  18.284  0.00  0.00    +0.000 C 
ATOM      5  O   UNL     1       1.944   2.369  17.709  0.00  0.00    +0.000 OA
ATOM      6  N   UNL     1       3.556   3.791  18.558  0.00  0.00    +0.000 N 
ATOM      7  C   UNL     1       3.597   4.906  19.357  0.00  0.00    +0.000 C 
ATOM      8  O   UNL     1       4.612   5.476  19.732  0.00  0.00    +0.000 OA
ENDROOT
BRANCH   1  13
ATOM      9  C   UNL     1       0.897  10.981  19.514  0.00  0.00    +0.000 C 
ATOM     10  C   UNL     1       1.269   9.530  19.584  0.00  0.00    +0.000 A 
ATOM     11  C   UNL     1       1.808   8.873  18.477  0.00  0.00    +0.000 A 
ATOM     12  C   UNL     1       2.120   7.510  18.538  0.00  0.00    +0.000 A 
ATOM     13  C   UNL     1       1.896   6.759  19.704  0.00  0.00    +0.000 A 
ATOM     14  C   UNL     1       1.366   7.439  20.816  0.00  0.00    +0.000 A 
ATOM     15  C   UNL     1       1.059   8.805  20.757  0.00  0.00    +0.000 A 
ENDBRANCH   1  13
BRANCH   6  16
ATOM     16  C   UNL     1       4.736   3.059  18.127  0.00  0.00    +0.000 C 
BRANCH  16  17
ATOM     17  C   UNL     1       5.578   3.800  17.056  0.00  0.00    +0.000 C 
ATOM     18  C   UNL     1       4.661   4.722  16.219  0.00  0.00    +0.000 C 
ATOM     19  C   UNL     1       5.353   5.681  15.265  0.00  0.00    +0.000 C 
ATOM     20  N   UNL     1       5.940   6.802  15.956  0.00  0.00    +0.000 N 
ATOM     21  C   UNL     1       7.043   6.748  16.764  0.00  0.00    +0.000 C 
ATOM     22  O   UNL     1       7.475   7.767  17.286  0.00  0.00    +0.000 OA
ATOM     23  C   UNL     1       7.658   5.389  16.963  0.00  0.00    +0.000 C 
ATOM     24  C   UNL     1       6.751   4.488  17.793  0.00  0.00    +0.000 C 
ATOM     25  H   UNL     1       5.521   7.721  15.872  0.00  0.00    +0.000 HD
ENDBRANCH  16  17
ENDBRANCH   6  16
TORSDOF 3
ENDMDL
MODEL 4
REMARK VINA RESULT:      -7.3      3.046      7.514
REMARK  Name = 
REMARK  5 active torsions:
REMARK  status: ('A' for Active; 'I' for Inactive)
REMARK    1  A    between atoms: C_1  and  C_2
REMARK    2  A    between atoms: C_5  and  C_6
REMARK    3  A    between atoms: C_6  and  C_7
REMARK    4  A    between atoms: N_11  and  C_12
REMARK    5  A    between atoms: C_12  and  C_13
REMARK                            x       y       z     vdW  Elec       q    Type
REMARK                         _______ _______ _______ _____ _____    ______ ____
ROOT
ATOM      1  C   UNL     1       2.779   5.673  18.852  0.00  0.00    +0.000 C 
ATOM      2  C   UNL     1       2.962   4.991  20.227  0.00  0.00    +0.000 C 
ATOM      3  C   UNL     1       1.871   4.783  17.982  0.00  0.00    +0.000 C 
ATOM      4  C   UNL     1       2.839   3.888  17.265  0.00  0.00    +0.000 C 
ATOM      5  O   UNL     1       2.535   2.844  16.711  0.00  0.00    +0.000 OA
ATOM      6  N   UNL     1       4.077   4.459  17.308  0.00  0.00    +0.000 N 
ATOM      7  C   UNL     1       4.127   5.545  18.144  0.00  0.00    +0.000 C 
ATOM      8  O   UNL     1       5.110   6.245  18.346  0.00  0.00    +0.000 OA
ENDROOT
BRANCH   1  13
ATOM      9  C   UNL     1       0.713  11.162  19.150  0.00  0.00    +0.000 C 
ATOM     10  C   UNL     1       1.286   9.777  19.072  0.00  0.00    +0.000 A 
ATOM     11  C   UNL     1       1.758   9.263  17.863  0.00  0.00    +0.000 A 
ATOM     12  C   UNL     1       2.258   7.958  17.791  0.00  0.00    +0.000 A 
ATOM     13  C   UNL     1       2.296   7.123  18.921  0.00  0.00    +0.000 A 
ATOM     14  C   UNL     1       1.830   7.663  20.134  0.00  0.00    +0.000 A 
ATOM     15  C   UNL     1       1.335   8.970  20.209  0.00  0.00    +0.000 A 
ENDBRANCH   1  13
BRANCH   6  16
ATOM     16  C   UNL     1       5.235   3.916  16.614  0.00  0.00    +0.000 C 
BRANCH  16  17
ATOM     17  C   UNL     1       5.469   4.531  15.209  0.00  0.00    +0.000 C 
ATOM     18  C   UNL     1       6.960   4.909  15.048  0.00  0.00    +0.000 C 
ATOM     19  C   UNL     1       7.405   5.328  13.657  0.00  0.00    +0.000 C 
ATOM     20  N   UNL     1       7.540   4.199  12.770  0.00  0.00    +0.000 N 
ATOM     21  C   UNL     1       6.507   3.462  12.259  0.00  0.00    +0.000 C 
ATOM     22  O   UNL     1       6.730   2.535  11.493  0.00  0.00    +0.000 OA
ATOM     23  C   UNL     1       5.123   3.857  12.701  0.00  0.00    +0.000 C 
ATOM     24  C   UNL     1       4.900   3.532  14.174  0.00  0.00    +0.000 C 
ATOM     25  H   UNL     1       8.462   3.887  12.488  0.00  0.00    +0.000 HD
ENDBRANCH  16  17
ENDBRANCH   6  16
TORSDOF 3
ENDMDL
MODEL 5
REMARK VINA RESULT:      -7.3      4.908      6.974
REMARK  Name = 
REMARK  5 active torsions:
REMARK  status: ('A' for Active; 'I' for Inactive)
REMARK    1  A    between atoms: C_1  and  C_2
REMARK    2  A    between atoms: C_5  and  C_6
REMARK    3  A    between atoms: C_6  and  C_7
REMARK    4  A    between atoms: N_11  and  C_12
REMARK    5  A    between atoms: C_12  and  C_13
REMARK                            x       y       z     vdW  Elec       q    Type
REMARK                         _______ _______ _______ _____ _____    ______ ____
ROOT
ATOM      1  C   UNL     1       2.518   6.654  18.666  0.00  0.00    +0.000 C 
ATOM      2  C   UNL     1       1.386   5.872  17.960  0.00  0.00    +0.000 C 
ATOM      3  C   UNL     1       2.205   6.713  20.173  0.00  0.00    +0.000 C 
ATOM      4  C   UNL     1       1.413   7.979  20.319  0.00  0.00    +0.000 C 
ATOM      5  O   UNL     1       0.716   8.252  21.283  0.00  0.00    +0.000 OA
ATOM      6  N   UNL     1       1.643   8.766  19.228  0.00  0.00    +0.000 N 
ATOM      7  C   UNL     1       2.339   8.111  18.244  0.00  0.00    +0.000 C 
ATOM      8  O   UNL     1       2.689   8.595  17.177  0.00  0.00    +0.000 OA
ENDROOT
BRANCH   1  13
ATOM      9  C   UNL     1       7.836   4.492  17.432  0.00  0.00    +0.000 C 
ATOM     10  C   UNL     1       6.499   5.083  17.766  0.00  0.00    +0.000 A 
ATOM     11  C   UNL     1       6.012   5.062  19.074  0.00  0.00    +0.000 A 
ATOM     12  C   UNL     1       4.748   5.583  19.373  0.00  0.00    +0.000 A 
ATOM     13  C   UNL     1       3.928   6.135  18.374  0.00  0.00    +0.000 A 
ATOM     14  C   UNL     1       4.440   6.162  17.064  0.00  0.00    +0.000 A 
ATOM     15  C   UNL     1       5.707   5.646  16.765  0.00  0.00    +0.000 A 
ENDBRANCH   1  13
BRANCH   6  16
ATOM     16  C   UNL     1       1.123  10.118  19.091  0.00  0.00    +0.000 C 
BRANCH  16  17
ATOM     17  C   UNL     1      -0.424  10.187  18.984  0.00  0.00    +0.000 C 
ATOM     18  C   UNL     1      -0.903  11.625  19.292  0.00  0.00    +0.000 C 
ATOM     19  C   UNL     1      -2.369  11.921  19.026  0.00  0.00    +0.000 C 
ATOM     20  N   UNL     1      -2.644  12.073  17.619  0.00  0.00    +0.000 N 
ATOM     21  C   UNL     1      -2.640  11.063  16.696  0.00  0.00    +0.000 C 
ATOM     22  O   UNL     1      -2.911  11.296  15.526  0.00  0.00    +0.000 OA
ATOM     23  C   UNL     1      -2.282   9.693  17.206  0.00  0.00    +0.000 C 
ATOM     24  C   UNL     1      -0.811   9.617  17.600  0.00  0.00    +0.000 C 
ATOM     25  H   UNL     1      -2.848  12.991  17.241  0.00  0.00    +0.000 HD
ENDBRANCH  16  17
ENDBRANCH   6  16
TORSDOF 3
ENDMDL
MODEL 6
REMARK VINA RESULT:      -7.3      1.181      1.883
REMARK  Name = 
REMARK  5 active torsions:
REMARK  status: ('A' for Active; 'I' for Inactive)
REMARK    1  A    between atoms: C_1  and  C_2
REMARK    2  A    between atoms: C_5  and  C_6
REMARK    3  A    between atoms: C_6  and  C_7
REMARK    4  A    between atoms: N_11  and  C_12
REMARK    5  A    between atoms: C_12  and  C_13
REMARK                            x       y       z     vdW  Elec       q    Type
REMARK                         _______ _______ _______ _____ _____    ______ ____
ROOT
ATOM      1  C   UNL     1       5.781   6.195  16.490  0.00  0.00    +0.000 C 
ATOM      2  C   UNL     1       6.930   7.160  16.863  0.00  0.00    +0.000 C 
ATOM      3  C   UNL     1       4.482   7.012  16.354  0.00  0.00    +0.000 C 
ATOM      4  C   UNL     1       3.895   6.972  17.734  0.00  0.00    +0.000 C 
ATOM      5  O   UNL     1       3.032   7.734  18.141  0.00  0.00    +0.000 OA
ATOM      6  N   UNL     1       4.455   5.932  18.417  0.00  0.00    +0.000 N 
ATOM      7  C   UNL     1       5.510   5.369  17.746  0.00  0.00    +0.000 C 
ATOM      8  O   UNL     1       6.170   4.413  18.129  0.00  0.00    +0.000 OA
ENDROOT
BRANCH   1  13
ATOM      9  C   UNL     1       6.832   3.012  11.669  0.00  0.00    +0.000 C 
ATOM     10  C   UNL     1       6.572   3.786  12.927  0.00  0.00    +0.000 A 
ATOM     11  C   UNL     1       5.374   3.636  13.628  0.00  0.00    +0.000 A 
ATOM     12  C   UNL     1       5.124   4.387  14.782  0.00  0.00    +0.000 A 
ATOM     13  C   UNL     1       6.058   5.317  15.267  0.00  0.00    +0.000 A 
ATOM     14  C   UNL     1       7.267   5.446  14.558  0.00  0.00    +0.000 A 
ATOM     15  C   UNL     1       7.521   4.690  13.406  0.00  0.00    +0.000 A 
ENDBRANCH   1  13
BRANCH   6  16
ATOM     16  C   UNL     1       4.036   5.531  19.751  0.00  0.00    +0.000 C 
BRANCH  16  17
ATOM     17  C   UNL     1       3.543   4.062  19.838  0.00  0.00    +0.000 C 
ATOM     18  C   UNL     1       2.622   3.895  21.069  0.00  0.00    +0.000 C 
ATOM     19  C   UNL     1       1.883   2.573  21.187  0.00  0.00    +0.000 C 
ATOM     20  N   UNL     1       0.768   2.494  20.274  0.00  0.00    +0.000 N 
ATOM     21  C   UNL     1       0.862   2.365  18.916  0.00  0.00    +0.000 C 
ATOM     22  O   UNL     1      -0.150   2.283  18.233  0.00  0.00    +0.000 OA
ATOM     23  C   UNL     1       2.253   2.344  18.341  0.00  0.00    +0.000 C 
ATOM     24  C   UNL     1       2.924   3.707  18.467  0.00  0.00    +0.000 C 
ATOM     25  H   UNL     1      -0.179   2.546  20.631  0.00  0.00    +0.000 HD
ENDBRANCH  16  17
ENDBRANCH   6  16
TORSDOF 3
ENDMDL
MODEL 7
REMARK VINA RESULT:      -7.2      1.345      1.782
REMARK  Name = 
REMARK  5 active torsions:
REMARK  status: ('A' for Active; 'I' for Inactive)
REMARK    1  A    between atoms: C_1  and  C_2
REMARK    2  A    between atoms: C_5  and  C_6
REMARK    3  A    between atoms: C_6  and  C_7
REMARK    4  A    between atoms: N_11  and  C_12
REMARK    5  A    between atoms: C_12  and  C_13
REMARK                            x       y       z     vdW  Elec       q    Type
REMARK                         _______ _______ _______ _____ _____    ______ ____
ROOT
ATOM      1  C   UNL     1       5.820   5.941  16.706  0.00  0.00    +0.000 C 
ATOM      2  C   UNL     1       6.795   7.093  17.040  0.00  0.00    +0.000 C 
ATOM      3  C   UNL     1       4.378   6.466  16.843  0.00  0.00    +0.000 C 
ATOM      4  C   UNL     1       4.031   6.173  18.273  0.00  0.00    +0.000 C 
ATOM      5  O   UNL     1       3.106   6.688  18.880  0.00  0.00    +0.000 OA
ATOM      6  N   UNL     1       4.887   5.220  18.744  0.00  0.00    +0.000 N 
ATOM      7  C   UNL     1       5.917   4.963  17.875  0.00  0.00    +0.000 C 
ATOM      8  O   UNL     1       6.806   4.142  18.048  0.00  0.00    +0.000 OA
ENDROOT
BRANCH   1  13
ATOM      9  C   UNL     1       6.825   3.133  11.647  0.00  0.00    +0.000 C 
ATOM     10  C   UNL     1       6.558   3.890  12.914  0.00  0.00    +0.000 A 
ATOM     11  C   UNL     1       7.490   4.800  13.417  0.00  0.00    +0.000 A 
ATOM     12  C   UNL     1       7.250   5.477  14.618  0.00  0.00    +0.000 A 
ATOM     13  C   UNL     1       6.076   5.261  15.359  0.00  0.00    +0.000 A 
ATOM     14  C   UNL     1       5.140   4.352  14.831  0.00  0.00    +0.000 A 
ATOM     15  C   UNL     1       5.377   3.679  13.626  0.00  0.00    +0.000 A 
ENDBRANCH   1  13
BRANCH   6  16
ATOM     16  C   UNL     1       4.767   4.616  20.061  0.00  0.00    +0.000 C 
BRANCH  16  17
ATOM     17  C   UNL     1       3.823   3.385  20.104  0.00  0.00    +0.000 C 
ATOM     18  C   UNL     1       2.739   3.599  21.186  0.00  0.00    +0.000 C 
ATOM     19  C   UNL     1       1.607   2.587  21.218  0.00  0.00    +0.000 C 
ATOM     20  N   UNL     1       0.660   2.800  20.151  0.00  0.00    +0.000 N 
ATOM     21  C   UNL     1       0.891   2.557  18.825  0.00  0.00    +0.000 C 
ATOM     22  O   UNL     1       0.009   2.751  18.000  0.00  0.00    +0.000 OA
ATOM     23  C   UNL     1       2.266   2.061  18.466  0.00  0.00    +0.000 C 
ATOM     24  C   UNL     1       3.316   3.150  18.663  0.00  0.00    +0.000 C 
ATOM     25  H   UNL     1      -0.259   3.171  20.360  0.00  0.00    +0.000 HD
ENDBRANCH  16  17
ENDBRANCH   6  16
TORSDOF 3
ENDMDL
MODEL 8
REMARK VINA RESULT:      -6.8      1.586      2.054
REMARK  Name = 
REMARK  5 active torsions:
REMARK  status: ('A' for Active; 'I' for Inactive)
REMARK    1  A    between atoms: C_1  and  C_2
REMARK    2  A    between atoms: C_5  and  C_6
REMARK    3  A    between atoms: C_6  and  C_7
REMARK    4  A    between atoms: N_11  and  C_12
REMARK    5  A    between atoms: C_12  and  C_13
REMARK                            x       y       z     vdW  Elec       q    Type
REMARK                         _______ _______ _______ _____ _____    ______ ____
ROOT
ATOM      1  C   UNL     1       5.486   6.436  16.703  0.00  0.00    +0.000 C 
ATOM      2  C   UNL     1       6.690   7.258  17.219  0.00  0.00    +0.000 C 
ATOM      3  C   UNL     1       4.325   7.404  16.407  0.00  0.00    +0.000 C 
ATOM      4  C   UNL     1       3.571   7.456  17.703  0.00  0.00    +0.000 C 
ATOM      5  O   UNL     1       2.764   8.322  18.000  0.00  0.00    +0.000 OA
ATOM      6  N   UNL     1       3.908   6.364  18.449  0.00  0.00    +0.000 N 
ATOM      7  C   UNL     1       4.961   5.666  17.914  0.00  0.00    +0.000 C 
ATOM      8  O   UNL     1       5.445   4.642  18.375  0.00  0.00    +0.000 OA
ENDROOT
BRANCH   1  13
ATOM      9  C   UNL     1       6.706   3.081  12.041  0.00  0.00    +0.000 C 
ATOM     10  C   UNL     1       6.399   3.900  13.260  0.00  0.00    +0.000 A 
ATOM     11  C   UNL     1       5.153   3.821  13.882  0.00  0.00    +0.000 A 
ATOM     12  C   UNL     1       4.861   4.614  14.998  0.00  0.00    +0.000 A 
ATOM     13  C   UNL     1       5.803   5.514  15.523  0.00  0.00    +0.000 A 
ATOM     14  C   UNL     1       7.061   5.570  14.893  0.00  0.00    +0.000 A 
ATOM     15  C   UNL     1       7.355   4.773  13.780  0.00  0.00    +0.000 A 
ENDBRANCH   1  13
BRANCH   6  16
ATOM     16  C   UNL     1       3.280   6.035  19.719  0.00  0.00    +0.000 C 
BRANCH  16  17
ATOM     17  C   UNL     1       2.478   4.707  19.697  0.00  0.00    +0.000 C 
ATOM     18  C   UNL     1       1.891   4.477  18.284  0.00  0.00    +0.000 C 
ATOM     19  C   UNL     1       1.255   3.122  18.028  0.00  0.00    +0.000 C 
ATOM     20  N   UNL     1       2.243   2.087  17.845  0.00  0.00    +0.000 N 
ATOM     21  C   UNL     1       3.043   1.570  18.827  0.00  0.00    +0.000 C 
ATOM     22  O   UNL     1       3.836   0.674  18.569  0.00  0.00    +0.000 OA
ATOM     23  C   UNL     1       2.888   2.170  20.199  0.00  0.00    +0.000 C 
ATOM     24  C   UNL     1       3.412   3.601  20.238  0.00  0.00    +0.000 C 
ATOM     25  H   UNL     1       2.396   1.694  16.924  0.00  0.00    +0.000 HD
ENDBRANCH  16  17
ENDBRANCH   6  16
TORSDOF 3
ENDMDL
MODEL 9
REMARK VINA RESULT:      -6.6      3.005      7.630
REMARK  Name = 
REMARK  5 active torsions:
REMARK  status: ('A' for Active; 'I' for Inactive)
REMARK    1  A    between atoms: C_1  and  C_2
REMARK    2  A    between atoms: C_5  and  C_6
REMARK    3  A    between atoms: C_6  and  C_7
REMARK    4  A    between atoms: N_11  and  C_12
REMARK    5  A    between atoms: C_12  and  C_13
REMARK                            x       y       z     vdW  Elec       q    Type
REMARK                         _______ _______ _______ _____ _____    ______ ____
ROOT
ATOM      1  C   UNL     1       2.249   5.308  19.877  0.00  0.00    +0.000 C 
ATOM      2  C   UNL     1       2.300   4.489  21.187  0.00  0.00    +0.000 C 
ATOM      3  C   UNL     1       1.368   4.554  18.863  0.00  0.00    +0.000 C 
ATOM      4  C   UNL     1       2.343   3.681  18.129  0.00  0.00    +0.000 C 
ATOM      5  O   UNL     1       2.033   2.712  17.455  0.00  0.00    +0.000 OA
ATOM      6  N   UNL     1       3.600   4.180  18.312  0.00  0.00    +0.000 N 
ATOM      7  C   UNL     1       3.638   5.177  19.253  0.00  0.00    +0.000 C 
ATOM      8  O   UNL     1       4.634   5.802  19.589  0.00  0.00    +0.000 OA
ENDROOT
BRANCH   1  13
ATOM      9  C   UNL     1       0.420  10.847  20.552  0.00  0.00    +0.000 C 
ATOM     10  C   UNL     1       0.932   9.447  20.386  0.00  0.00    +0.000 A 
ATOM     11  C   UNL     1       1.565   9.048  19.208  0.00  0.00    +0.000 A 
ATOM     12  C   UNL     1       2.009   7.731  19.047  0.00  0.00    +0.000 A 
ATOM     13  C   UNL     1       1.829   6.769  20.054  0.00  0.00    +0.000 A 
ATOM     14  C   UNL     1       1.203   7.190  21.242  0.00  0.00    +0.000 A 
ATOM     15  C   UNL     1       0.763   8.510  21.407  0.00  0.00    +0.000 A 
ENDBRANCH   1  13
BRANCH   6  16
ATOM     16  C   UNL     1       4.779   3.645  17.649  0.00  0.00    +0.000 C 
BRANCH  16  17
ATOM     17  C   UNL     1       5.319   4.546  16.507  0.00  0.00    +0.000 C 
ATOM     18  C   UNL     1       6.862   4.615  16.584  0.00  0.00    +0.000 C 
ATOM     19  C   UNL     1       7.569   5.282  15.417  0.00  0.00    +0.000 C 
ATOM     20  N   UNL     1       7.611   4.432  14.252  0.00  0.00    +0.000 N 
ATOM     21  C   UNL     1       6.538   4.106  13.467  0.00  0.00    +0.000 C 
ATOM     22  O   UNL     1       6.687   3.393  12.485  0.00  0.00    +0.000 OA
ATOM     23  C   UNL     1       5.206   4.664  13.893  0.00  0.00    +0.000 C 
ATOM     24  C   UNL     1       4.722   4.013  15.184  0.00  0.00    +0.000 C 
ATOM     25  H   UNL     1       8.487   4.011  13.967  0.00  0.00    +0.000 HD
ENDBRANCH  16  17
ENDBRANCH   6  16
TORSDOF 3
ENDMDL
