MODEL 1
REMARK VINA RESULT:      -8.8      0.000      0.000
REMARK  Name = 
REMARK  8 active torsions:
REMARK  status: ('A' for Active; 'I' for Inactive)
REMARK    1  A    between atoms: C_1  and  C_2
REMARK    2  A    between atoms: C_6  and  C_7
REMARK    3  A    between atoms: C_10  and  C_11
REMARK    4  A    between atoms: C_11  and  C_12
REMARK    5  A    between atoms: C_11  and  C_13
REMARK    6  A    between atoms: C_11  and  C_14
REMARK    7  A    between atoms: C_18  and  C_19
REMARK    8  A    between atoms: C_20  and  C_21
REMARK                            x       y       z     vdW  Elec       q    Type
REMARK                         _______ _______ _______ _____ _____    ______ ____
ROOT
ATOM      1  C   UNL     1       3.669   1.332  18.708  0.00  0.00    +0.000 C 
ATOM      2  C   UNL     1       2.877   2.360  19.464  0.00  0.00    +0.000 A 
ATOM      3  N   UNL     1       2.082   1.882  20.450  0.00  0.00    +0.000 NA
ATOM      4  C   UNL     1       1.359   2.782  21.125  0.00  0.00    +0.000 A 
ATOM      5  N   UNL     1       1.338   4.099  20.895  0.00  0.00    +0.000 NA
ATOM      6  C   UNL     1       2.124   4.561  19.888  0.00  0.00    +0.000 A 
ATOM      7  C   UNL     1       2.952   3.713  19.146  0.00  0.00    +0.000 A 
ENDROOT
BRANCH   6   8
ATOM      8  C   UNL     1       2.000   6.021  19.666  0.00  0.00    +0.000 A 
ATOM      9  C   UNL     1       2.196   6.577  18.392  0.00  0.00    +0.000 A 
ATOM     10  C   UNL     1       2.029   7.950  18.156  0.00  0.00    +0.000 A 
ATOM     11  C   UNL     1       1.624   8.816  19.185  0.00  0.00    +0.000 A 
ATOM     12  C   UNL     1       1.509   8.274  20.474  0.00  0.00    +0.000 A 
ATOM     13  C   UNL     1       1.710   6.914  20.706  0.00  0.00    +0.000 A 
BRANCH  11  14
ATOM     14  C   UNL     1       1.201  10.273  18.936  0.00  0.00    +0.000 C 
ATOM     15  C   UNL     1       2.239  10.910  17.982  0.00  0.00    +0.000 C 
ATOM     16  C   UNL     1      -0.200  10.360  18.299  0.00  0.00    +0.000 C 
BRANCH  14  17
ATOM     17  C   UNL     1       1.184  11.097  20.168  0.00  0.00    +0.000 C 
ATOM     18  N   UNL     1       1.174  11.758  21.128  0.00  0.00    +0.000 NA
ENDBRANCH  14  17
ENDBRANCH  11  14
ENDBRANCH   6   8
BRANCH   7  19
ATOM     19  C   UNL     1       3.832   4.190  18.111  0.00  0.00    +0.000 C 
ATOM     20  C   UNL     1       4.591   4.488  17.224  0.00  0.00    +0.000 C 
BRANCH  20  21
ATOM     21  C   UNL     1       5.519   4.732  16.164  0.00  0.00    +0.000 A 
ATOM     22  C   UNL     1       5.357   4.160  14.905  0.00  0.00    +0.000 A 
ATOM     23  C   UNL     1       6.298   4.424  13.908  0.00  0.00    +0.000 A 
ATOM     24  C   UNL     1       7.385   5.234  14.205  0.00  0.00    +0.000 A 
ATOM     25  N   UNL     1       8.323   5.553  13.229  0.00  0.00    +0.000 N 
ATOM     26  N   UNL     1       7.565   5.790  15.413  0.00  0.00    +0.000 NA
ATOM     27  C   UNL     1       6.632   5.532  16.364  0.00  0.00    +0.000 A 
ATOM     28  H   UNL     1       8.688   4.737  12.758  0.00  0.00    +0.000 HD
ATOM     29  H   UNL     1       9.056   6.095  13.684  0.00  0.00    +0.000 HD
ENDBRANCH  20  21
ENDBRANCH   7  19
TORSDOF 5
ENDMDL
MODEL 2
REMARK VINA RESULT:      -8.5      0.842      1.182
REMARK  Name = 
REMARK  8 active torsions:
REMARK  status: ('A' for Active; 'I' for Inactive)
REMARK    1  A    between atoms: C_1  and  C_2
REMARK    2  A    between atoms: C_6  and  C_7
REMARK    3  A    between atoms: C_10  and  C_11
REMARK    4  A    between atoms: C_11  and  C_12
REMARK    5  A    between atoms: C_11  and  C_13
REMARK    6  A    between atoms: C_11  and  C_14
REMARK    7  A    between atoms: C_18  and  C_19
REMARK    8  A    between atoms: C_20  and  C_21
REMARK                            x       y       z     vdW  Elec       q    Type
REMARK                         _______ _______ _______ _____ _____    ______ ____
ROOT
ATOM      1  C   UNL     1       3.712   1.397  18.841  0.00  0.00    +0.000 C 
ATOM      2  C   UNL     1       2.906   2.430  19.575  0.00  0.00    +0.000 A 
ATOM      3  N   UNL     1       2.112   1.960  20.567  0.00  0.00    +0.000 NA
ATOM      4  C   UNL     1       1.377   2.864  21.223  0.00  0.00    +0.000 A 
ATOM      5  N   UNL     1       1.342   4.175  20.969  0.00  0.00    +0.000 NA
ATOM      6  C   UNL     1       2.126   4.628  19.957  0.00  0.00    +0.000 A 
ATOM      7  C   UNL     1       2.966   3.777  19.233  0.00  0.00    +0.000 A 
ENDROOT
BRANCH   6   8
ATOM      8  C   UNL     1       1.986   6.083  19.708  0.00  0.00    +0.000 A 
ATOM      9  C   UNL     1       2.210   6.623  18.432  0.00  0.00    +0.000 A 
ATOM     10  C   UNL     1       2.029   7.988  18.170  0.00  0.00    +0.000 A 
ATOM     11  C   UNL     1       1.582   8.864  19.173  0.00  0.00    +0.000 A 
ATOM     12  C   UNL     1       1.438   8.340  20.467  0.00  0.00    +0.000 A 
ATOM     13  C   UNL     1       1.653   6.987  20.726  0.00  0.00    +0.000 A 
BRANCH  11  14
ATOM     14  C   UNL     1       1.144  10.310  18.889  0.00  0.00    +0.000 C 
ATOM     15  C   UNL     1       1.053  11.051  20.244  0.00  0.00    +0.000 C 
ATOM     16  C   UNL     1       2.145  11.041  17.973  0.00  0.00    +0.000 C 
BRANCH  14  17
ATOM     17  C   UNL     1      -0.193  10.404  18.255  0.00  0.00    +0.000 C 
ATOM     18  N   UNL     1      -1.237  10.484  17.744  0.00  0.00    +0.000 NA
ENDBRANCH  14  17
ENDBRANCH  11  14
ENDBRANCH   6   8
BRANCH   7  19
ATOM     19  C   UNL     1       3.845   4.246  18.193  0.00  0.00    +0.000 C 
ATOM     20  C   UNL     1       4.600   4.536  17.300  0.00  0.00    +0.000 C 
BRANCH  20  21
ATOM     21  C   UNL     1       5.522   4.771  16.234  0.00  0.00    +0.000 A 
ATOM     22  C   UNL     1       5.350   4.193  14.979  0.00  0.00    +0.000 A 
ATOM     23  C   UNL     1       6.285   4.448  13.975  0.00  0.00    +0.000 A 
ATOM     24  C   UNL     1       7.378   5.255  14.260  0.00  0.00    +0.000 A 
ATOM     25  N   UNL     1       8.311   5.565  13.277  0.00  0.00    +0.000 N 
ATOM     26  N   UNL     1       7.567   5.817  15.464  0.00  0.00    +0.000 NA
ATOM     27  C   UNL     1       6.640   5.567  16.422  0.00  0.00    +0.000 A 
ATOM     28  H   UNL     1       8.670   4.745  12.807  0.00  0.00    +0.000 HD
ATOM     29  H   UNL     1       9.049   6.107  13.724  0.00  0.00    +0.000 HD
ENDBRANCH  20  21
ENDBRANCH   7  19
TORSDOF 5
ENDMDL
MODEL 3
REMARK VINA RESULT:      -8.1      0.822      1.084
REMARK  Name = 
REMARK  8 active torsions:
REMARK  status: ('A' for Active; 'I' for Inactive)
REMARK    1  A    between atoms: C_1  and  C_2
REMARK    2  A    between atoms: C_6  and  C_7
REMARK    3  A    between atoms: C_10  and  C_11
REMARK    4  A    between atoms: C_11  and  C_12
REMARK    5  A    between atoms: C_11  and  C_13
REMARK    6  A    between atoms: C_11  and  C_14
REMARK    7  A    between atoms: C_18  and  C_19
REMARK    8  A    between atoms: C_20  and  C_21
REMARK                            x       y       z     vdW  Elec       q    Type
REMARK                         _______ _______ _______ _____ _____    ______ ____
ROOT
ATOM      1  C   UNL     1       4.077   1.506  19.248  0.00  0.00    +0.000 C 
ATOM      2  C   UNL     1       3.241   2.533  19.957  0.00  0.00    +0.000 A 
ATOM      3  N   UNL     1       2.527   2.081  21.014  0.00  0.00    +0.000 NA
ATOM      4  C   UNL     1       1.766   2.979  21.649  0.00  0.00    +0.000 A 
ATOM      5  N   UNL     1       1.635   4.267  21.318  0.00  0.00    +0.000 NA
ATOM      6  C   UNL     1       2.341   4.700  20.241  0.00  0.00    +0.000 A 
ATOM      7  C   UNL     1       3.200   3.857  19.529  0.00  0.00    +0.000 A 
ENDROOT
BRANCH   6   8
ATOM      8  C   UNL     1       2.097   6.125  19.911  0.00  0.00    +0.000 A 
ATOM      9  C   UNL     1       2.252   6.599  18.599  0.00  0.00    +0.000 A 
ATOM     10  C   UNL     1       1.972   7.931  18.262  0.00  0.00    +0.000 A 
ATOM     11  C   UNL     1       1.492   8.835  19.224  0.00  0.00    +0.000 A 
ATOM     12  C   UNL     1       1.417   8.383  20.550  0.00  0.00    +0.000 A 
ATOM     13  C   UNL     1       1.730   7.065  20.883  0.00  0.00    +0.000 A 
BRANCH  11  14
ATOM     14  C   UNL     1       0.951  10.229  18.868  0.00  0.00    +0.000 C 
ATOM     15  C   UNL     1      -0.163  10.047  17.810  0.00  0.00    +0.000 C 
ATOM     16  C   UNL     1       0.372  10.950  20.101  0.00  0.00    +0.000 C 
BRANCH  14  17
ATOM     17  C   UNL     1       1.973  11.120  18.269  0.00  0.00    +0.000 C 
ATOM     18  N   UNL     1       2.787  11.813  17.806  0.00  0.00    +0.000 NA
ENDBRANCH  14  17
ENDBRANCH  11  14
ENDBRANCH   6   8
BRANCH   7  19
ATOM     19  C   UNL     1       3.997   4.311  18.420  0.00  0.00    +0.000 C 
ATOM     20  C   UNL     1       4.696   4.589  17.479  0.00  0.00    +0.000 C 
BRANCH  20  21
ATOM     21  C   UNL     1       5.565   4.814  16.366  0.00  0.00    +0.000 A 
ATOM     22  C   UNL     1       5.317   4.243  15.120  0.00  0.00    +0.000 A 
ATOM     23  C   UNL     1       6.203   4.487  14.069  0.00  0.00    +0.000 A 
ATOM     24  C   UNL     1       7.320   5.276  14.299  0.00  0.00    +0.000 A 
ATOM     25  N   UNL     1       8.205   5.576  13.268  0.00  0.00    +0.000 N 
ATOM     26  N   UNL     1       7.582   5.831  15.492  0.00  0.00    +0.000 NA
ATOM     27  C   UNL     1       6.703   5.592  16.497  0.00  0.00    +0.000 A 
ATOM     28  H   UNL     1       8.526   4.753  12.778  0.00  0.00    +0.000 HD
ATOM     29  H   UNL     1       8.974   6.105  13.677  0.00  0.00    +0.000 HD
ENDBRANCH  20  21
ENDBRANCH   7  19
TORSDOF 5
ENDMDL
MODEL 4
REMARK VINA RESULT:      -7.6      0.616      1.103
REMARK  Name = 
REMARK  8 active torsions:
REMARK  status: ('A' for Active; 'I' for Inactive)
REMARK    1  A    between atoms: C_1  and  C_2
REMARK    2  A    between atoms: C_6  and  C_7
REMARK    3  A    between atoms: C_10  and  C_11
REMARK    4  A    between atoms: C_11  and  C_12
REMARK    5  A    between atoms: C_11  and  C_13
REMARK    6  A    between atoms: C_11  and  C_14
REMARK    7  A    between atoms: C_18  and  C_19
REMARK    8  A    between atoms: C_20  and  C_21
REMARK                            x       y       z     vdW  Elec       q    Type
REMARK                         _______ _______ _______ _____ _____    ______ ____
ROOT
ATOM      1  C   UNL     1       4.568   1.649  19.619  0.00  0.00    +0.000 C 
ATOM      2  C   UNL     1       3.647   2.640  20.272  0.00  0.00    +0.000 A 
ATOM      3  N   UNL     1       3.019   2.209  21.392  0.00  0.00    +0.000 NA
ATOM      4  C   UNL     1       2.185   3.073  21.979  0.00  0.00    +0.000 A 
ATOM      5  N   UNL     1       1.904   4.306  21.546  0.00  0.00    +0.000 NA
ATOM      6  C   UNL     1       2.524   4.715  20.409  0.00  0.00    +0.000 A 
ATOM      7  C   UNL     1       3.447   3.909  19.736  0.00  0.00    +0.000 A 
ENDROOT
BRANCH   6   8
ATOM      8  C   UNL     1       2.115   6.071  19.970  0.00  0.00    +0.000 A 
ATOM      9  C   UNL     1       1.463   6.950  20.849  0.00  0.00    +0.000 A 
ATOM     10  C   UNL     1       1.119   8.253  20.464  0.00  0.00    +0.000 A 
ATOM     11  C   UNL     1       1.446   8.740  19.187  0.00  0.00    +0.000 A 
ATOM     12  C   UNL     1       2.022   7.836  18.282  0.00  0.00    +0.000 A 
ATOM     13  C   UNL     1       2.330   6.530  18.663  0.00  0.00    +0.000 A 
BRANCH  11  14
ATOM     14  C   UNL     1       1.306  10.219  18.794  0.00  0.00    +0.000 C 
ATOM     15  C   UNL     1       2.509  10.584  17.891  0.00  0.00    +0.000 C 
ATOM     16  C   UNL     1      -0.006  10.486  18.029  0.00  0.00    +0.000 C 
BRANCH  14  17
ATOM     17  C   UNL     1       1.342  11.142  19.954  0.00  0.00    +0.000 C 
ATOM     18  N   UNL     1       1.369  11.878  20.856  0.00  0.00    +0.000 NA
ENDBRANCH  14  17
ENDBRANCH  11  14
ENDBRANCH   6   8
BRANCH   7  19
ATOM     19  C   UNL     1       4.155   4.345  18.562  0.00  0.00    +0.000 C 
ATOM     20  C   UNL     1       4.796   4.615  17.578  0.00  0.00    +0.000 C 
BRANCH  20  21
ATOM     21  C   UNL     1       5.613   4.839  16.426  0.00  0.00    +0.000 A 
ATOM     22  C   UNL     1       5.288   4.301  15.184  0.00  0.00    +0.000 A 
ATOM     23  C   UNL     1       6.125   4.542  14.094  0.00  0.00    +0.000 A 
ATOM     24  C   UNL     1       7.275   5.297  14.281  0.00  0.00    +0.000 A 
ATOM     25  N   UNL     1       8.115   5.594  13.213  0.00  0.00    +0.000 N 
ATOM     26  N   UNL     1       7.611   5.820  15.470  0.00  0.00    +0.000 NA
ATOM     27  C   UNL     1       6.778   5.584  16.514  0.00  0.00    +0.000 A 
ATOM     28  H   UNL     1       8.388   4.772  12.692  0.00  0.00    +0.000 HD
ATOM     29  H   UNL     1       8.917   6.093  13.592  0.00  0.00    +0.000 HD
ENDBRANCH  20  21
ENDBRANCH   7  19
TORSDOF 5
ENDMDL
MODEL 5
REMARK VINA RESULT:      -7.4      3.269      8.089
REMARK  Name = 
REMARK  8 active torsions:
REMARK  status: ('A' for Active; 'I' for Inactive)
REMARK    1  A    between atoms: C_1  and  C_2
REMARK    2  A    between atoms: C_6  and  C_7
REMARK    3  A    between atoms: C_10  and  C_11
REMARK    4  A    between atoms: C_11  and  C_12
REMARK    5  A    between atoms: C_11  and  C_13
REMARK    6  A    between atoms: C_11  and  C_14
REMARK    7  A    between atoms: C_18  and  C_19
REMARK    8  A    between atoms: C_20  and  C_21
REMARK                            x       y       z     vdW  Elec       q    Type
REMARK                         _______ _______ _______ _____ _____    ______ ____
ROOT
ATOM      1  C   UNL     1      -1.880  11.778  21.781  0.00  0.00    +0.000 C 
ATOM      2  C   UNL     1      -0.823  10.740  22.027  0.00  0.00    +0.000 A 
ATOM      3  N   UNL     1      -0.382  10.641  23.303  0.00  0.00    +0.000 NA
ATOM      4  C   UNL     1       0.569   9.731  23.538  0.00  0.00    +0.000 A 
ATOM      5  N   UNL     1       1.131   8.934  22.624  0.00  0.00    +0.000 NA
ATOM      6  C   UNL     1       0.694   9.060  21.345  0.00  0.00    +0.000 A 
ATOM      7  C   UNL     1      -0.325   9.950  20.994  0.00  0.00    +0.000 A 
ENDROOT
BRANCH   6   8
ATOM      8  C   UNL     1       1.407   8.179  20.389  0.00  0.00    +0.000 A 
ATOM      9  C   UNL     1       1.873   8.673  19.160  0.00  0.00    +0.000 A 
ATOM     10  C   UNL     1       2.595   7.865  18.270  0.00  0.00    +0.000 A 
ATOM     11  C   UNL     1       2.909   6.535  18.593  0.00  0.00    +0.000 A 
ATOM     12  C   UNL     1       2.373   6.018  19.782  0.00  0.00    +0.000 A 
ATOM     13  C   UNL     1       1.626   6.819  20.646  0.00  0.00    +0.000 A 
BRANCH  11  14
ATOM     14  C   UNL     1       3.889   5.682  17.771  0.00  0.00    +0.000 C 
ATOM     15  C   UNL     1       3.101   4.482  17.195  0.00  0.00    +0.000 C 
ATOM     16  C   UNL     1       4.515   6.485  16.614  0.00  0.00    +0.000 C 
BRANCH  14  17
ATOM     17  C   UNL     1       4.999   5.122  18.578  0.00  0.00    +0.000 C 
ATOM     18  N   UNL     1       5.871   4.694  19.221  0.00  0.00    +0.000 NA
ENDBRANCH  14  17
ENDBRANCH  11  14
ENDBRANCH   6   8
BRANCH   7  19
ATOM     19  C   UNL     1      -0.840  10.060  19.654  0.00  0.00    +0.000 C 
ATOM     20  C   UNL     1      -1.366  10.126  18.572  0.00  0.00    +0.000 C 
BRANCH  20  21
ATOM     21  C   UNL     1      -2.084  10.162  17.336  0.00  0.00    +0.000 A 
ATOM     22  C   UNL     1      -1.752   9.323  16.275  0.00  0.00    +0.000 A 
ATOM     23  C   UNL     1      -2.479   9.406  15.086  0.00  0.00    +0.000 A 
ATOM     24  C   UNL     1      -3.501  10.338  14.985  0.00  0.00    +0.000 A 
ATOM     25  N   UNL     1      -4.275  10.425  13.833  0.00  0.00    +0.000 N 
ATOM     26  N   UNL     1      -3.834  11.160  15.992  0.00  0.00    +0.000 NA
ATOM     27  C   UNL     1      -3.124  11.055  17.143  0.00  0.00    +0.000 A 
ATOM     28  H   UNL     1      -3.718  10.512  12.994  0.00  0.00    +0.000 HD
ATOM     29  H   UNL     1      -4.911  11.211  13.956  0.00  0.00    +0.000 HD
ENDBRANCH  20  21
ENDBRANCH   7  19
TORSDOF 5
ENDMDL
MODEL 6
REMARK VINA RESULT:      -7.3      1.068      1.614
REMARK  Name = 
REMARK  8 active torsions:
REMARK  status: ('A' for Active; 'I' for Inactive)
REMARK    1  A    between atoms: C_1  and  C_2
REMARK    2  A    between atoms: C_6  and  C_7
REMARK    3  A    between atoms: C_10  and  C_11
REMARK    4  A    between atoms: C_11  and  C_12
REMARK    5  A    between atoms: C_11  and  C_13
REMARK    6  A    between atoms: C_11  and  C_14
REMARK    7  A    between atoms: C_18  and  C_19
REMARK    8  A    between atoms: C_20  and  C_21
REMARK                            x       y       z     vdW  Elec       q    Type
REMARK                         _______ _______ _______ _____ _____    ______ ____
ROOT
ATOM      1  C   UNL     1       4.743   1.542  19.815  0.00  0.00    +0.000 C 
ATOM      2  C   UNL     1       3.761   2.508  20.414  0.00  0.00    +0.000 A 
ATOM      3  N   UNL     1       3.083   2.060  21.497  0.00  0.00    +0.000 NA
ATOM      4  C   UNL     1       2.194   2.902  22.036  0.00  0.00    +0.000 A 
ATOM      5  N   UNL     1       1.905   4.127  21.586  0.00  0.00    +0.000 NA
ATOM      6  C   UNL     1       2.578   4.553  20.485  0.00  0.00    +0.000 A 
ATOM      7  C   UNL     1       3.558   3.772  19.867  0.00  0.00    +0.000 A 
ENDROOT
BRANCH   6   8
ATOM      8  C   UNL     1       2.158   5.898  20.022  0.00  0.00    +0.000 A 
ATOM      9  C   UNL     1       1.473   6.775  20.877  0.00  0.00    +0.000 A 
ATOM     10  C   UNL     1       1.118   8.069  20.470  0.00  0.00    +0.000 A 
ATOM     11  C   UNL     1       1.467   8.548  19.196  0.00  0.00    +0.000 A 
ATOM     12  C   UNL     1       2.077   7.644  18.314  0.00  0.00    +0.000 A 
ATOM     13  C   UNL     1       2.396   6.347  18.716  0.00  0.00    +0.000 A 
BRANCH  11  14
ATOM     14  C   UNL     1       1.314  10.021  18.783  0.00  0.00    +0.000 C 
ATOM     15  C   UNL     1       1.489  10.888  20.053  0.00  0.00    +0.000 C 
ATOM     16  C   UNL     1       2.365  10.433  17.734  0.00  0.00    +0.000 C 
BRANCH  14  17
ATOM     17  C   UNL     1      -0.023  10.338  18.225  0.00  0.00    +0.000 C 
ATOM     18  N   UNL     1      -1.069  10.602  17.786  0.00  0.00    +0.000 NA
ENDBRANCH  14  17
ENDBRANCH  11  14
ENDBRANCH   6   8
BRANCH   7  19
ATOM     19  C   UNL     1       4.320   4.227  18.733  0.00  0.00    +0.000 C 
ATOM     20  C   UNL     1       4.943   4.511  17.742  0.00  0.00    +0.000 C 
BRANCH  20  21
ATOM     21  C   UNL     1       5.677   4.739  16.537  0.00  0.00    +0.000 A 
ATOM     22  C   UNL     1       5.312   4.139  15.335  0.00  0.00    +0.000 A 
ATOM     23  C   UNL     1       6.069   4.388  14.189  0.00  0.00    +0.000 A 
ATOM     24  C   UNL     1       7.180   5.213  14.281  0.00  0.00    +0.000 A 
ATOM     25  N   UNL     1       7.937   5.518  13.155  0.00  0.00    +0.000 N 
ATOM     26  N   UNL     1       7.554   5.797  15.430  0.00  0.00    +0.000 NA
ATOM     27  C   UNL     1       6.798   5.552  16.530  0.00  0.00    +0.000 A 
ATOM     28  H   UNL     1       8.227   4.695  12.646  0.00  0.00    +0.000 HD
ATOM     29  H   UNL     1       8.729   6.076  13.468  0.00  0.00    +0.000 HD
ENDBRANCH  20  21
ENDBRANCH   7  19
TORSDOF 5
ENDMDL
MODEL 7
REMARK VINA RESULT:      -7.3      3.770      7.191
REMARK  Name = 
REMARK  8 active torsions:
REMARK  status: ('A' for Active; 'I' for Inactive)
REMARK    1  A    between atoms: C_1  and  C_2
REMARK    2  A    between atoms: C_6  and  C_7
REMARK    3  A    between atoms: C_10  and  C_11
REMARK    4  A    between atoms: C_11  and  C_12
REMARK    5  A    between atoms: C_11  and  C_13
REMARK    6  A    between atoms: C_11  and  C_14
REMARK    7  A    between atoms: C_18  and  C_19
REMARK    8  A    between atoms: C_20  and  C_21
REMARK                            x       y       z     vdW  Elec       q    Type
REMARK                         _______ _______ _______ _____ _____    ______ ____
ROOT
ATOM      1  C   UNL     1       3.485   3.962  16.885  0.00  0.00    +0.000 C 
ATOM      2  C   UNL     1       4.890   4.471  16.729  0.00  0.00    +0.000 A 
ATOM      3  N   UNL     1       5.758   3.622  16.129  0.00  0.00    +0.000 NA
ATOM      4  C   UNL     1       7.017   4.053  15.993  0.00  0.00    +0.000 A 
ATOM      5  N   UNL     1       7.491   5.229  16.416  0.00  0.00    +0.000 NA
ATOM      6  C   UNL     1       6.613   6.059  17.036  0.00  0.00    +0.000 A 
ATOM      7  C   UNL     1       5.264   5.728  17.194  0.00  0.00    +0.000 A 
ENDROOT
BRANCH   6   8
ATOM      8  C   UNL     1       7.233   7.316  17.521  0.00  0.00    +0.000 A 
ATOM      9  C   UNL     1       8.219   7.297  18.520  0.00  0.00    +0.000 A 
ATOM     10  C   UNL     1       8.851   8.472  18.950  0.00  0.00    +0.000 A 
ATOM     11  C   UNL     1       8.542   9.713  18.369  0.00  0.00    +0.000 A 
ATOM     12  C   UNL     1       7.500   9.743  17.431  0.00  0.00    +0.000 A 
ATOM     13  C   UNL     1       6.852   8.573  17.034  0.00  0.00    +0.000 A 
BRANCH  11  14
ATOM     14  C   UNL     1       9.361  10.988  18.631  0.00  0.00    +0.000 C 
ATOM     15  C   UNL     1       9.525  11.139  20.162  0.00  0.00    +0.000 C 
ATOM     16  C   UNL     1      10.753  10.919  17.973  0.00  0.00    +0.000 C 
BRANCH  14  17
ATOM     17  C   UNL     1       8.698  12.222  18.144  0.00  0.00    +0.000 C 
ATOM     18  N   UNL     1       8.187  13.192  17.750  0.00  0.00    +0.000 NA
ENDBRANCH  14  17
ENDBRANCH  11  14
ENDBRANCH   6   8
BRANCH   7  19
ATOM     19  C   UNL     1       4.307   6.617  17.799  0.00  0.00    +0.000 C 
ATOM     20  C   UNL     1       3.437   7.329  18.231  0.00  0.00    +0.000 C 
BRANCH  20  21
ATOM     21  C   UNL     1       2.343   8.148  18.653  0.00  0.00    +0.000 A 
ATOM     22  C   UNL     1       1.734   9.054  17.789  0.00  0.00    +0.000 A 
ATOM     23  C   UNL     1       0.676   9.836  18.254  0.00  0.00    +0.000 A 
ATOM     24  C   UNL     1       0.271   9.705  19.575  0.00  0.00    +0.000 A 
ATOM     25  N   UNL     1      -0.805  10.437  20.066  0.00  0.00    +0.000 N 
ATOM     26  N   UNL     1       0.847   8.843  20.426  0.00  0.00    +0.000 NA
ATOM     27  C   UNL     1       1.866   8.083  19.951  0.00  0.00    +0.000 A 
ATOM     28  H   UNL     1      -0.718  11.428  19.885  0.00  0.00    +0.000 HD
ATOM     29  H   UNL     1      -0.877  10.233  21.061  0.00  0.00    +0.000 HD
ENDBRANCH  20  21
ENDBRANCH   7  19
TORSDOF 5
ENDMDL
MODEL 8
REMARK VINA RESULT:      -7.3      3.285      8.206
REMARK  Name = 
REMARK  8 active torsions:
REMARK  status: ('A' for Active; 'I' for Inactive)
REMARK    1  A    between atoms: C_1  and  C_2
REMARK    2  A    between atoms: C_6  and  C_7
REMARK    3  A    between atoms: C_10  and  C_11
REMARK    4  A    between atoms: C_11  and  C_12
REMARK    5  A    between atoms: C_11  and  C_13
REMARK    6  A    between atoms: C_11  and  C_14
REMARK    7  A    between atoms: C_18  and  C_19
REMARK    8  A    between atoms: C_20  and  C_21
REMARK                            x       y       z     vdW  Elec       q    Type
REMARK                         _______ _______ _______ _____ _____    ______ ____
ROOT
ATOM      1  C   UNL     1      -1.887  11.864  21.805  0.00  0.00    +0.000 C 
ATOM      2  C   UNL     1      -0.851  10.812  22.081  0.00  0.00    +0.000 A 
ATOM      3  N   UNL     1      -0.394  10.758  23.354  0.00  0.00    +0.000 NA
ATOM      4  C   UNL     1       0.539   9.836  23.615  0.00  0.00    +0.000 A 
ATOM      5  N   UNL     1       1.069   8.988  22.729  0.00  0.00    +0.000 NA
ATOM      6  C   UNL     1       0.616   9.070  21.451  0.00  0.00    +0.000 A 
ATOM      7  C   UNL     1      -0.387   9.968  21.076  0.00  0.00    +0.000 A 
ENDROOT
BRANCH   6   8
ATOM      8  C   UNL     1       1.295   8.132  20.524  0.00  0.00    +0.000 A 
ATOM      9  C   UNL     1       1.845   8.584  19.315  0.00  0.00    +0.000 A 
ATOM     10  C   UNL     1       2.536   7.719  18.454  0.00  0.00    +0.000 A 
ATOM     11  C   UNL     1       2.732   6.370  18.790  0.00  0.00    +0.000 A 
ATOM     12  C   UNL     1       2.112   5.900  19.957  0.00  0.00    +0.000 A 
ATOM     13  C   UNL     1       1.397   6.760  20.791  0.00  0.00    +0.000 A 
BRANCH  11  14
ATOM     14  C   UNL     1       3.674   5.439  18.007  0.00  0.00    +0.000 C 
ATOM     15  C   UNL     1       4.267   6.249  16.830  0.00  0.00    +0.000 C 
ATOM     16  C   UNL     1       4.820   4.910  18.892  0.00  0.00    +0.000 C 
BRANCH  14  17
ATOM     17  C   UNL     1       2.984   4.266  17.420  0.00  0.00    +0.000 C 
ATOM     18  N   UNL     1       2.451   3.345  16.946  0.00  0.00    +0.000 NA
ENDBRANCH  14  17
ENDBRANCH  11  14
ENDBRANCH   6   8
BRANCH   7  19
ATOM     19  C   UNL     1      -0.919  10.033  19.740  0.00  0.00    +0.000 C 
ATOM     20  C   UNL     1      -1.458  10.109  18.665  0.00  0.00    +0.000 C 
BRANCH  20  21
ATOM     21  C   UNL     1      -2.196  10.206  17.445  0.00  0.00    +0.000 A 
ATOM     22  C   UNL     1      -3.325  11.014  17.337  0.00  0.00    +0.000 A 
ATOM     23  C   UNL     1      -4.015  11.066  16.125  0.00  0.00    +0.000 A 
ATOM     24  C   UNL     1      -3.570  10.291  15.063  0.00  0.00    +0.000 A 
ATOM     25  N   UNL     1      -4.206  10.344  13.827  0.00  0.00    +0.000 N 
ATOM     26  N   UNL     1      -2.490   9.501  15.146  0.00  0.00    +0.000 NA
ATOM     27  C   UNL     1      -1.825   9.474  16.329  0.00  0.00    +0.000 A 
ATOM     28  H   UNL     1      -5.204  10.199  13.895  0.00  0.00    +0.000 HD
ATOM     29  H   UNL     1      -3.757   9.653  13.228  0.00  0.00    +0.000 HD
ENDBRANCH  20  21
ENDBRANCH   7  19
TORSDOF 5
ENDMDL
MODEL 9
REMARK VINA RESULT:      -7.3      3.808      7.153
REMARK  Name = 
REMARK  8 active torsions:
REMARK  status: ('A' for Active; 'I' for Inactive)
REMARK    1  A    between atoms: C_1  and  C_2
REMARK    2  A    between atoms: C_6  and  C_7
REMARK    3  A    between atoms: C_10  and  C_11
REMARK    4  A    between atoms: C_11  and  C_12
REMARK    5  A    between atoms: C_11  and  C_13
REMARK    6  A    between atoms: C_11  and  C_14
REMARK    7  A    between atoms: C_18  and  C_19
REMARK    8  A    between atoms: C_20  and  C_21
REMARK                            x       y       z     vdW  Elec       q    Type
REMARK                         _______ _______ _______ _____ _____    ______ ____
ROOT
ATOM      1  C   UNL     1       3.493   3.930  16.876  0.00  0.00    +0.000 C 
ATOM      2  C   UNL     1       4.891   4.456  16.713  0.00  0.00    +0.000 A 
ATOM      3  N   UNL     1       5.764   3.621  16.102  0.00  0.00    +0.000 NA
ATOM      4  C   UNL     1       7.017   4.067  15.960  0.00  0.00    +0.000 A 
ATOM      5  N   UNL     1       7.480   5.246  16.386  0.00  0.00    +0.000 NA
ATOM      6  C   UNL     1       6.597   6.063  17.016  0.00  0.00    +0.000 A 
ATOM      7  C   UNL     1       5.253   5.715  17.182  0.00  0.00    +0.000 A 
ENDROOT
BRANCH   6   8
ATOM      8  C   UNL     1       7.206   7.324  17.504  0.00  0.00    +0.000 A 
ATOM      9  C   UNL     1       8.216   7.310  18.478  0.00  0.00    +0.000 A 
ATOM     10  C   UNL     1       8.837   8.491  18.909  0.00  0.00    +0.000 A 
ATOM     11  C   UNL     1       8.491   9.733  18.353  0.00  0.00    +0.000 A 
ATOM     12  C   UNL     1       7.426   9.757  17.441  0.00  0.00    +0.000 A 
ATOM     13  C   UNL     1       6.790   8.581  17.044  0.00  0.00    +0.000 A 
BRANCH  11  14
ATOM     14  C   UNL     1       9.293  11.019  18.613  0.00  0.00    +0.000 C 
ATOM     15  C   UNL     1      10.713  10.816  18.034  0.00  0.00    +0.000 C 
ATOM     16  C   UNL     1       8.640  12.245  17.944  0.00  0.00    +0.000 C 
BRANCH  14  17
ATOM     17  C   UNL     1       9.454  11.330  20.054  0.00  0.00    +0.000 C 
ATOM     18  N   UNL     1       9.568  11.582  21.185  0.00  0.00    +0.000 NA
ENDBRANCH  14  17
ENDBRANCH  11  14
ENDBRANCH   6   8
BRANCH   7  19
ATOM     19  C   UNL     1       4.290   6.589  17.798  0.00  0.00    +0.000 C 
ATOM     20  C   UNL     1       3.421   7.303  18.230  0.00  0.00    +0.000 C 
BRANCH  20  21
ATOM     21  C   UNL     1       2.337   8.138  18.644  0.00  0.00    +0.000 A 
ATOM     22  C   UNL     1       1.734   9.038  17.769  0.00  0.00    +0.000 A 
ATOM     23  C   UNL     1       0.685   9.837  18.227  0.00  0.00    +0.000 A 
ATOM     24  C   UNL     1       0.284   9.730  19.551  0.00  0.00    +0.000 A 
ATOM     25  N   UNL     1      -0.783  10.479  20.036  0.00  0.00    +0.000 N 
ATOM     26  N   UNL     1       0.855   8.875  20.413  0.00  0.00    +0.000 NA
ATOM     27  C   UNL     1       1.864   8.098  19.945  0.00  0.00    +0.000 A 
ATOM     28  H   UNL     1      -0.687  11.466  19.840  0.00  0.00    +0.000 HD
ATOM     29  H   UNL     1      -0.853  10.290  21.034  0.00  0.00    +0.000 HD
ENDBRANCH  20  21
ENDBRANCH   7  19
TORSDOF 5
ENDMDL
