MODEL 1
REMARK VINA RESULT:      -6.9      0.000      0.000
REMARK  Name = 
REMARK  12 active torsions:
REMARK  status: ('A' for Active; 'I' for Inactive)
REMARK    1  A    between atoms: C_2  and  C_3
REMARK    2  A    between atoms: C_3  and  C_4
REMARK    3  A    between atoms: C_4  and  C_5
REMARK    4  A    between atoms: C_5  and  C_6
REMARK    5  A    between atoms: C_6  and  O_7
REMARK    6  A    between atoms: O_7  and  C_8
REMARK    7  A    between atoms: C_11  and  C_12
REMARK    8  A    between atoms: C_16  and  O_17
REMARK    9  A    between atoms: O_17  and  C_18
REMARK   10  A    between atoms: C_19  and  O_20
REMARK   11  A    between atoms: O_20  and  C_21
REMARK   12  A    between atoms: N_22  and  C_23
REMARK                            x       y       z     vdW  Elec       q    Type
REMARK                         _______ _______ _______ _____ _____    ______ ____
ROOT
ATOM      1  C   UNL     1       6.969   5.099  16.352  0.00  0.00    +0.000 A 
ATOM      2  N   UNL     1       7.680   4.691  17.377  0.00  0.00    +0.000 NA
ATOM      3  C   UNL     1       6.841   4.817  18.457  0.00  0.00    +0.000 A 
ATOM      4  C   UNL     1       5.578   5.267  18.089  0.00  0.00    +0.000 A 
ATOM      5  N   UNL     1       5.756   5.596  16.749  0.00  0.00    +0.000 N 
ATOM      6  C   UNL     1       4.864   6.281  15.843  0.00  0.00    +0.000 C 
ENDROOT
BRANCH   4   7
ATOM      7  C   UNL     1       4.314   5.311  18.859  0.00  0.00    +0.000 A 
ATOM      8  C   UNL     1       3.711   6.572  19.031  0.00  0.00    +0.000 A 
ATOM      9  C   UNL     1       2.536   6.731  19.748  0.00  0.00    +0.000 A 
ATOM     10  C   UNL     1       1.887   5.614  20.248  0.00  0.00    +0.000 A 
ATOM     11  C   UNL     1       2.403   4.326  20.037  0.00  0.00    +0.000 A 
ATOM     12  C   UNL     1       3.625   4.159  19.338  0.00  0.00    +0.000 A 
BRANCH  11  13
ATOM     13  O   UNL     1       1.693   3.219  20.433  0.00  0.00    +0.000 OA
ATOM     14  C   UNL     1       0.678   2.746  19.555  0.00  0.00    +0.000 C 
ENDBRANCH  11  13
BRANCH  12  15
ATOM     15  O   UNL     1       4.243   2.958  19.069  0.00  0.00    +0.000 OA
ATOM     16  C   UNL     1       3.785   2.151  17.993  0.00  0.00    +0.000 C 
ENDBRANCH  12  15
ENDBRANCH   4   7
BRANCH   1  17
ATOM     17  O   UNL     1       7.336   5.002  15.072  0.00  0.00    +0.000 OA
BRANCH  17  18
ATOM     18  C   UNL     1       6.692   3.916  14.398  0.00  0.00    +0.000 C 
BRANCH  18  19
ATOM     19  C   UNL     1       6.367   4.300  12.955  0.00  0.00    +0.000 C 
BRANCH  19  20
ATOM     20  C   UNL     1       6.685   3.131  12.017  0.00  0.00    +0.000 C 
BRANCH  20  21
ATOM     21  C   UNL     1       5.429   2.400  11.544  0.00  0.00    +0.000 C 
BRANCH  21  23
ATOM     22  C   UNL     1       3.409   3.456  10.481  0.00  0.00    +0.000 C 
ATOM     23  C   UNL     1       4.247   3.330  11.516  0.00  0.00    +0.000 C 
ENDBRANCH  21  23
ENDBRANCH  20  21
ENDBRANCH  19  20
ENDBRANCH  18  19
ENDBRANCH  17  18
ENDBRANCH   1  17
TORSDOF 9
ENDMDL
MODEL 2
REMARK VINA RESULT:      -6.8      3.892      6.465
REMARK  Name = 
REMARK  12 active torsions:
REMARK  status: ('A' for Active; 'I' for Inactive)
REMARK    1  A    between atoms: C_2  and  C_3
REMARK    2  A    between atoms: C_3  and  C_4
REMARK    3  A    between atoms: C_4  and  C_5
REMARK    4  A    between atoms: C_5  and  C_6
REMARK    5  A    between atoms: C_6  and  O_7
REMARK    6  A    between atoms: O_7  and  C_8
REMARK    7  A    between atoms: C_11  and  C_12
REMARK    8  A    between atoms: C_16  and  O_17
REMARK    9  A    between atoms: O_17  and  C_18
REMARK   10  A    between atoms: C_19  and  O_20
REMARK   11  A    between atoms: O_20  and  C_21
REMARK   12  A    between atoms: N_22  and  C_23
REMARK                            x       y       z     vdW  Elec       q    Type
REMARK                         _______ _______ _______ _____ _____    ______ ____
ROOT
ATOM      1  C   UNL     1       7.012   6.851  17.629  0.00  0.00    +0.000 A 
ATOM      2  N   UNL     1       6.476   7.151  16.468  0.00  0.00    +0.000 NA
ATOM      3  C   UNL     1       5.406   6.299  16.347  0.00  0.00    +0.000 A 
ATOM      4  C   UNL     1       5.249   5.491  17.467  0.00  0.00    +0.000 A 
ATOM      5  N   UNL     1       6.403   5.762  18.195  0.00  0.00    +0.000 N 
ATOM      6  C   UNL     1       6.922   5.113  19.377  0.00  0.00    +0.000 C 
ENDROOT
BRANCH   4   7
ATOM      7  C   UNL     1       4.120   4.624  17.875  0.00  0.00    +0.000 A 
ATOM      8  C   UNL     1       3.992   3.386  17.218  0.00  0.00    +0.000 A 
ATOM      9  C   UNL     1       2.963   2.505  17.508  0.00  0.00    +0.000 A 
ATOM     10  C   UNL     1       2.074   2.807  18.526  0.00  0.00    +0.000 A 
ATOM     11  C   UNL     1       2.203   3.993  19.268  0.00  0.00    +0.000 A 
ATOM     12  C   UNL     1       3.231   4.917  18.950  0.00  0.00    +0.000 A 
BRANCH  11  13
ATOM     13  O   UNL     1       1.393   4.228  20.351  0.00  0.00    +0.000 OA
ATOM     14  C   UNL     1       1.712   3.556  21.564  0.00  0.00    +0.000 C 
ENDBRANCH  11  13
BRANCH  12  15
ATOM     15  O   UNL     1       3.465   6.115  19.589  0.00  0.00    +0.000 OA
ATOM     16  C   UNL     1       2.592   7.215  19.371  0.00  0.00    +0.000 C 
ENDBRANCH  12  15
ENDBRANCH   4   7
BRANCH   1  17
ATOM     17  O   UNL     1       7.987   7.538  18.227  0.00  0.00    +0.000 OA
BRANCH  17  18
ATOM     18  C   UNL     1       7.878   8.948  18.010  0.00  0.00    +0.000 C 
BRANCH  18  19
ATOM     19  C   UNL     1       8.956   9.695  18.794  0.00  0.00    +0.000 C 
BRANCH  19  20
ATOM     20  C   UNL     1       9.178  11.085  18.188  0.00  0.00    +0.000 C 
BRANCH  20  21
ATOM     21  C   UNL     1       9.448  12.151  19.249  0.00  0.00    +0.000 C 
BRANCH  21  23
ATOM     22  C   UNL     1      11.868  11.909  19.889  0.00  0.00    +0.000 C 
ATOM     23  C   UNL     1      10.570  11.730  20.158  0.00  0.00    +0.000 C 
ENDBRANCH  21  23
ENDBRANCH  20  21
ENDBRANCH  19  20
ENDBRANCH  18  19
ENDBRANCH  17  18
ENDBRANCH   1  17
TORSDOF 9
ENDMDL
MODEL 3
REMARK VINA RESULT:      -6.8      3.531      5.948
REMARK  Name = 
REMARK  12 active torsions:
REMARK  status: ('A' for Active; 'I' for Inactive)
REMARK    1  A    between atoms: C_2  and  C_3
REMARK    2  A    between atoms: C_3  and  C_4
REMARK    3  A    between atoms: C_4  and  C_5
REMARK    4  A    between atoms: C_5  and  C_6
REMARK    5  A    between atoms: C_6  and  O_7
REMARK    6  A    between atoms: O_7  and  C_8
REMARK    7  A    between atoms: C_11  and  C_12
REMARK    8  A    between atoms: C_16  and  O_17
REMARK    9  A    between atoms: O_17  and  C_18
REMARK   10  A    between atoms: C_19  and  O_20
REMARK   11  A    between atoms: O_20  and  C_21
REMARK   12  A    between atoms: N_22  and  C_23
REMARK                            x       y       z     vdW  Elec       q    Type
REMARK                         _______ _______ _______ _____ _____    ______ ____
ROOT
ATOM      1  C   UNL     1       6.696   6.511  16.750  0.00  0.00    +0.000 A 
ATOM      2  N   UNL     1       5.715   7.101  16.107  0.00  0.00    +0.000 NA
ATOM      3  C   UNL     1       4.617   6.311  16.345  0.00  0.00    +0.000 A 
ATOM      4  C   UNL     1       4.912   5.242  17.183  0.00  0.00    +0.000 A 
ATOM      5  N   UNL     1       6.297   5.314  17.284  0.00  0.00    +0.000 N 
ATOM      6  C   UNL     1       7.228   4.380  17.875  0.00  0.00    +0.000 C 
ENDROOT
BRANCH   4   7
ATOM      7  C   UNL     1       4.013   4.302  17.892  0.00  0.00    +0.000 A 
ATOM      8  C   UNL     1       3.901   3.002  17.365  0.00  0.00    +0.000 A 
ATOM      9  C   UNL     1       3.076   2.047  17.937  0.00  0.00    +0.000 A 
ATOM     10  C   UNL     1       2.397   2.347  19.106  0.00  0.00    +0.000 A 
ATOM     11  C   UNL     1       2.535   3.603  19.718  0.00  0.00    +0.000 A 
ATOM     12  C   UNL     1       3.347   4.597  19.117  0.00  0.00    +0.000 A 
BRANCH  11  13
ATOM     13  O   UNL     1       1.953   3.851  20.938  0.00  0.00    +0.000 OA
ATOM     14  C   UNL     1       1.795   2.747  21.822  0.00  0.00    +0.000 C 
ENDBRANCH  11  13
BRANCH  12  15
ATOM     15  O   UNL     1       3.562   5.867  19.605  0.00  0.00    +0.000 OA
ATOM     16  C   UNL     1       2.555   6.860  19.463  0.00  0.00    +0.000 C 
ENDBRANCH  12  15
ENDBRANCH   4   7
BRANCH   1  17
ATOM     17  O   UNL     1       7.919   7.018  16.923  0.00  0.00    +0.000 OA
BRANCH  17  18
ATOM     18  C   UNL     1       8.033   7.774  18.132  0.00  0.00    +0.000 C 
BRANCH  18  19
ATOM     19  C   UNL     1       8.078   9.270  17.825  0.00  0.00    +0.000 C 
BRANCH  19  20
ATOM     20  C   UNL     1       8.996   9.983  18.823  0.00  0.00    +0.000 C 
BRANCH  20  21
ATOM     21  C   UNL     1       9.788  11.122  18.181  0.00  0.00    +0.000 C 
BRANCH  21  23
ATOM     22  C   UNL     1       8.914  13.469  17.952  0.00  0.00    +0.000 C 
ATOM     23  C   UNL     1       9.337  12.454  18.714  0.00  0.00    +0.000 C 
ENDBRANCH  21  23
ENDBRANCH  20  21
ENDBRANCH  19  20
ENDBRANCH  18  19
ENDBRANCH  17  18
ENDBRANCH   1  17
TORSDOF 9
ENDMDL
MODEL 4
REMARK VINA RESULT:      -6.8      3.477      5.900
REMARK  Name = 
REMARK  12 active torsions:
REMARK  status: ('A' for Active; 'I' for Inactive)
REMARK    1  A    between atoms: C_2  and  C_3
REMARK    2  A    between atoms: C_3  and  C_4
REMARK    3  A    between atoms: C_4  and  C_5
REMARK    4  A    between atoms: C_5  and  C_6
REMARK    5  A    between atoms: C_6  and  O_7
REMARK    6  A    between atoms: O_7  and  C_8
REMARK    7  A    between atoms: C_11  and  C_12
REMARK    8  A    between atoms: C_16  and  O_17
REMARK    9  A    between atoms: O_17  and  C_18
REMARK   10  A    between atoms: C_19  and  O_20
REMARK   11  A    between atoms: O_20  and  C_21
REMARK   12  A    between atoms: N_22  and  C_23
REMARK                            x       y       z     vdW  Elec       q    Type
REMARK                         _______ _______ _______ _____ _____    ______ ____
ROOT
ATOM      1  C   UNL     1       6.795   6.598  17.764  0.00  0.00    +0.000 A 
ATOM      2  N   UNL     1       7.427   5.896  18.675  0.00  0.00    +0.000 NA
ATOM      3  C   UNL     1       6.496   4.996  19.132  0.00  0.00    +0.000 A 
ATOM      4  C   UNL     1       5.283   5.112  18.462  0.00  0.00    +0.000 A 
ATOM      5  N   UNL     1       5.467   6.266  17.707  0.00  0.00    +0.000 N 
ATOM      6  C   UNL     1       4.512   7.018  16.927  0.00  0.00    +0.000 C 
ENDROOT
BRANCH   4   7
ATOM      7  C   UNL     1       4.106   4.213  18.446  0.00  0.00    +0.000 A 
ATOM      8  C   UNL     1       4.137   3.133  17.544  0.00  0.00    +0.000 A 
ATOM      9  C   UNL     1       3.083   2.241  17.433  0.00  0.00    +0.000 A 
ATOM     10  C   UNL     1       1.996   2.360  18.283  0.00  0.00    +0.000 A 
ATOM     11  C   UNL     1       1.950   3.373  19.255  0.00  0.00    +0.000 A 
ATOM     12  C   UNL     1       3.007   4.313  19.348  0.00  0.00    +0.000 A 
BRANCH  11  13
ATOM     13  O   UNL     1       0.926   3.412  20.170  0.00  0.00    +0.000 OA
ATOM     14  C   UNL     1       1.172   2.839  21.449  0.00  0.00    +0.000 C 
ENDBRANCH  11  13
BRANCH  12  15
ATOM     15  O   UNL     1       3.083   5.354  20.246  0.00  0.00    +0.000 OA
ATOM     16  C   UNL     1       2.325   6.536  20.026  0.00  0.00    +0.000 C 
ENDBRANCH  12  15
ENDBRANCH   4   7
BRANCH   1  17
ATOM     17  O   UNL     1       7.362   7.487  16.945  0.00  0.00    +0.000 OA
BRANCH  17  18
ATOM     18  C   UNL     1       7.573   8.755  17.573  0.00  0.00    +0.000 C 
BRANCH  18  19
ATOM     19  C   UNL     1       8.760   8.685  18.533  0.00  0.00    +0.000 C 
BRANCH  19  20
ATOM     20  C   UNL     1       9.051  10.075  19.110  0.00  0.00    +0.000 C 
BRANCH  20  21
ATOM     21  C   UNL     1       9.230  11.135  18.024  0.00  0.00    +0.000 C 
BRANCH  21  23
ATOM     22  C   UNL     1      11.494  11.618  19.006  0.00  0.00    +0.000 C 
ATOM     23  C   UNL     1      10.658  11.603  17.962  0.00  0.00    +0.000 C 
ENDBRANCH  21  23
ENDBRANCH  20  21
ENDBRANCH  19  20
ENDBRANCH  18  19
ENDBRANCH  17  18
ENDBRANCH   1  17
TORSDOF 9
ENDMDL
MODEL 5
REMARK VINA RESULT:      -6.8      2.013      2.937
REMARK  Name = 
REMARK  12 active torsions:
REMARK  status: ('A' for Active; 'I' for Inactive)
REMARK    1  A    between atoms: C_2  and  C_3
REMARK    2  A    between atoms: C_3  and  C_4
REMARK    3  A    between atoms: C_4  and  C_5
REMARK    4  A    between atoms: C_5  and  C_6
REMARK    5  A    between atoms: C_6  and  O_7
REMARK    6  A    between atoms: O_7  and  C_8
REMARK    7  A    between atoms: C_11  and  C_12
REMARK    8  A    between atoms: C_16  and  O_17
REMARK    9  A    between atoms: O_17  and  C_18
REMARK   10  A    between atoms: C_19  and  O_20
REMARK   11  A    between atoms: O_20  and  C_21
REMARK   12  A    between atoms: N_22  and  C_23
REMARK                            x       y       z     vdW  Elec       q    Type
REMARK                         _______ _______ _______ _____ _____    ______ ____
ROOT
ATOM      1  C   UNL     1       5.206   4.288  16.815  0.00  0.00    +0.000 A 
ATOM      2  N   UNL     1       4.121   3.549  16.775  0.00  0.00    +0.000 NA
ATOM      3  C   UNL     1       3.176   4.279  17.454  0.00  0.00    +0.000 A 
ATOM      4  C   UNL     1       3.670   5.506  17.882  0.00  0.00    +0.000 A 
ATOM      5  N   UNL     1       5.027   5.399  17.596  0.00  0.00    +0.000 N 
ATOM      6  C   UNL     1       6.117   6.274  17.960  0.00  0.00    +0.000 C 
ENDROOT
BRANCH   4   7
ATOM      7  C   UNL     1       2.961   6.691  18.417  0.00  0.00    +0.000 A 
ATOM      8  C   UNL     1       2.744   7.763  17.530  0.00  0.00    +0.000 A 
ATOM      9  C   UNL     1       2.107   8.927  17.930  0.00  0.00    +0.000 A 
ATOM     10  C   UNL     1       1.598   9.019  19.214  0.00  0.00    +0.000 A 
ATOM     11  C   UNL     1       1.717   7.949  20.115  0.00  0.00    +0.000 A 
ATOM     12  C   UNL     1       2.402   6.769  19.726  0.00  0.00    +0.000 A 
BRANCH  11  13
ATOM     13  O   UNL     1       1.107   8.002  21.344  0.00  0.00    +0.000 OA
ATOM     14  C   UNL     1      -0.122   8.715  21.432  0.00  0.00    +0.000 C 
ENDBRANCH  11  13
BRANCH  12  15
ATOM     15  O   UNL     1       2.596   5.653  20.509  0.00  0.00    +0.000 OA
ATOM     16  C   UNL     1       1.532   4.730  20.702  0.00  0.00    +0.000 C 
ENDBRANCH  12  15
ENDBRANCH   4   7
BRANCH   1  17
ATOM     17  O   UNL     1       6.333   4.038  16.145  0.00  0.00    +0.000 OA
BRANCH  17  18
ATOM     18  C   UNL     1       6.471   4.857  14.980  0.00  0.00    +0.000 C 
BRANCH  18  19
ATOM     19  C   UNL     1       5.580   4.337  13.853  0.00  0.00    +0.000 C 
BRANCH  19  20
ATOM     20  C   UNL     1       6.311   3.244  13.067  0.00  0.00    +0.000 C 
BRANCH  20  21
ATOM     21  C   UNL     1       5.687   2.989  11.696  0.00  0.00    +0.000 C 
BRANCH  21  23
ATOM     22  C   UNL     1       3.405   3.208  10.661  0.00  0.00    +0.000 C 
ATOM     23  C   UNL     1       4.255   3.447  11.666  0.00  0.00    +0.000 C 
ENDBRANCH  21  23
ENDBRANCH  20  21
ENDBRANCH  19  20
ENDBRANCH  18  19
ENDBRANCH  17  18
ENDBRANCH   1  17
TORSDOF 9
ENDMDL
MODEL 6
REMARK VINA RESULT:      -6.7      2.273      6.690
REMARK  Name = 
REMARK  12 active torsions:
REMARK  status: ('A' for Active; 'I' for Inactive)
REMARK    1  A    between atoms: C_2  and  C_3
REMARK    2  A    between atoms: C_3  and  C_4
REMARK    3  A    between atoms: C_4  and  C_5
REMARK    4  A    between atoms: C_5  and  C_6
REMARK    5  A    between atoms: C_6  and  O_7
REMARK    6  A    between atoms: O_7  and  C_8
REMARK    7  A    between atoms: C_11  and  C_12
REMARK    8  A    between atoms: C_16  and  O_17
REMARK    9  A    between atoms: O_17  and  C_18
REMARK   10  A    between atoms: C_19  and  O_20
REMARK   11  A    between atoms: O_20  and  C_21
REMARK   12  A    between atoms: N_22  and  C_23
REMARK                            x       y       z     vdW  Elec       q    Type
REMARK                         _______ _______ _______ _____ _____    ______ ____
ROOT
ATOM      1  C   UNL     1       3.136   6.152  19.519  0.00  0.00    +0.000 A 
ATOM      2  N   UNL     1       2.732   7.150  18.767  0.00  0.00    +0.000 NA
ATOM      3  C   UNL     1       3.468   7.039  17.613  0.00  0.00    +0.000 A 
ATOM      4  C   UNL     1       4.307   5.931  17.632  0.00  0.00    +0.000 A 
ATOM      5  N   UNL     1       4.184   5.484  18.944  0.00  0.00    +0.000 N 
ATOM      6  C   UNL     1       4.936   4.470  19.646  0.00  0.00    +0.000 C 
ENDROOT
BRANCH   4   7
ATOM      7  C   UNL     1       5.077   5.291  16.540  0.00  0.00    +0.000 A 
ATOM      8  C   UNL     1       4.507   4.155  15.935  0.00  0.00    +0.000 A 
ATOM      9  C   UNL     1       5.148   3.469  14.916  0.00  0.00    +0.000 A 
ATOM     10  C   UNL     1       6.348   3.950  14.420  0.00  0.00    +0.000 A 
ATOM     11  C   UNL     1       6.921   5.124  14.934  0.00  0.00    +0.000 A 
ATOM     12  C   UNL     1       6.291   5.810  16.003  0.00  0.00    +0.000 A 
BRANCH  11  13
ATOM     13  O   UNL     1       8.047   5.659  14.358  0.00  0.00    +0.000 OA
ATOM     14  C   UNL     1       8.189   5.520  12.948  0.00  0.00    +0.000 C 
ENDBRANCH  11  13
BRANCH  12  15
ATOM     15  O   UNL     1       6.747   6.963  16.602  0.00  0.00    +0.000 OA
ATOM     16  C   UNL     1       7.603   6.881  17.734  0.00  0.00    +0.000 C 
ENDBRANCH  12  15
ENDBRANCH   4   7
BRANCH   1  17
ATOM     17  O   UNL     1       2.576   5.781  20.672  0.00  0.00    +0.000 OA
BRANCH  17  18
ATOM     18  C   UNL     1       1.258   5.254  20.498  0.00  0.00    +0.000 C 
BRANCH  18  19
ATOM     19  C   UNL     1       1.251   3.743  20.728  0.00  0.00    +0.000 C 
BRANCH  19  20
ATOM     20  C   UNL     1       0.667   3.028  19.506  0.00  0.00    +0.000 C 
BRANCH  20  21
ATOM     21  C   UNL     1       1.698   2.825  18.397  0.00  0.00    +0.000 C 
BRANCH  21  23
ATOM     22  C   UNL     1       3.774   1.438  18.095  0.00  0.00    +0.000 C 
ATOM     23  C   UNL     1       2.620   1.683  18.725  0.00  0.00    +0.000 C 
ENDBRANCH  21  23
ENDBRANCH  20  21
ENDBRANCH  19  20
ENDBRANCH  18  19
ENDBRANCH  17  18
ENDBRANCH   1  17
TORSDOF 9
ENDMDL
MODEL 7
REMARK VINA RESULT:      -6.7      1.008      1.089
REMARK  Name = 
REMARK  12 active torsions:
REMARK  status: ('A' for Active; 'I' for Inactive)
REMARK    1  A    between atoms: C_2  and  C_3
REMARK    2  A    between atoms: C_3  and  C_4
REMARK    3  A    between atoms: C_4  and  C_5
REMARK    4  A    between atoms: C_5  and  C_6
REMARK    5  A    between atoms: C_6  and  O_7
REMARK    6  A    between atoms: O_7  and  C_8
REMARK    7  A    between atoms: C_11  and  C_12
REMARK    8  A    between atoms: C_16  and  O_17
REMARK    9  A    between atoms: O_17  and  C_18
REMARK   10  A    between atoms: C_19  and  O_20
REMARK   11  A    between atoms: O_20  and  C_21
REMARK   12  A    between atoms: N_22  and  C_23
REMARK                            x       y       z     vdW  Elec       q    Type
REMARK                         _______ _______ _______ _____ _____    ______ ____
ROOT
ATOM      1  C   UNL     1       6.990   5.412  16.303  0.00  0.00    +0.000 A 
ATOM      2  N   UNL     1       7.546   4.706  17.260  0.00  0.00    +0.000 NA
ATOM      3  C   UNL     1       6.570   4.586  18.218  0.00  0.00    +0.000 A 
ATOM      4  C   UNL     1       5.378   5.187  17.830  0.00  0.00    +0.000 A 
ATOM      5  N   UNL     1       5.744   5.851  16.663  0.00  0.00    +0.000 N 
ATOM      6  C   UNL     1       4.998   6.801  15.872  0.00  0.00    +0.000 C 
ENDROOT
BRANCH   4   7
ATOM      7  C   UNL     1       4.021   5.094  18.415  0.00  0.00    +0.000 A 
ATOM      8  C   UNL     1       3.641   6.105  19.318  0.00  0.00    +0.000 A 
ATOM      9  C   UNL     1       2.402   6.107  19.938  0.00  0.00    +0.000 A 
ATOM     10  C   UNL     1       1.474   5.134  19.608  0.00  0.00    +0.000 A 
ATOM     11  C   UNL     1       1.772   4.147  18.655  0.00  0.00    +0.000 A 
ATOM     12  C   UNL     1       3.052   4.116  18.046  0.00  0.00    +0.000 A 
BRANCH  11  13
ATOM     13  O   UNL     1       0.807   3.259  18.248  0.00  0.00    +0.000 OA
ATOM     14  C   UNL     1       0.618   2.092  19.040  0.00  0.00    +0.000 C 
ENDBRANCH  11  13
BRANCH  12  15
ATOM     15  O   UNL     1       3.476   3.203  17.106  0.00  0.00    +0.000 OA
ATOM     16  C   UNL     1       3.881   1.903  17.513  0.00  0.00    +0.000 C 
ENDBRANCH  12  15
ENDBRANCH   4   7
BRANCH   1  17
ATOM     17  O   UNL     1       7.527   5.638  15.102  0.00  0.00    +0.000 OA
BRANCH  17  18
ATOM     18  C   UNL     1       7.090   4.695  14.119  0.00  0.00    +0.000 C 
BRANCH  18  19
ATOM     19  C   UNL     1       7.655   5.054  12.746  0.00  0.00    +0.000 C 
BRANCH  19  20
ATOM     20  C   UNL     1       6.976   4.210  11.662  0.00  0.00    +0.000 C 
BRANCH  20  21
ATOM     21  C   UNL     1       6.447   2.881  12.199  0.00  0.00    +0.000 C 
BRANCH  21  23
ATOM     22  C   UNL     1       4.181   3.446  11.265  0.00  0.00    +0.000 C 
ATOM     23  C   UNL     1       5.117   2.544  11.581  0.00  0.00    +0.000 C 
ENDBRANCH  21  23
ENDBRANCH  20  21
ENDBRANCH  19  20
ENDBRANCH  18  19
ENDBRANCH  17  18
ENDBRANCH   1  17
TORSDOF 9
ENDMDL
MODEL 8
REMARK VINA RESULT:      -6.7      1.018      1.332
REMARK  Name = 
REMARK  12 active torsions:
REMARK  status: ('A' for Active; 'I' for Inactive)
REMARK    1  A    between atoms: C_2  and  C_3
REMARK    2  A    between atoms: C_3  and  C_4
REMARK    3  A    between atoms: C_4  and  C_5
REMARK    4  A    between atoms: C_5  and  C_6
REMARK    5  A    between atoms: C_6  and  O_7
REMARK    6  A    between atoms: O_7  and  C_8
REMARK    7  A    between atoms: C_11  and  C_12
REMARK    8  A    between atoms: C_16  and  O_17
REMARK    9  A    between atoms: O_17  and  C_18
REMARK   10  A    between atoms: C_19  and  O_20
REMARK   11  A    between atoms: O_20  and  C_21
REMARK   12  A    between atoms: N_22  and  C_23
REMARK                            x       y       z     vdW  Elec       q    Type
REMARK                         _______ _______ _______ _____ _____    ______ ____
ROOT
ATOM      1  C   UNL     1       6.654   5.656  16.969  0.00  0.00    +0.000 A 
ATOM      2  N   UNL     1       7.343   5.258  18.013  0.00  0.00    +0.000 NA
ATOM      3  C   UNL     1       6.434   5.230  19.042  0.00  0.00    +0.000 A 
ATOM      4  C   UNL     1       5.155   5.573  18.620  0.00  0.00    +0.000 A 
ATOM      5  N   UNL     1       5.375   6.001  17.315  0.00  0.00    +0.000 N 
ATOM      6  C   UNL     1       4.471   6.649  16.394  0.00  0.00    +0.000 C 
ENDROOT
BRANCH   4   7
ATOM      7  C   UNL     1       3.850   5.440  19.308  0.00  0.00    +0.000 A 
ATOM      8  C   UNL     1       3.140   6.626  19.572  0.00  0.00    +0.000 A 
ATOM      9  C   UNL     1       1.919   6.620  20.225  0.00  0.00    +0.000 A 
ATOM     10  C   UNL     1       1.333   5.412  20.564  0.00  0.00    +0.000 A 
ATOM     11  C   UNL     1       1.961   4.195  20.253  0.00  0.00    +0.000 A 
ATOM     12  C   UNL     1       3.230   4.195  19.620  0.00  0.00    +0.000 A 
BRANCH  11  13
ATOM     13  O   UNL     1       1.321   3.002  20.485  0.00  0.00    +0.000 OA
ATOM     14  C   UNL     1       1.498   2.404  21.765  0.00  0.00    +0.000 C 
ENDBRANCH  11  13
BRANCH  12  15
ATOM     15  O   UNL     1       3.955   3.078  19.267  0.00  0.00    +0.000 OA
ATOM     16  C   UNL     1       3.608   2.349  18.098  0.00  0.00    +0.000 C 
ENDBRANCH  12  15
ENDBRANCH   4   7
BRANCH   1  17
ATOM     17  O   UNL     1       7.103   5.677  15.713  0.00  0.00    +0.000 OA
BRANCH  17  18
ATOM     18  C   UNL     1       7.281   4.364  15.172  0.00  0.00    +0.000 C 
BRANCH  18  19
ATOM     19  C   UNL     1       6.050   3.945  14.369  0.00  0.00    +0.000 C 
BRANCH  19  20
ATOM     20  C   UNL     1       6.332   4.074  12.869  0.00  0.00    +0.000 C 
BRANCH  20  21
ATOM     21  C   UNL     1       5.575   3.039  12.038  0.00  0.00    +0.000 C 
BRANCH  21  23
ATOM     22  C   UNL     1       6.128   0.844  10.942  0.00  0.00    +0.000 C 
ATOM     23  C   UNL     1       6.516   2.002  11.489  0.00  0.00    +0.000 C 
ENDBRANCH  21  23
ENDBRANCH  20  21
ENDBRANCH  19  20
ENDBRANCH  18  19
ENDBRANCH  17  18
ENDBRANCH   1  17
TORSDOF 9
ENDMDL
MODEL 9
REMARK VINA RESULT:      -6.7      1.162      1.224
REMARK  Name = 
REMARK  12 active torsions:
REMARK  status: ('A' for Active; 'I' for Inactive)
REMARK    1  A    between atoms: C_2  and  C_3
REMARK    2  A    between atoms: C_3  and  C_4
REMARK    3  A    between atoms: C_4  and  C_5
REMARK    4  A    between atoms: C_5  and  C_6
REMARK    5  A    between atoms: C_6  and  O_7
REMARK    6  A    between atoms: O_7  and  C_8
REMARK    7  A    between atoms: C_11  and  C_12
REMARK    8  A    between atoms: C_16  and  O_17
REMARK    9  A    between atoms: O_17  and  C_18
REMARK   10  A    between atoms: C_19  and  O_20
REMARK   11  A    between atoms: O_20  and  C_21
REMARK   12  A    between atoms: N_22  and  C_23
REMARK                            x       y       z     vdW  Elec       q    Type
REMARK                         _______ _______ _______ _____ _____    ______ ____
ROOT
ATOM      1  C   UNL     1       6.440   5.215  16.355  0.00  0.00    +0.000 A 
ATOM      2  N   UNL     1       6.890   6.368  16.790  0.00  0.00    +0.000 NA
ATOM      3  C   UNL     1       5.946   6.794  17.693  0.00  0.00    +0.000 A 
ATOM      4  C   UNL     1       4.919   5.870  17.852  0.00  0.00    +0.000 A 
ATOM      5  N   UNL     1       5.190   4.945  16.848  0.00  0.00    +0.000 N 
ATOM      6  C   UNL     1       4.394   3.836  16.378  0.00  0.00    +0.000 C 
ENDROOT
BRANCH   4   7
ATOM      7  C   UNL     1       3.849   5.791  18.872  0.00  0.00    +0.000 A 
ATOM      8  C   UNL     1       2.833   6.763  18.812  0.00  0.00    +0.000 A 
ATOM      9  C   UNL     1       1.793   6.794  19.727  0.00  0.00    +0.000 A 
ATOM     10  C   UNL     1       1.699   5.799  20.685  0.00  0.00    +0.000 A 
ATOM     11  C   UNL     1       2.642   4.760  20.741  0.00  0.00    +0.000 A 
ATOM     12  C   UNL     1       3.731   4.744  19.832  0.00  0.00    +0.000 A 
BRANCH  11  13
ATOM     13  O   UNL     1       2.475   3.715  21.615  0.00  0.00    +0.000 OA
ATOM     14  C   UNL     1       1.340   2.878  21.424  0.00  0.00    +0.000 C 
ENDBRANCH  11  13
BRANCH  12  15
ATOM     15  O   UNL     1       4.725   3.792  19.781  0.00  0.00    +0.000 OA
ATOM     16  C   UNL     1       4.387   2.424  19.598  0.00  0.00    +0.000 C 
ENDBRANCH  12  15
ENDBRANCH   4   7
BRANCH   1  17
ATOM     17  O   UNL     1       7.116   4.368  15.576  0.00  0.00    +0.000 OA
BRANCH  17  18
ATOM     18  C   UNL     1       7.092   4.752  14.198  0.00  0.00    +0.000 C 
BRANCH  18  19
ATOM     19  C   UNL     1       5.935   4.069  13.472  0.00  0.00    +0.000 C 
BRANCH  19  20
ATOM     20  C   UNL     1       6.446   3.373  12.206  0.00  0.00    +0.000 C 
BRANCH  20  21
ATOM     21  C   UNL     1       5.362   2.551  11.510  0.00  0.00    +0.000 C 
BRANCH  21  23
ATOM     22  C   UNL     1       3.100   2.990  10.501  0.00  0.00    +0.000 C 
ATOM     23  C   UNL     1       4.249   3.437  11.021  0.00  0.00    +0.000 C 
ENDBRANCH  21  23
ENDBRANCH  20  21
ENDBRANCH  19  20
ENDBRANCH  18  19
ENDBRANCH  17  18
ENDBRANCH   1  17
TORSDOF 9
ENDMDL
