MODEL 1
REMARK VINA RESULT:      -8.0      0.000      0.000
REMARK  Name = 
REMARK  4 active torsions:
REMARK  status: ('A' for Active; 'I' for Inactive)
REMARK    1  A    between atoms: C_1  and  N_2
REMARK    2  A    between atoms: C_4  and  C_5
REMARK    3  A    between atoms: C_5  and  N_6
REMARK    4  A    between atoms: N_13  and  C_14
REMARK                            x       y       z     vdW  Elec       q    Type
REMARK                         _______ _______ _______ _____ _____    ______ ____
ROOT
ATOM      1  N   UNL     1       6.754   5.781  16.187  0.00  0.00    +0.000 NA
ATOM      2  C   UNL     1       5.305   6.015  16.154  0.00  0.00    +0.000 C 
ATOM      3  C   UNL     1       4.516   5.086  17.072  0.00  0.00    +0.000 C 
ATOM      4  C   UNL     1       5.033   5.083  18.531  0.00  0.00    +0.000 C 
ATOM      5  C   UNL     1       6.577   5.067  18.579  0.00  0.00    +0.000 C 
ATOM      6  C   UNL     1       7.241   5.989  17.557  0.00  0.00    +0.000 C 
ATOM      7  C   UNL     1       4.492   6.281  19.347  0.00  0.00    +0.000 C 
ATOM      8  N   UNL     1       3.038   6.228  19.502  0.00  0.00    +0.000 N 
ATOM      9  C   UNL     1       2.464   5.006  19.892  0.00  0.00    +0.000 C 
ATOM     10  O   UNL     1       1.387   4.878  20.470  0.00  0.00    +0.000 OA
ATOM     11  C   UNL     1       3.227   3.774  19.389  0.00  0.00    +0.000 C 
ATOM     12  O   UNL     1       4.628   3.879  19.212  0.00  0.00    +0.000 OA
ENDROOT
BRANCH   8  13
ATOM     13  C   UNL     1       2.238   7.395  19.304  0.00  0.00    +0.000 A 
ATOM     14  C   UNL     1       2.129   7.988  18.035  0.00  0.00    +0.000 A 
ATOM     15  C   UNL     1       1.451   9.188  17.875  0.00  0.00    +0.000 A 
ATOM     16  C   UNL     1       0.883   9.781  18.985  0.00  0.00    +0.000 A 
ATOM     17  N   UNL     1       0.941   9.252  20.222  0.00  0.00    +0.000 NA
ATOM     18  C   UNL     1       1.608   8.078  20.350  0.00  0.00    +0.000 A 
ENDBRANCH   8  13
BRANCH   1  19
ATOM     19  C   UNL     1       7.174   4.460  15.667  0.00  0.00    +0.000 C 
BRANCH  19  23
ATOM     20  C   UNL     1       5.234   2.655  11.462  0.00  0.00    +0.000 C 
ATOM     21  N   UNL     1       5.873   3.570  12.377  0.00  0.00    +0.000 N 
ATOM     22  C   UNL     1       5.660   3.646  13.722  0.00  0.00    +0.000 A 
ATOM     23  C   UNL     1       6.771   4.281  14.245  0.00  0.00    +0.000 A 
ATOM     24  C   UNL     1       7.475   4.724  13.099  0.00  0.00    +0.000 A 
ATOM     25  N   UNL     1       6.916   4.311  11.960  0.00  0.00    +0.000 NA
ENDBRANCH  19  23
ENDBRANCH   1  19
TORSDOF 3
ENDMDL
MODEL 2
REMARK VINA RESULT:      -7.4      1.656      7.645
REMARK  Name = 
REMARK  4 active torsions:
REMARK  status: ('A' for Active; 'I' for Inactive)
REMARK    1  A    between atoms: C_1  and  N_2
REMARK    2  A    between atoms: C_4  and  C_5
REMARK    3  A    between atoms: C_5  and  N_6
REMARK    4  A    between atoms: N_13  and  C_14
REMARK                            x       y       z     vdW  Elec       q    Type
REMARK                         _______ _______ _______ _____ _____    ______ ____
ROOT
ATOM      1  N   UNL     1       2.207   7.139  18.068  0.00  0.00    +0.000 NA
ATOM      2  C   UNL     1       3.429   7.371  17.290  0.00  0.00    +0.000 C 
ATOM      3  C   UNL     1       4.691   6.834  17.962  0.00  0.00    +0.000 C 
ATOM      4  C   UNL     1       4.580   5.345  18.369  0.00  0.00    +0.000 C 
ATOM      5  C   UNL     1       3.199   5.034  18.987  0.00  0.00    +0.000 C 
ATOM      6  C   UNL     1       2.028   5.694  18.259  0.00  0.00    +0.000 C 
ATOM      7  C   UNL     1       4.855   4.391  17.183  0.00  0.00    +0.000 C 
ATOM      8  N   UNL     1       6.228   4.507  16.692  0.00  0.00    +0.000 N 
ATOM      9  C   UNL     1       7.266   4.504  17.638  0.00  0.00    +0.000 C 
ATOM     10  O   UNL     1       8.427   4.166  17.420  0.00  0.00    +0.000 OA
ATOM     11  C   UNL     1       6.879   5.127  18.985  0.00  0.00    +0.000 C 
ATOM     12  O   UNL     1       5.530   5.029  19.406  0.00  0.00    +0.000 OA
ENDROOT
BRANCH   8  13
ATOM     13  C   UNL     1       6.500   4.577  15.290  0.00  0.00    +0.000 A 
ATOM     14  C   UNL     1       5.861   3.712  14.387  0.00  0.00    +0.000 A 
ATOM     15  C   UNL     1       6.220   3.704  13.046  0.00  0.00    +0.000 A 
ATOM     16  C   UNL     1       7.211   4.567  12.621  0.00  0.00    +0.000 A 
ATOM     17  N   UNL     1       7.847   5.429  13.437  0.00  0.00    +0.000 NA
ATOM     18  C   UNL     1       7.475   5.418  14.742  0.00  0.00    +0.000 A 
ENDBRANCH   8  13
BRANCH   1  19
ATOM     19  C   UNL     1       2.156   7.858  19.361  0.00  0.00    +0.000 C 
BRANCH  19  23
ATOM     20  C   UNL     1      -1.117  11.449  20.406  0.00  0.00    +0.000 C 
ATOM     21  N   UNL     1      -0.083  10.716  19.717  0.00  0.00    +0.000 N 
ATOM     22  C   UNL     1       0.843   9.896  20.291  0.00  0.00    +0.000 A 
ATOM     23  C   UNL     1       1.293   9.069  19.278  0.00  0.00    +0.000 A 
ATOM     24  C   UNL     1       0.723   9.628  18.109  0.00  0.00    +0.000 A 
ATOM     25  N   UNL     1      -0.096  10.647  18.373  0.00  0.00    +0.000 NA
ENDBRANCH  19  23
ENDBRANCH   1  19
TORSDOF 3
ENDMDL
MODEL 3
REMARK VINA RESULT:      -7.0      1.596      7.583
REMARK  Name = 
REMARK  4 active torsions:
REMARK  status: ('A' for Active; 'I' for Inactive)
REMARK    1  A    between atoms: C_1  and  N_2
REMARK    2  A    between atoms: C_4  and  C_5
REMARK    3  A    between atoms: C_5  and  N_6
REMARK    4  A    between atoms: N_13  and  C_14
REMARK                            x       y       z     vdW  Elec       q    Type
REMARK                         _______ _______ _______ _____ _____    ______ ____
ROOT
ATOM      1  N   UNL     1       2.132   6.633  18.708  0.00  0.00    +0.000 NA
ATOM      2  C   UNL     1       3.237   6.969  17.802  0.00  0.00    +0.000 C 
ATOM      3  C   UNL     1       4.609   6.576  18.344  0.00  0.00    +0.000 C 
ATOM      4  C   UNL     1       4.694   5.094  18.780  0.00  0.00    +0.000 C 
ATOM      5  C   UNL     1       3.423   4.660  19.544  0.00  0.00    +0.000 C 
ATOM      6  C   UNL     1       2.123   5.182  18.935  0.00  0.00    +0.000 C 
ATOM      7  C   UNL     1       4.941   4.144  17.584  0.00  0.00    +0.000 C 
ATOM      8  N   UNL     1       6.237   4.385  16.950  0.00  0.00    +0.000 N 
ATOM      9  C   UNL     1       7.362   4.509  17.781  0.00  0.00    +0.000 C 
ATOM     10  O   UNL     1       8.523   4.284  17.447  0.00  0.00    +0.000 OA
ATOM     11  C   UNL     1       7.054   5.122  19.154  0.00  0.00    +0.000 C 
ATOM     12  O   UNL     1       5.774   4.899  19.716  0.00  0.00    +0.000 OA
ENDROOT
BRANCH   8  13
ATOM     13  C   UNL     1       6.354   4.450  15.527  0.00  0.00    +0.000 A 
ATOM     14  C   UNL     1       5.623   3.578  14.702  0.00  0.00    +0.000 A 
ATOM     15  C   UNL     1       5.833   3.564  13.331  0.00  0.00    +0.000 A 
ATOM     16  C   UNL     1       6.769   4.427  12.796  0.00  0.00    +0.000 A 
ATOM     17  N   UNL     1       7.487   5.296  13.533  0.00  0.00    +0.000 NA
ATOM     18  C   UNL     1       7.260   5.290  14.871  0.00  0.00    +0.000 A 
ENDBRANCH   8  13
BRANCH   1  19
ATOM     19  C   UNL     1       2.142   7.374  19.990  0.00  0.00    +0.000 C 
BRANCH  19  23
ATOM     20  C   UNL     1       0.473  11.913  18.843  0.00  0.00    +0.000 C 
ATOM     21  N   UNL     1       0.499  10.573  19.380  0.00  0.00    +0.000 N 
ATOM     22  C   UNL     1       1.190   9.514  18.870  0.00  0.00    +0.000 A 
ATOM     23  C   UNL     1       1.319   8.612  19.910  0.00  0.00    +0.000 A 
ATOM     24  C   UNL     1       0.486   9.146  20.923  0.00  0.00    +0.000 A 
ATOM     25  N   UNL     1      -0.034  10.330  20.591  0.00  0.00    +0.000 NA
ENDBRANCH  19  23
ENDBRANCH   1  19
TORSDOF 3
ENDMDL
MODEL 4
REMARK VINA RESULT:      -6.8      0.669      1.190
REMARK  Name = 
REMARK  4 active torsions:
REMARK  status: ('A' for Active; 'I' for Inactive)
REMARK    1  A    between atoms: C_1  and  N_2
REMARK    2  A    between atoms: C_4  and  C_5
REMARK    3  A    between atoms: C_5  and  N_6
REMARK    4  A    between atoms: N_13  and  C_14
REMARK                            x       y       z     vdW  Elec       q    Type
REMARK                         _______ _______ _______ _____ _____    ______ ____
ROOT
ATOM      1  N   UNL     1       6.429   5.492  16.295  0.00  0.00    +0.000 NA
ATOM      2  C   UNL     1       5.012   5.871  16.287  0.00  0.00    +0.000 C 
ATOM      3  C   UNL     1       4.133   4.962  17.142  0.00  0.00    +0.000 C 
ATOM      4  C   UNL     1       4.646   4.804  18.593  0.00  0.00    +0.000 C 
ATOM      5  C   UNL     1       6.181   4.631  18.630  0.00  0.00    +0.000 C 
ATOM      6  C   UNL     1       6.934   5.553  17.673  0.00  0.00    +0.000 C 
ATOM      7  C   UNL     1       4.226   5.988  19.496  0.00  0.00    +0.000 C 
ATOM      8  N   UNL     1       2.774   6.069  19.657  0.00  0.00    +0.000 N 
ATOM      9  C   UNL     1       2.081   4.886  19.962  0.00  0.00    +0.000 C 
ATOM     10  O   UNL     1       0.996   4.824  20.536  0.00  0.00    +0.000 OA
ATOM     11  C   UNL     1       2.718   3.623  19.368  0.00  0.00    +0.000 C 
ATOM     12  O   UNL     1       4.122   3.600  19.190  0.00  0.00    +0.000 OA
ENDROOT
BRANCH   8  13
ATOM     13  C   UNL     1       2.095   7.321  19.547  0.00  0.00    +0.000 A 
ATOM     14  C   UNL     1       2.043   8.009  18.323  0.00  0.00    +0.000 A 
ATOM     15  C   UNL     1       1.488   9.279  18.253  0.00  0.00    +0.000 A 
ATOM     16  C   UNL     1       0.985   9.847  19.407  0.00  0.00    +0.000 A 
ATOM     17  N   UNL     1       0.993   9.230  20.604  0.00  0.00    +0.000 NA
ATOM     18  C   UNL     1       1.538   7.989  20.644  0.00  0.00    +0.000 A 
ENDBRANCH   8  13
BRANCH   1  19
ATOM     19  C   UNL     1       6.716   4.177  15.679  0.00  0.00    +0.000 C 
BRANCH  19  23
ATOM     20  C   UNL     1       7.759   5.949  11.154  0.00  0.00    +0.000 C 
ATOM     21  N   UNL     1       7.457   5.006  12.205  0.00  0.00    +0.000 N 
ATOM     22  C   UNL     1       7.798   5.129  13.520  0.00  0.00    +0.000 A 
ATOM     23  C   UNL     1       6.936   4.298  14.211  0.00  0.00    +0.000 A 
ATOM     24  C   UNL     1       6.273   3.577  13.190  0.00  0.00    +0.000 A 
ATOM     25  N   UNL     1       6.608   3.991  11.966  0.00  0.00    +0.000 NA
ENDBRANCH  19  23
ENDBRANCH   1  19
TORSDOF 3
ENDMDL
MODEL 5
REMARK VINA RESULT:      -6.7      0.950      1.649
REMARK  Name = 
REMARK  4 active torsions:
REMARK  status: ('A' for Active; 'I' for Inactive)
REMARK    1  A    between atoms: C_1  and  N_2
REMARK    2  A    between atoms: C_4  and  C_5
REMARK    3  A    between atoms: C_5  and  N_6
REMARK    4  A    between atoms: N_13  and  C_14
REMARK                            x       y       z     vdW  Elec       q    Type
REMARK                         _______ _______ _______ _____ _____    ______ ____
ROOT
ATOM      1  N   UNL     1       6.265   5.290  16.383  0.00  0.00    +0.000 NA
ATOM      2  C   UNL     1       4.891   5.805  16.419  0.00  0.00    +0.000 C 
ATOM      3  C   UNL     1       3.923   4.907  17.184  0.00  0.00    +0.000 C 
ATOM      4  C   UNL     1       4.410   4.557  18.610  0.00  0.00    +0.000 C 
ATOM      5  C   UNL     1       5.920   4.231  18.624  0.00  0.00    +0.000 C 
ATOM      6  C   UNL     1       6.765   5.164  17.758  0.00  0.00    +0.000 C 
ATOM      7  C   UNL     1       4.104   5.682  19.627  0.00  0.00    +0.000 C 
ATOM      8  N   UNL     1       2.666   5.890  19.801  0.00  0.00    +0.000 N 
ATOM      9  C   UNL     1       1.858   4.757  19.992  0.00  0.00    +0.000 C 
ATOM     10  O   UNL     1       0.769   4.746  20.562  0.00  0.00    +0.000 OA
ATOM     11  C   UNL     1       2.370   3.502  19.273  0.00  0.00    +0.000 C 
ATOM     12  O   UNL     1       3.767   3.358  19.088  0.00  0.00    +0.000 OA
ENDROOT
BRANCH   8  13
ATOM     13  C   UNL     1       2.114   7.208  19.819  0.00  0.00    +0.000 A 
ATOM     14  C   UNL     1       1.475   7.707  20.966  0.00  0.00    +0.000 A 
ATOM     15  C   UNL     1       0.836   8.939  20.935  0.00  0.00    +0.000 A 
ATOM     16  C   UNL     1       0.847   9.662  19.759  0.00  0.00    +0.000 A 
ATOM     17  N   UNL     1       1.456   9.241  18.633  0.00  0.00    +0.000 NA
ATOM     18  C   UNL     1       2.075   8.036  18.691  0.00  0.00    +0.000 A 
ENDBRANCH   8  13
BRANCH   1  19
ATOM     19  C   UNL     1       6.424   4.019  15.640  0.00  0.00    +0.000 C 
BRANCH  19  23
ATOM     20  C   UNL     1       7.906   6.178  11.416  0.00  0.00    +0.000 C 
ATOM     21  N   UNL     1       7.535   5.145  12.353  0.00  0.00    +0.000 N 
ATOM     22  C   UNL     1       7.703   5.186  13.705  0.00  0.00    +0.000 A 
ATOM     23  C   UNL     1       6.815   4.262  14.223  0.00  0.00    +0.000 A 
ATOM     24  C   UNL     1       6.328   3.586  13.079  0.00  0.00    +0.000 A 
ATOM     25  N   UNL     1       6.784   4.108  11.939  0.00  0.00    +0.000 NA
ENDBRANCH  19  23
ENDBRANCH   1  19
TORSDOF 3
ENDMDL
MODEL 6
REMARK VINA RESULT:      -6.6      1.609      7.569
REMARK  Name = 
REMARK  4 active torsions:
REMARK  status: ('A' for Active; 'I' for Inactive)
REMARK    1  A    between atoms: C_1  and  N_2
REMARK    2  A    between atoms: C_4  and  C_5
REMARK    3  A    between atoms: C_5  and  N_6
REMARK    4  A    between atoms: N_13  and  C_14
REMARK                            x       y       z     vdW  Elec       q    Type
REMARK                         _______ _______ _______ _____ _____    ______ ____
ROOT
ATOM      1  N   UNL     1       2.230   7.027  18.275  0.00  0.00    +0.000 NA
ATOM      2  C   UNL     1       3.395   7.217  17.402  0.00  0.00    +0.000 C 
ATOM      3  C   UNL     1       4.716   6.813  18.051  0.00  0.00    +0.000 C 
ATOM      4  C   UNL     1       4.699   5.379  18.631  0.00  0.00    +0.000 C 
ATOM      5  C   UNL     1       3.371   5.085  19.364  0.00  0.00    +0.000 C 
ATOM      6  C   UNL     1       2.132   5.607  18.639  0.00  0.00    +0.000 C 
ATOM      7  C   UNL     1       4.952   4.305  17.546  0.00  0.00    +0.000 C 
ATOM      8  N   UNL     1       6.289   4.419  16.962  0.00  0.00    +0.000 N 
ATOM      9  C   UNL     1       7.377   4.569  17.837  0.00  0.00    +0.000 C 
ATOM     10  O   UNL     1       8.539   4.255  17.589  0.00  0.00    +0.000 OA
ATOM     11  C   UNL     1       7.037   5.327  19.126  0.00  0.00    +0.000 C 
ATOM     12  O   UNL     1       5.721   5.224  19.637  0.00  0.00    +0.000 OA
ENDROOT
BRANCH   8  13
ATOM     13  C   UNL     1       6.478   4.338  15.548  0.00  0.00    +0.000 A 
ATOM     14  C   UNL     1       7.398   5.174  14.893  0.00  0.00    +0.000 A 
ATOM     15  C   UNL     1       7.488   5.174  13.509  0.00  0.00    +0.000 A 
ATOM     16  C   UNL     1       6.660   4.333  12.791  0.00  0.00    +0.000 A 
ATOM     17  N   UNL     1       5.771   3.499  13.364  0.00  0.00    +0.000 NA
ATOM     18  C   UNL     1       5.705   3.517  14.718  0.00  0.00    +0.000 A 
ENDBRANCH   8  13
BRANCH   1  19
ATOM     19  C   UNL     1       2.218   7.888  19.479  0.00  0.00    +0.000 C 
BRANCH  19  23
ATOM     20  C   UNL     1      -1.222  11.403  20.194  0.00  0.00    +0.000 C 
ATOM     21  N   UNL     1      -0.128  10.679  19.592  0.00  0.00    +0.000 N 
ATOM     22  C   UNL     1       0.791   9.915  20.249  0.00  0.00    +0.000 A 
ATOM     23  C   UNL     1       1.322   9.064  19.298  0.00  0.00    +0.000 A 
ATOM     24  C   UNL     1       0.800   9.556  18.078  0.00  0.00    +0.000 A 
ATOM     25  N   UNL     1      -0.065  10.556  18.254  0.00  0.00    +0.000 NA
ENDBRANCH  19  23
ENDBRANCH   1  19
TORSDOF 3
ENDMDL
MODEL 7
REMARK VINA RESULT:      -6.5      0.950      1.256
REMARK  Name = 
REMARK  4 active torsions:
REMARK  status: ('A' for Active; 'I' for Inactive)
REMARK    1  A    between atoms: C_1  and  N_2
REMARK    2  A    between atoms: C_4  and  C_5
REMARK    3  A    between atoms: C_5  and  N_6
REMARK    4  A    between atoms: N_13  and  C_14
REMARK                            x       y       z     vdW  Elec       q    Type
REMARK                         _______ _______ _______ _____ _____    ______ ____
ROOT
ATOM      1  N   UNL     1       6.569   5.380  15.528  0.00  0.00    +0.000 NA
ATOM      2  C   UNL     1       5.140   5.641  15.738  0.00  0.00    +0.000 C 
ATOM      3  C   UNL     1       4.494   4.711  16.761  0.00  0.00    +0.000 C 
ATOM      4  C   UNL     1       5.245   4.674  18.114  0.00  0.00    +0.000 C 
ATOM      5  C   UNL     1       6.776   4.629  17.905  0.00  0.00    +0.000 C 
ATOM      6  C   UNL     1       7.280   5.556  16.801  0.00  0.00    +0.000 C 
ATOM      7  C   UNL     1       4.872   5.866  19.025  0.00  0.00    +0.000 C 
ATOM      8  N   UNL     1       3.463   5.837  19.419  0.00  0.00    +0.000 N 
ATOM      9  C   UNL     1       2.936   4.620  19.881  0.00  0.00    +0.000 C 
ATOM     10  O   UNL     1       1.967   4.500  20.627  0.00  0.00    +0.000 OA
ATOM     11  C   UNL     1       3.579   3.382  19.241  0.00  0.00    +0.000 C 
ATOM     12  O   UNL     1       4.934   3.465  18.836  0.00  0.00    +0.000 OA
ENDROOT
BRANCH   8  13
ATOM     13  C   UNL     1       2.665   7.022  19.372  0.00  0.00    +0.000 A 
ATOM     14  C   UNL     1       1.956   7.459  20.503  0.00  0.00    +0.000 A 
ATOM     15  C   UNL     1       1.089   8.539  20.416  0.00  0.00    +0.000 A 
ATOM     16  C   UNL     1       0.944   9.176  19.199  0.00  0.00    +0.000 A 
ATOM     17  N   UNL     1       1.609   8.812  18.086  0.00  0.00    +0.000 NA
ATOM     18  C   UNL     1       2.452   7.755  18.199  0.00  0.00    +0.000 A 
ENDBRANCH   8  13
BRANCH   1  19
ATOM     19  C   UNL     1       6.870   4.061  14.927  0.00  0.00    +0.000 C 
BRANCH  19  23
ATOM     20  C   UNL     1       3.852   3.165  11.082  0.00  0.00    +0.000 C 
ATOM     21  N   UNL     1       4.990   3.642  11.829  0.00  0.00    +0.000 N 
ATOM     22  C   UNL     1       4.991   4.032  13.136  0.00  0.00    +0.000 A 
ATOM     23  C   UNL     1       6.306   3.947  13.553  0.00  0.00    +0.000 A 
ATOM     24  C   UNL     1       7.023   3.703  12.357  0.00  0.00    +0.000 A 
ATOM     25  N   UNL     1       6.224   3.541  11.302  0.00  0.00    +0.000 NA
ENDBRANCH  19  23
ENDBRANCH   1  19
TORSDOF 3
ENDMDL
MODEL 8
REMARK VINA RESULT:      -6.2      3.820      6.401
REMARK  Name = 
REMARK  4 active torsions:
REMARK  status: ('A' for Active; 'I' for Inactive)
REMARK    1  A    between atoms: C_1  and  N_2
REMARK    2  A    between atoms: C_4  and  C_5
REMARK    3  A    between atoms: C_5  and  N_6
REMARK    4  A    between atoms: N_13  and  C_14
REMARK                            x       y       z     vdW  Elec       q    Type
REMARK                         _______ _______ _______ _____ _____    ______ ____
ROOT
ATOM      1  N   UNL     1       2.513   7.478  18.835  0.00  0.00    +0.000 NA
ATOM      2  C   UNL     1       2.584   8.771  18.144  0.00  0.00    +0.000 C 
ATOM      3  C   UNL     1       1.251   9.513  18.099  0.00  0.00    +0.000 C 
ATOM      4  C   UNL     1       0.595   9.676  19.491  0.00  0.00    +0.000 C 
ATOM      5  C   UNL     1       0.716   8.380  20.324  0.00  0.00    +0.000 C 
ATOM      6  C   UNL     1       2.080   7.700  20.221  0.00  0.00    +0.000 C 
ATOM      7  C   UNL     1       1.185  10.868  20.281  0.00  0.00    +0.000 C 
ATOM      8  N   UNL     1       0.914  12.149  19.626  0.00  0.00    +0.000 N 
ATOM      9  C   UNL     1      -0.394  12.393  19.178  0.00  0.00    +0.000 C 
ATOM     10  O   UNL     1      -0.896  13.503  19.017  0.00  0.00    +0.000 OA
ATOM     11  C   UNL     1      -1.143  11.130  18.732  0.00  0.00    +0.000 C 
ATOM     12  O   UNL     1      -0.823   9.903  19.361  0.00  0.00    +0.000 OA
ENDROOT
BRANCH   8  13
ATOM     13  C   UNL     1       1.943  13.131  19.489  0.00  0.00    +0.000 A 
ATOM     14  C   UNL     1       2.520  13.402  18.236  0.00  0.00    +0.000 A 
ATOM     15  C   UNL     1       3.599  14.267  18.131  0.00  0.00    +0.000 A 
ATOM     16  C   UNL     1       4.088  14.859  19.279  0.00  0.00    +0.000 A 
ATOM     17  N   UNL     1       3.566  14.650  20.503  0.00  0.00    +0.000 NA
ATOM     18  C   UNL     1       2.511  13.802  20.578  0.00  0.00    +0.000 A 
ENDBRANCH   8  13
BRANCH   1  19
ATOM     19  C   UNL     1       1.660   6.470  18.165  0.00  0.00    +0.000 C 
BRANCH  19  23
ATOM     20  C   UNL     1       3.255   1.763  18.208  0.00  0.00    +0.000 C 
ATOM     21  N   UNL     1       3.110   3.142  17.807  0.00  0.00    +0.000 N 
ATOM     22  C   UNL     1       1.987   3.905  17.936  0.00  0.00    +0.000 A 
ATOM     23  C   UNL     1       2.416   5.218  17.884  0.00  0.00    +0.000 A 
ATOM     24  C   UNL     1       3.777   5.112  17.510  0.00  0.00    +0.000 A 
ATOM     25  N   UNL     1       4.195   3.847  17.439  0.00  0.00    +0.000 NA
ENDBRANCH  19  23
ENDBRANCH   1  19
TORSDOF 3
ENDMDL
MODEL 9
REMARK VINA RESULT:      -6.2      5.633      9.437
REMARK  Name = 
REMARK  4 active torsions:
REMARK  status: ('A' for Active; 'I' for Inactive)
REMARK    1  A    between atoms: C_1  and  N_2
REMARK    2  A    between atoms: C_4  and  C_5
REMARK    3  A    between atoms: C_5  and  N_6
REMARK    4  A    between atoms: N_13  and  C_14
REMARK                            x       y       z     vdW  Elec       q    Type
REMARK                         _______ _______ _______ _____ _____    ______ ____
ROOT
ATOM      1  N   UNL     1      -0.223   9.787  19.826  0.00  0.00    +0.000 NA
ATOM      2  C   UNL     1      -0.562  10.462  21.084  0.00  0.00    +0.000 C 
ATOM      3  C   UNL     1      -0.546  11.985  20.983  0.00  0.00    +0.000 C 
ATOM      4  C   UNL     1      -1.413  12.530  19.823  0.00  0.00    +0.000 C 
ATOM      5  C   UNL     1      -1.237  11.682  18.544  0.00  0.00    +0.000 C 
ATOM      6  C   UNL     1      -1.197  10.175  18.797  0.00  0.00    +0.000 C 
ATOM      7  C   UNL     1      -2.911  12.612  20.199  0.00  0.00    +0.000 C 
ATOM      8  N   UNL     1      -3.154  13.567  21.282  0.00  0.00    +0.000 N 
ATOM      9  C   UNL     1      -2.551  14.832  21.189  0.00  0.00    +0.000 C 
ATOM     10  O   UNL     1      -2.960  15.857  21.729  0.00  0.00    +0.000 OA
ATOM     11  C   UNL     1      -1.199  14.823  20.463  0.00  0.00    +0.000 C 
ATOM     12  O   UNL     1      -0.989  13.857  19.450  0.00  0.00    +0.000 OA
ENDROOT
BRANCH   8  13
ATOM     13  C   UNL     1      -4.013  13.231  22.374  0.00  0.00    +0.000 A 
ATOM     14  C   UNL     1      -3.485  12.941  23.644  0.00  0.00    +0.000 A 
ATOM     15  C   UNL     1      -4.313  12.498  24.665  0.00  0.00    +0.000 A 
ATOM     16  C   UNL     1      -5.662  12.354  24.409  0.00  0.00    +0.000 A 
ATOM     17  N   UNL     1      -6.227  12.632  23.218  0.00  0.00    +0.000 NA
ATOM     18  C   UNL     1      -5.396  13.066  22.238  0.00  0.00    +0.000 A 
ENDBRANCH   8  13
BRANCH   1  19
ATOM     19  C   UNL     1       1.164  10.016  19.360  0.00  0.00    +0.000 C 
BRANCH  19  23
ATOM     20  C   UNL     1       3.638   5.709  19.503  0.00  0.00    +0.000 C 
ATOM     21  N   UNL     1       2.845   6.801  18.991  0.00  0.00    +0.000 N 
ATOM     22  C   UNL     1       1.987   7.579  19.710  0.00  0.00    +0.000 A 
ATOM     23  C   UNL     1       1.827   8.740  18.976  0.00  0.00    +0.000 A 
ATOM     24  C   UNL     1       2.466   8.450  17.746  0.00  0.00    +0.000 A 
ATOM     25  N   UNL     1       3.067   7.259  17.746  0.00  0.00    +0.000 NA
ENDBRANCH  19  23
ENDBRANCH   1  19
TORSDOF 3
ENDMDL
