MODEL 1
REMARK VINA RESULT:      -7.9      0.000      0.000
REMARK  Name = 
REMARK  7 active torsions:
REMARK  status: ('A' for Active; 'I' for Inactive)
REMARK    1  A    between atoms: C_1  and  O_2
REMARK    2  A    between atoms: O_2  and  C_3
REMARK    3  A    between atoms: C_8  and  C_9
REMARK    4  A    between atoms: C_9  and  N_10
REMARK    5  A    between atoms: C_12  and  C_13
REMARK    6  A    between atoms: C_13  and  C_14
REMARK    7  A    between atoms: C_14  and  O_16
REMARK                            x       y       z     vdW  Elec       q    Type
REMARK                         _______ _______ _______ _____ _____    ______ ____
ROOT
ATOM      1  N   UNL     1       4.311   5.062  18.592  0.00  0.00    +0.000 N 
ATOM      2  N   UNL     1       5.540   5.589  18.916  0.00  0.00    +0.000 NA
ATOM      3  C   UNL     1       6.485   5.582  18.027  0.00  0.00    +0.000 A 
ATOM      4  C   UNL     1       6.308   5.056  16.656  0.00  0.00    +0.000 A 
ATOM      5  C   UNL     1       7.336   5.022  15.704  0.00  0.00    +0.000 A 
ATOM      6  C   UNL     1       7.089   4.512  14.427  0.00  0.00    +0.000 A 
ATOM      7  C   UNL     1       5.821   4.043  14.090  0.00  0.00    +0.000 A 
ATOM      8  C   UNL     1       4.796   4.076  15.035  0.00  0.00    +0.000 A 
ATOM      9  C   UNL     1       5.045   4.578  16.320  0.00  0.00    +0.000 A 
ATOM     10  C   UNL     1       3.977   4.562  17.336  0.00  0.00    +0.000 A 
ATOM     11  O   UNL     1       2.884   4.087  17.047  0.00  0.00    +0.000 OA
ENDROOT
BRANCH   1  12
ATOM     12  C   UNL     1       3.323   4.999  19.667  0.00  0.00    +0.000 C 
BRANCH  12  18
ATOM     13  C   UNL     1       0.460  10.515  20.011  0.00  0.00    +0.000 A 
ATOM     14  C   UNL     1       0.144   9.934  21.238  0.00  0.00    +0.000 A 
ATOM     15  C   UNL     1       0.578   8.641  21.544  0.00  0.00    +0.000 A 
ATOM     16  C   UNL     1       1.343   7.920  20.609  0.00  0.00    +0.000 A 
ATOM     17  N   UNL     1       1.869   6.661  20.807  0.00  0.00    +0.000 NA
ATOM     18  C   UNL     1       2.552   6.281  19.749  0.00  0.00    +0.000 A 
ATOM     19  S   UNL     1       2.560   7.396  18.440  0.00  0.00    +0.000 S 
ATOM     20  C   UNL     1       1.626   8.502  19.374  0.00  0.00    +0.000 A 
ATOM     21  C   UNL     1       1.180   9.794  19.049  0.00  0.00    +0.000 A 
BRANCH  13  23
ATOM     22  C   UNL     1      -1.270  12.121  19.895  0.00  0.00    +0.000 C 
ATOM     23  O   UNL     1       0.087  11.777  19.630  0.00  0.00    +0.000 OA
ENDBRANCH  13  23
ENDBRANCH  12  18
ENDBRANCH   1  12
BRANCH   3  24
ATOM     24  C   UNL     1       7.810   6.168  18.453  0.00  0.00    +0.000 C 
BRANCH  24  25
ATOM     25  C   UNL     1       7.953   7.625  18.132  0.00  0.00    +0.000 C 
ATOM     26  O   UNL     1       7.391   8.165  17.190  0.00  0.00    +0.000 OA
BRANCH  25  27
ATOM     27  O   UNL     1       8.767   8.296  18.974  0.00  0.00    +0.000 OA
ATOM     28  H   UNL     1       8.612   9.262  19.007  0.00  0.00    +0.000 HD
ENDBRANCH  25  27
ENDBRANCH  24  25
ENDBRANCH   3  24
TORSDOF 6
ENDMDL
MODEL 2
REMARK VINA RESULT:      -7.9      2.706      7.967
REMARK  Name = 
REMARK  7 active torsions:
REMARK  status: ('A' for Active; 'I' for Inactive)
REMARK    1  A    between atoms: C_1  and  O_2
REMARK    2  A    between atoms: O_2  and  C_3
REMARK    3  A    between atoms: C_8  and  C_9
REMARK    4  A    between atoms: C_9  and  N_10
REMARK    5  A    between atoms: C_12  and  C_13
REMARK    6  A    between atoms: C_13  and  C_14
REMARK    7  A    between atoms: C_14  and  O_16
REMARK                            x       y       z     vdW  Elec       q    Type
REMARK                         _______ _______ _______ _____ _____    ______ ____
ROOT
ATOM      1  N   UNL     1       5.001   5.393  18.569  0.00  0.00    +0.000 N 
ATOM      2  N   UNL     1       4.025   6.332  18.331  0.00  0.00    +0.000 NA
ATOM      3  C   UNL     1       2.819   6.111  18.755  0.00  0.00    +0.000 A 
ATOM      4  C   UNL     1       2.432   4.901  19.512  0.00  0.00    +0.000 A 
ATOM      5  C   UNL     1       1.124   4.648  19.945  0.00  0.00    +0.000 A 
ATOM      6  C   UNL     1       0.837   3.482  20.660  0.00  0.00    +0.000 A 
ATOM      7  C   UNL     1       1.850   2.570  20.953  0.00  0.00    +0.000 A 
ATOM      8  C   UNL     1       3.153   2.820  20.523  0.00  0.00    +0.000 A 
ATOM      9  C   UNL     1       3.439   3.985  19.797  0.00  0.00    +0.000 A 
ATOM     10  C   UNL     1       4.804   4.222  19.296  0.00  0.00    +0.000 A 
ATOM     11  O   UNL     1       5.673   3.381  19.505  0.00  0.00    +0.000 OA
ENDROOT
BRANCH   1  12
ATOM     12  C   UNL     1       6.312   5.648  17.974  0.00  0.00    +0.000 C 
BRANCH  12  18
ATOM     13  C   UNL     1       6.500   3.526  12.126  0.00  0.00    +0.000 A 
ATOM     14  C   UNL     1       7.527   4.468  12.138  0.00  0.00    +0.000 A 
ATOM     15  C   UNL     1       7.790   5.216  13.289  0.00  0.00    +0.000 A 
ATOM     16  C   UNL     1       7.017   5.015  14.447  0.00  0.00    +0.000 A 
ATOM     17  N   UNL     1       7.205   5.652  15.655  0.00  0.00    +0.000 NA
ATOM     18  C   UNL     1       6.330   5.222  16.538  0.00  0.00    +0.000 A 
ATOM     19  S   UNL     1       5.202   4.064  15.951  0.00  0.00    +0.000 S 
ATOM     20  C   UNL     1       5.974   4.090  14.411  0.00  0.00    +0.000 A 
ATOM     21  C   UNL     1       5.689   3.346  13.254  0.00  0.00    +0.000 A 
BRANCH  13  23
ATOM     22  C   UNL     1       6.021   1.353  11.327  0.00  0.00    +0.000 C 
ATOM     23  O   UNL     1       6.178   2.742  11.049  0.00  0.00    +0.000 OA
ENDBRANCH  13  23
ENDBRANCH  12  18
ENDBRANCH   1  12
BRANCH   3  24
ATOM     24  C   UNL     1       1.796   7.180  18.451  0.00  0.00    +0.000 C 
BRANCH  24  25
ATOM     25  C   UNL     1       1.750   8.275  19.473  0.00  0.00    +0.000 C 
ATOM     26  O   UNL     1       1.395   9.417  19.220  0.00  0.00    +0.000 OA
BRANCH  25  27
ATOM     27  O   UNL     1       2.141   7.892  20.707  0.00  0.00    +0.000 OA
ATOM     28  H   UNL     1       1.564   8.206  21.433  0.00  0.00    +0.000 HD
ENDBRANCH  25  27
ENDBRANCH  24  25
ENDBRANCH   3  24
TORSDOF 6
ENDMDL
MODEL 3
REMARK VINA RESULT:      -7.8      2.692      7.679
REMARK  Name = 
REMARK  7 active torsions:
REMARK  status: ('A' for Active; 'I' for Inactive)
REMARK    1  A    between atoms: C_1  and  O_2
REMARK    2  A    between atoms: O_2  and  C_3
REMARK    3  A    between atoms: C_8  and  C_9
REMARK    4  A    between atoms: C_9  and  N_10
REMARK    5  A    between atoms: C_12  and  C_13
REMARK    6  A    between atoms: C_13  and  C_14
REMARK    7  A    between atoms: C_14  and  O_16
REMARK                            x       y       z     vdW  Elec       q    Type
REMARK                         _______ _______ _______ _____ _____    ______ ____
ROOT
ATOM      1  N   UNL     1       5.099   5.597  18.708  0.00  0.00    +0.000 N 
ATOM      2  N   UNL     1       4.197   6.635  18.755  0.00  0.00    +0.000 NA
ATOM      3  C   UNL     1       3.031   6.435  19.289  0.00  0.00    +0.000 A 
ATOM      4  C   UNL     1       2.619   5.144  19.882  0.00  0.00    +0.000 A 
ATOM      5  C   UNL     1       1.350   4.919  20.432  0.00  0.00    +0.000 A 
ATOM      6  C   UNL     1       1.037   3.671  20.979  0.00  0.00    +0.000 A 
ATOM      7  C   UNL     1       1.984   2.649  20.985  0.00  0.00    +0.000 A 
ATOM      8  C   UNL     1       3.247   2.870  20.438  0.00  0.00    +0.000 A 
ATOM      9  C   UNL     1       3.559   4.119  19.881  0.00  0.00    +0.000 A 
ATOM     10  C   UNL     1       4.875   4.336  19.254  0.00  0.00    +0.000 A 
ATOM     11  O   UNL     1       5.677   3.408  19.209  0.00  0.00    +0.000 OA
ENDROOT
BRANCH   1  12
ATOM     12  C   UNL     1       6.351   5.852  17.999  0.00  0.00    +0.000 C 
BRANCH  12  18
ATOM     13  C   UNL     1       5.976   3.551  12.228  0.00  0.00    +0.000 A 
ATOM     14  C   UNL     1       7.209   4.201  12.214  0.00  0.00    +0.000 A 
ATOM     15  C   UNL     1       7.657   4.898  13.340  0.00  0.00    +0.000 A 
ATOM     16  C   UNL     1       6.861   4.939  14.499  0.00  0.00    +0.000 A 
ATOM     17  N   UNL     1       7.209   5.550  15.686  0.00  0.00    +0.000 NA
ATOM     18  C   UNL     1       6.256   5.386  16.579  0.00  0.00    +0.000 A 
ATOM     19  S   UNL     1       4.870   4.532  16.025  0.00  0.00    +0.000 S 
ATOM     20  C   UNL     1       5.618   4.309  14.490  0.00  0.00    +0.000 A 
ATOM     21  C   UNL     1       5.150   3.622  13.357  0.00  0.00    +0.000 A 
BRANCH  13  23
ATOM     22  C   UNL     1       4.052   2.936  11.001  0.00  0.00    +0.000 C 
ATOM     23  O   UNL     1       5.462   2.837  11.177  0.00  0.00    +0.000 OA
ENDBRANCH  13  23
ENDBRANCH  12  18
ENDBRANCH   1  12
BRANCH   3  24
ATOM     24  C   UNL     1       2.088   7.614  19.298  0.00  0.00    +0.000 C 
BRANCH  24  25
ATOM     25  C   UNL     1       2.270   8.538  18.132  0.00  0.00    +0.000 C 
ATOM     26  O   UNL     1       2.052   9.739  18.185  0.00  0.00    +0.000 OA
BRANCH  25  27
ATOM     27  O   UNL     1       2.693   7.925  17.006  0.00  0.00    +0.000 OA
ATOM     28  H   UNL     1       2.082   8.002  16.246  0.00  0.00    +0.000 HD
ENDBRANCH  25  27
ENDBRANCH  24  25
ENDBRANCH   3  24
TORSDOF 6
ENDMDL
MODEL 4
REMARK VINA RESULT:      -7.7      2.210      3.124
REMARK  Name = 
REMARK  7 active torsions:
REMARK  status: ('A' for Active; 'I' for Inactive)
REMARK    1  A    between atoms: C_1  and  O_2
REMARK    2  A    between atoms: O_2  and  C_3
REMARK    3  A    between atoms: C_8  and  C_9
REMARK    4  A    between atoms: C_9  and  N_10
REMARK    5  A    between atoms: C_12  and  C_13
REMARK    6  A    between atoms: C_13  and  C_14
REMARK    7  A    between atoms: C_14  and  O_16
REMARK                            x       y       z     vdW  Elec       q    Type
REMARK                         _______ _______ _______ _____ _____    ______ ____
ROOT
ATOM      1  N   UNL     1       3.155   6.539  17.942  0.00  0.00    +0.000 N 
ATOM      2  N   UNL     1       4.466   6.472  18.352  0.00  0.00    +0.000 NA
ATOM      3  C   UNL     1       4.939   5.338  18.771  0.00  0.00    +0.000 A 
ATOM      4  C   UNL     1       4.146   4.090  18.810  0.00  0.00    +0.000 A 
ATOM      5  C   UNL     1       4.648   2.873  19.289  0.00  0.00    +0.000 A 
ATOM      6  C   UNL     1       3.837   1.735  19.289  0.00  0.00    +0.000 A 
ATOM      7  C   UNL     1       2.530   1.802  18.809  0.00  0.00    +0.000 A 
ATOM      8  C   UNL     1       2.029   3.013  18.332  0.00  0.00    +0.000 A 
ATOM      9  C   UNL     1       2.838   4.157  18.339  0.00  0.00    +0.000 A 
ATOM     10  C   UNL     1       2.292   5.448  17.886  0.00  0.00    +0.000 A 
ATOM     11  O   UNL     1       1.121   5.508  17.525  0.00  0.00    +0.000 OA
ENDROOT
BRANCH   1  12
ATOM     12  C   UNL     1       2.650   7.864  17.586  0.00  0.00    +0.000 C 
BRANCH  12  18
ATOM     13  C   UNL     1      -0.094  10.699  22.400  0.00  0.00    +0.000 A 
ATOM     14  C   UNL     1       0.323   9.492  22.958  0.00  0.00    +0.000 A 
ATOM     15  C   UNL     1       0.964   8.530  22.172  0.00  0.00    +0.000 A 
ATOM     16  C   UNL     1       1.195   8.783  20.808  0.00  0.00    +0.000 A 
ATOM     17  N   UNL     1       1.856   7.939  19.940  0.00  0.00    +0.000 NA
ATOM     18  C   UNL     1       1.924   8.480  18.742  0.00  0.00    +0.000 A 
ATOM     19  S   UNL     1       1.155  10.010  18.583  0.00  0.00    +0.000 S 
ATOM     20  C   UNL     1       0.746   9.982  20.256  0.00  0.00    +0.000 A 
ATOM     21  C   UNL     1       0.085  10.947  21.033  0.00  0.00    +0.000 A 
BRANCH  13  23
ATOM     22  C   UNL     1      -2.088  11.915  22.763  0.00  0.00    +0.000 C 
ATOM     23  O   UNL     1      -0.719  11.702  23.094  0.00  0.00    +0.000 OA
ENDBRANCH  13  23
ENDBRANCH  12  18
ENDBRANCH   1  12
BRANCH   3  24
ATOM     24  C   UNL     1       6.383   5.338  19.214  0.00  0.00    +0.000 C 
BRANCH  24  25
ATOM     25  C   UNL     1       7.359   5.440  18.081  0.00  0.00    +0.000 C 
ATOM     26  O   UNL     1       7.935   4.475  17.601  0.00  0.00    +0.000 OA
BRANCH  25  27
ATOM     27  O   UNL     1       7.554   6.699  17.634  0.00  0.00    +0.000 OA
ATOM     28  H   UNL     1       7.841   6.759  16.701  0.00  0.00    +0.000 HD
ENDBRANCH  25  27
ENDBRANCH  24  25
ENDBRANCH   3  24
TORSDOF 6
ENDMDL
MODEL 5
REMARK VINA RESULT:      -7.7      3.664      9.564
REMARK  Name = 
REMARK  7 active torsions:
REMARK  status: ('A' for Active; 'I' for Inactive)
REMARK    1  A    between atoms: C_1  and  O_2
REMARK    2  A    between atoms: O_2  and  C_3
REMARK    3  A    between atoms: C_8  and  C_9
REMARK    4  A    between atoms: C_9  and  N_10
REMARK    5  A    between atoms: C_12  and  C_13
REMARK    6  A    between atoms: C_13  and  C_14
REMARK    7  A    between atoms: C_14  and  O_16
REMARK                            x       y       z     vdW  Elec       q    Type
REMARK                         _______ _______ _______ _____ _____    ______ ____
ROOT
ATOM      1  N   UNL     1      -0.818  11.446  18.793  0.00  0.00    +0.000 N 
ATOM      2  N   UNL     1      -1.283  10.674  17.754  0.00  0.00    +0.000 NA
ATOM      3  C   UNL     1      -2.563  10.564  17.571  0.00  0.00    +0.000 A 
ATOM      4  C   UNL     1      -3.566  11.251  18.413  0.00  0.00    +0.000 A 
ATOM      5  C   UNL     1      -4.949  11.109  18.235  0.00  0.00    +0.000 A 
ATOM      6  C   UNL     1      -5.835  11.796  19.069  0.00  0.00    +0.000 A 
ATOM      7  C   UNL     1      -5.350  12.628  20.076  0.00  0.00    +0.000 A 
ATOM      8  C   UNL     1      -3.975  12.771  20.256  0.00  0.00    +0.000 A 
ATOM      9  C   UNL     1      -3.085  12.075  19.425  0.00  0.00    +0.000 A 
ATOM     10  C   UNL     1      -1.633  12.182  19.649  0.00  0.00    +0.000 A 
ATOM     11  O   UNL     1      -1.220  12.868  20.580  0.00  0.00    +0.000 OA
ENDROOT
BRANCH   1  12
ATOM     12  C   UNL     1       0.626  11.444  19.013  0.00  0.00    +0.000 C 
BRANCH  12  18
ATOM     13  C   UNL     1       3.035   5.725  19.504  0.00  0.00    +0.000 A 
ATOM     14  C   UNL     1       3.475   6.131  18.245  0.00  0.00    +0.000 A 
ATOM     15  C   UNL     1       3.104   7.377  17.731  0.00  0.00    +0.000 A 
ATOM     16  C   UNL     1       2.285   8.232  18.491  0.00  0.00    +0.000 A 
ATOM     17  N   UNL     1       1.890   9.499  18.119  0.00  0.00    +0.000 NA
ATOM     18  C   UNL     1       1.149  10.041  19.062  0.00  0.00    +0.000 A 
ATOM     19  S   UNL     1       0.848   9.038  20.426  0.00  0.00    +0.000 S 
ATOM     20  C   UNL     1       1.829   7.801  19.736  0.00  0.00    +0.000 A 
ATOM     21  C   UNL     1       2.180   6.543  20.254  0.00  0.00    +0.000 A 
BRANCH  13  23
ATOM     22  C   UNL     1       2.375   4.000  20.978  0.00  0.00    +0.000 C 
ATOM     23  O   UNL     1       3.355   4.529  20.090  0.00  0.00    +0.000 OA
ENDBRANCH  13  23
ENDBRANCH  12  18
ENDBRANCH   1  12
BRANCH   3  24
ATOM     24  C   UNL     1      -3.002   9.693  16.418  0.00  0.00    +0.000 C 
BRANCH  24  25
ATOM     25  C   UNL     1      -3.033  10.410  15.103  0.00  0.00    +0.000 C 
ATOM     26  O   UNL     1      -2.937   9.842  14.024  0.00  0.00    +0.000 OA
BRANCH  25  27
ATOM     27  O   UNL     1      -3.171  11.749  15.209  0.00  0.00    +0.000 OA
ATOM     28  H   UNL     1      -3.949  12.116  14.743  0.00  0.00    +0.000 HD
ENDBRANCH  25  27
ENDBRANCH  24  25
ENDBRANCH   3  24
TORSDOF 6
ENDMDL
MODEL 6
REMARK VINA RESULT:      -7.7      0.917      1.333
REMARK  Name = 
REMARK  7 active torsions:
REMARK  status: ('A' for Active; 'I' for Inactive)
REMARK    1  A    between atoms: C_1  and  O_2
REMARK    2  A    between atoms: O_2  and  C_3
REMARK    3  A    between atoms: C_8  and  C_9
REMARK    4  A    between atoms: C_9  and  N_10
REMARK    5  A    between atoms: C_12  and  C_13
REMARK    6  A    between atoms: C_13  and  C_14
REMARK    7  A    between atoms: C_14  and  O_16
REMARK                            x       y       z     vdW  Elec       q    Type
REMARK                         _______ _______ _______ _____ _____    ______ ____
ROOT
ATOM      1  N   UNL     1       4.246   5.255  18.581  0.00  0.00    +0.000 N 
ATOM      2  N   UNL     1       5.485   5.745  18.922  0.00  0.00    +0.000 NA
ATOM      3  C   UNL     1       6.454   5.668  18.063  0.00  0.00    +0.000 A 
ATOM      4  C   UNL     1       6.295   5.097  16.707  0.00  0.00    +0.000 A 
ATOM      5  C   UNL     1       7.348   4.987  15.790  0.00  0.00    +0.000 A 
ATOM      6  C   UNL     1       7.117   4.439  14.524  0.00  0.00    +0.000 A 
ATOM      7  C   UNL     1       5.842   4.007  14.167  0.00  0.00    +0.000 A 
ATOM      8  C   UNL     1       4.792   4.116  15.079  0.00  0.00    +0.000 A 
ATOM      9  C   UNL     1       5.024   4.656  16.352  0.00  0.00    +0.000 A 
ATOM     10  C   UNL     1       3.929   4.721  17.335  0.00  0.00    +0.000 A 
ATOM     11  O   UNL     1       2.825   4.279  17.030  0.00  0.00    +0.000 OA
ENDROOT
BRANCH   1  12
ATOM     12  C   UNL     1       3.226   5.272  19.627  0.00  0.00    +0.000 C 
BRANCH  12  18
ATOM     13  C   UNL     1       0.069  10.632  19.836  0.00  0.00    +0.000 A 
ATOM     14  C   UNL     1       0.702  10.703  18.596  0.00  0.00    +0.000 A 
ATOM     15  C   UNL     1       1.560   9.682  18.178  0.00  0.00    +0.000 A 
ATOM     16  C   UNL     1       1.784   8.571  19.012  0.00  0.00    +0.000 A 
ATOM     17  N   UNL     1       2.567   7.480  18.696  0.00  0.00    +0.000 NA
ATOM     18  C   UNL     1       2.549   6.607  19.680  0.00  0.00    +0.000 A 
ATOM     19  S   UNL     1       1.629   7.071  21.057  0.00  0.00    +0.000 S 
ATOM     20  C   UNL     1       1.168   8.528  20.262  0.00  0.00    +0.000 A 
ATOM     21  C   UNL     1       0.318   9.557  20.700  0.00  0.00    +0.000 A 
BRANCH  13  23
ATOM     22  C   UNL     1      -0.587  11.955  21.682  0.00  0.00    +0.000 C 
ATOM     23  O   UNL     1      -0.793  11.579  20.323  0.00  0.00    +0.000 OA
ENDBRANCH  13  23
ENDBRANCH  12  18
ENDBRANCH   1  12
BRANCH   3  24
ATOM     24  C   UNL     1       7.789   6.217  18.507  0.00  0.00    +0.000 C 
BRANCH  24  25
ATOM     25  C   UNL     1       7.988   7.662  18.163  0.00  0.00    +0.000 C 
ATOM     26  O   UNL     1       7.474   8.200  17.194  0.00  0.00    +0.000 OA
BRANCH  25  27
ATOM     27  O   UNL     1       8.795   8.325  19.019  0.00  0.00    +0.000 OA
ATOM     28  H   UNL     1       9.664   8.577  18.646  0.00  0.00    +0.000 HD
ENDBRANCH  25  27
ENDBRANCH  24  25
ENDBRANCH   3  24
TORSDOF 6
ENDMDL
MODEL 7
REMARK VINA RESULT:      -7.5      1.099      1.591
REMARK  Name = 
REMARK  7 active torsions:
REMARK  status: ('A' for Active; 'I' for Inactive)
REMARK    1  A    between atoms: C_1  and  O_2
REMARK    2  A    between atoms: O_2  and  C_3
REMARK    3  A    between atoms: C_8  and  C_9
REMARK    4  A    between atoms: C_9  and  N_10
REMARK    5  A    between atoms: C_12  and  C_13
REMARK    6  A    between atoms: C_13  and  C_14
REMARK    7  A    between atoms: C_14  and  O_16
REMARK                            x       y       z     vdW  Elec       q    Type
REMARK                         _______ _______ _______ _____ _____    ______ ____
ROOT
ATOM      1  N   UNL     1       4.403   4.716  18.258  0.00  0.00    +0.000 N 
ATOM      2  N   UNL     1       5.579   5.337  18.610  0.00  0.00    +0.000 NA
ATOM      3  C   UNL     1       6.528   5.437  17.730  0.00  0.00    +0.000 A 
ATOM      4  C   UNL     1       6.407   4.938  16.343  0.00  0.00    +0.000 A 
ATOM      5  C   UNL     1       7.442   5.020  15.402  0.00  0.00    +0.000 A 
ATOM      6  C   UNL     1       7.249   4.528  14.108  0.00  0.00    +0.000 A 
ATOM      7  C   UNL     1       6.029   3.962  13.745  0.00  0.00    +0.000 A 
ATOM      8  C   UNL     1       4.998   3.880  14.680  0.00  0.00    +0.000 A 
ATOM      9  C   UNL     1       5.193   4.363  15.981  0.00  0.00    +0.000 A 
ATOM     10  C   UNL     1       4.123   4.227  16.985  0.00  0.00    +0.000 A 
ATOM     11  O   UNL     1       3.076   3.669  16.671  0.00  0.00    +0.000 OA
ENDROOT
BRANCH   1  12
ATOM     12  C   UNL     1       3.416   4.538  19.321  0.00  0.00    +0.000 C 
BRANCH  12  18
ATOM     13  C   UNL     1       0.258   9.750  20.589  0.00  0.00    +0.000 A 
ATOM     14  C   UNL     1       0.837  10.041  19.355  0.00  0.00    +0.000 A 
ATOM     15  C   UNL     1       1.679   9.116  18.731  0.00  0.00    +0.000 A 
ATOM     16  C   UNL     1       1.941   7.880  19.348  0.00  0.00    +0.000 A 
ATOM     17  N   UNL     1       2.712   6.868  18.816  0.00  0.00    +0.000 NA
ATOM     18  C   UNL     1       2.738   5.837  19.633  0.00  0.00    +0.000 A 
ATOM     19  S   UNL     1       1.876   6.046  21.107  0.00  0.00    +0.000 S 
ATOM     20  C   UNL     1       1.378   7.614  20.596  0.00  0.00    +0.000 A 
ATOM     21  C   UNL     1       0.546   8.544  21.241  0.00  0.00    +0.000 A 
BRANCH  13  23
ATOM     22  C   UNL     1      -0.605  10.425  22.683  0.00  0.00    +0.000 C 
ATOM     23  O   UNL     1      -0.586  10.589  21.268  0.00  0.00    +0.000 OA
ENDBRANCH  13  23
ENDBRANCH  12  18
ENDBRANCH   1  12
BRANCH   3  24
ATOM     24  C   UNL     1       7.795   6.121  18.187  0.00  0.00    +0.000 C 
BRANCH  24  25
ATOM     25  C   UNL     1       7.781   7.606  17.985  0.00  0.00    +0.000 C 
ATOM     26  O   UNL     1       8.545   8.370  18.556  0.00  0.00    +0.000 OA
BRANCH  25  27
ATOM     27  O   UNL     1       6.841   8.034  17.115  0.00  0.00    +0.000 OA
ATOM     28  H   UNL     1       6.948   7.697  16.202  0.00  0.00    +0.000 HD
ENDBRANCH  25  27
ENDBRANCH  24  25
ENDBRANCH   3  24
TORSDOF 6
ENDMDL
MODEL 8
REMARK VINA RESULT:      -7.4      3.972     10.036
REMARK  Name = 
REMARK  7 active torsions:
REMARK  status: ('A' for Active; 'I' for Inactive)
REMARK    1  A    between atoms: C_1  and  O_2
REMARK    2  A    between atoms: O_2  and  C_3
REMARK    3  A    between atoms: C_8  and  C_9
REMARK    4  A    between atoms: C_9  and  N_10
REMARK    5  A    between atoms: C_12  and  C_13
REMARK    6  A    between atoms: C_13  and  C_14
REMARK    7  A    between atoms: C_14  and  O_16
REMARK                            x       y       z     vdW  Elec       q    Type
REMARK                         _______ _______ _______ _____ _____    ______ ____
ROOT
ATOM      1  N   UNL     1      -1.974  12.234  19.139  0.00  0.00    +0.000 N 
ATOM      2  N   UNL     1      -2.262  11.881  17.841  0.00  0.00    +0.000 NA
ATOM      3  C   UNL     1      -3.495  11.658  17.506  0.00  0.00    +0.000 A 
ATOM      4  C   UNL     1      -4.630  11.788  18.446  0.00  0.00    +0.000 A 
ATOM      5  C   UNL     1      -5.959  11.520  18.092  0.00  0.00    +0.000 A 
ATOM      6  C   UNL     1      -6.977  11.670  19.038  0.00  0.00    +0.000 A 
ATOM      7  C   UNL     1      -6.679  12.093  20.331  0.00  0.00    +0.000 A 
ATOM      8  C   UNL     1      -5.358  12.361  20.686  0.00  0.00    +0.000 A 
ATOM      9  C   UNL     1      -4.334  12.201  19.741  0.00  0.00    +0.000 A 
ATOM     10  C   UNL     1      -2.931  12.431  20.130  0.00  0.00    +0.000 A 
ATOM     11  O   UNL     1      -2.675  12.741  21.289  0.00  0.00    +0.000 OA
ENDROOT
BRANCH   1  12
ATOM     12  C   UNL     1      -0.559  12.365  19.481  0.00  0.00    +0.000 C 
BRANCH  12  18
ATOM     13  C   UNL     1       2.537   6.965  19.473  0.00  0.00    +0.000 A 
ATOM     14  C   UNL     1       2.749   7.436  18.179  0.00  0.00    +0.000 A 
ATOM     15  C   UNL     1       2.169   8.636  17.757  0.00  0.00    +0.000 A 
ATOM     16  C   UNL     1       1.371   9.378  18.645  0.00  0.00    +0.000 A 
ATOM     17  N   UNL     1       0.784  10.595  18.367  0.00  0.00    +0.000 NA
ATOM     18  C   UNL     1       0.124  11.033  19.418  0.00  0.00    +0.000 A 
ATOM     19  S   UNL     1       0.132   9.984  20.780  0.00  0.00    +0.000 S 
ATOM     20  C   UNL     1       1.143   8.880  19.928  0.00  0.00    +0.000 A 
ATOM     21  C   UNL     1       1.706   7.666  20.356  0.00  0.00    +0.000 A 
BRANCH  13  23
ATOM     22  C   UNL     1       3.572   4.892  19.006  0.00  0.00    +0.000 C 
ATOM     23  O   UNL     1       3.071   5.808  19.976  0.00  0.00    +0.000 OA
ENDBRANCH  13  23
ENDBRANCH  12  18
ENDBRANCH   1  12
BRANCH   3  24
ATOM     24  C   UNL     1      -3.738  11.266  16.068  0.00  0.00    +0.000 C 
BRANCH  24  25
ATOM     25  C   UNL     1      -2.838  10.170  15.584  0.00  0.00    +0.000 C 
ATOM     26  O   UNL     1      -2.683   9.898  14.403  0.00  0.00    +0.000 OA
BRANCH  25  27
ATOM     27  O   UNL     1      -2.211   9.497  16.573  0.00  0.00    +0.000 OA
ATOM     28  H   UNL     1      -2.810   9.065  17.215  0.00  0.00    +0.000 HD
ENDBRANCH  25  27
ENDBRANCH  24  25
ENDBRANCH   3  24
TORSDOF 6
ENDMDL
MODEL 9
REMARK VINA RESULT:      -7.4      2.286      3.332
REMARK  Name = 
REMARK  7 active torsions:
REMARK  status: ('A' for Active; 'I' for Inactive)
REMARK    1  A    between atoms: C_1  and  O_2
REMARK    2  A    between atoms: O_2  and  C_3
REMARK    3  A    between atoms: C_8  and  C_9
REMARK    4  A    between atoms: C_9  and  N_10
REMARK    5  A    between atoms: C_12  and  C_13
REMARK    6  A    between atoms: C_13  and  C_14
REMARK    7  A    between atoms: C_14  and  O_16
REMARK                            x       y       z     vdW  Elec       q    Type
REMARK                         _______ _______ _______ _____ _____    ______ ____
ROOT
ATOM      1  N   UNL     1       3.194   6.419  17.893  0.00  0.00    +0.000 N 
ATOM      2  N   UNL     1       4.489   6.413  18.356  0.00  0.00    +0.000 NA
ATOM      3  C   UNL     1       4.969   5.325  18.877  0.00  0.00    +0.000 A 
ATOM      4  C   UNL     1       4.201   4.065  18.979  0.00  0.00    +0.000 A 
ATOM      5  C   UNL     1       4.708   2.899  19.567  0.00  0.00    +0.000 A 
ATOM      6  C   UNL     1       3.921   1.745  19.623  0.00  0.00    +0.000 A 
ATOM      7  C   UNL     1       2.633   1.746  19.090  0.00  0.00    +0.000 A 
ATOM      8  C   UNL     1       2.127   2.905  18.505  0.00  0.00    +0.000 A 
ATOM      9  C   UNL     1       2.911   4.066  18.456  0.00  0.00    +0.000 A 
ATOM     10  C   UNL     1       2.357   5.307  17.887  0.00  0.00    +0.000 A 
ATOM     11  O   UNL     1       1.200   5.312  17.479  0.00  0.00    +0.000 OA
ENDROOT
BRANCH   1  12
ATOM     12  C   UNL     1       2.677   7.701  17.419  0.00  0.00    +0.000 C 
BRANCH  12  18
ATOM     13  C   UNL     1      -0.310  10.574  22.063  0.00  0.00    +0.000 A 
ATOM     14  C   UNL     1      -0.359  11.521  21.041  0.00  0.00    +0.000 A 
ATOM     15  C   UNL     1       0.252  11.269  19.810  0.00  0.00    +0.000 A 
ATOM     16  C   UNL     1       0.917  10.048  19.596  0.00  0.00    +0.000 A 
ATOM     17  N   UNL     1       1.516   9.660  18.416  0.00  0.00    +0.000 NA
ATOM     18  C   UNL     1       2.028   8.454  18.540  0.00  0.00    +0.000 A 
ATOM     19  S   UNL     1       1.860   7.741  20.096  0.00  0.00    +0.000 S 
ATOM     20  C   UNL     1       0.984   9.122  20.637  0.00  0.00    +0.000 A 
ATOM     21  C   UNL     1       0.389   9.374  21.885  0.00  0.00    +0.000 A 
BRANCH  13  23
ATOM     22  C   UNL     1      -1.987  11.636  23.347  0.00  0.00    +0.000 C 
ATOM     23  O   UNL     1      -0.887  10.731  23.296  0.00  0.00    +0.000 OA
ENDBRANCH  13  23
ENDBRANCH  12  18
ENDBRANCH   1  12
BRANCH   3  24
ATOM     24  C   UNL     1       6.394   5.392  19.372  0.00  0.00    +0.000 C 
BRANCH  24  25
ATOM     25  C   UNL     1       7.414   5.364  18.274  0.00  0.00    +0.000 C 
ATOM     26  O   UNL     1       8.054   4.367  17.975  0.00  0.00    +0.000 OA
BRANCH  25  27
ATOM     27  O   UNL     1       7.571   6.546  17.641  0.00  0.00    +0.000 OA
ATOM     28  H   UNL     1       6.789   7.132  17.672  0.00  0.00    +0.000 HD
ENDBRANCH  25  27
ENDBRANCH  24  25
ENDBRANCH   3  24
TORSDOF 6
ENDMDL
