MODEL 1
REMARK VINA RESULT:      -8.5      0.000      0.000
REMARK  Name = 
REMARK  3 active torsions:
REMARK  status: ('A' for Active; 'I' for Inactive)
REMARK    1  A    between atoms: C_2  and  O_3
REMARK    2  A    between atoms: C_2  and  C_4
REMARK    3  A    between atoms: C_4  and  N_5
REMARK                            x       y       z     vdW  Elec       q    Type
REMARK                         _______ _______ _______ _____ _____    ______ ____
ROOT
ATOM      1  N   UNL     1       4.985   4.769  16.183  0.00  0.00    +0.000 N 
ATOM      2  N   UNL     1       4.353   3.832  17.023  0.00  0.00    +0.000 NA
ATOM      3  C   UNL     1       3.568   4.327  17.926  0.00  0.00    +0.000 A 
ATOM      4  C   UNL     1       3.287   5.737  18.042  0.00  0.00    +0.000 A 
ATOM      5  C   UNL     1       2.399   5.970  19.083  0.00  0.00    +0.000 A 
ATOM      6  C   UNL     1       2.014   7.275  19.318  0.00  0.00    +0.000 A 
ATOM      7  C   UNL     1       2.541   8.285  18.483  0.00  0.00    +0.000 A 
ATOM      8  C   UNL     1       3.443   7.989  17.431  0.00  0.00    +0.000 A 
ATOM      9  C   UNL     1       3.824   6.671  17.213  0.00  0.00    +0.000 A 
ATOM     10  C   UNL     1       4.746   6.164  16.190  0.00  0.00    +0.000 A 
ATOM     11  O   UNL     1       5.255   6.957  15.405  0.00  0.00    +0.000 OA
ATOM     12  C   UNL     1       2.087   4.690  19.682  0.00  0.00    +0.000 A 
ATOM     13  C   UNL     1       1.267   4.365  20.747  0.00  0.00    +0.000 A 
ATOM     14  C   UNL     1       1.168   3.017  21.112  0.00  0.00    +0.000 A 
ATOM     15  C   UNL     1       1.884   2.016  20.420  0.00  0.00    +0.000 A 
ATOM     16  C   UNL     1       2.715   2.337  19.343  0.00  0.00    +0.000 A 
ATOM     17  C   UNL     1       2.794   3.669  18.993  0.00  0.00    +0.000 A 
ENDROOT
BRANCH   1  18
ATOM     18  C   UNL     1       5.937   4.243  15.200  0.00  0.00    +0.000 C 
BRANCH  18  20
ATOM     19  O   UNL     1       7.974   4.423  16.508  0.00  0.00    +0.000 OA
ATOM     20  C   UNL     1       7.336   4.743  15.513  0.00  0.00    +0.000 C 
BRANCH  20  21
ATOM     21  O   UNL     1       7.882   5.478  14.509  0.00  0.00    +0.000 OA
ATOM     22  H   UNL     1       8.865   5.402  14.561  0.00  0.00    +0.000 HD
ENDBRANCH  20  21
ENDBRANCH  18  20
ENDBRANCH   1  18
TORSDOF 3
ENDMDL
MODEL 2
REMARK VINA RESULT:      -8.4      0.940      1.033
REMARK  Name = 
REMARK  3 active torsions:
REMARK  status: ('A' for Active; 'I' for Inactive)
REMARK    1  A    between atoms: C_2  and  O_3
REMARK    2  A    between atoms: C_2  and  C_4
REMARK    3  A    between atoms: C_4  and  N_5
REMARK                            x       y       z     vdW  Elec       q    Type
REMARK                         _______ _______ _______ _____ _____    ______ ____
ROOT
ATOM      1  N   UNL     1       5.935   5.078  17.190  0.00  0.00    +0.000 N 
ATOM      2  N   UNL     1       5.291   4.150  18.031  0.00  0.00    +0.000 NA
ATOM      3  C   UNL     1       4.219   4.575  18.621  0.00  0.00    +0.000 A 
ATOM      4  C   UNL     1       3.661   5.885  18.396  0.00  0.00    +0.000 A 
ATOM      5  C   UNL     1       2.504   6.054  19.144  0.00  0.00    +0.000 A 
ATOM      6  C   UNL     1       1.835   7.257  19.030  0.00  0.00    +0.000 A 
ATOM      7  C   UNL     1       2.364   8.232  18.156  0.00  0.00    +0.000 A 
ATOM      8  C   UNL     1       3.548   8.004  17.412  0.00  0.00    +0.000 A 
ATOM      9  C   UNL     1       4.212   6.791  17.545  0.00  0.00    +0.000 A 
ATOM     10  C   UNL     1       5.447   6.369  16.874  0.00  0.00    +0.000 A 
ATOM     11  O   UNL     1       5.987   7.138  16.086  0.00  0.00    +0.000 OA
ATOM     12  C   UNL     1       2.291   4.834  19.894  0.00  0.00    +0.000 A 
ATOM     13  C   UNL     1       1.296   4.484  20.789  0.00  0.00    +0.000 A 
ATOM     14  C   UNL     1       1.358   3.215  21.375  0.00  0.00    +0.000 A 
ATOM     15  C   UNL     1       2.404   2.317  21.070  0.00  0.00    +0.000 A 
ATOM     16  C   UNL     1       3.412   2.663  20.166  0.00  0.00    +0.000 A 
ATOM     17  C   UNL     1       3.330   3.915  19.592  0.00  0.00    +0.000 A 
ENDROOT
BRANCH   1  18
ATOM     18  C   UNL     1       7.192   4.651  16.568  0.00  0.00    +0.000 C 
BRANCH  18  20
ATOM     19  O   UNL     1       6.208   3.678  14.573  0.00  0.00    +0.000 OA
ATOM     20  C   UNL     1       6.996   4.471  15.073  0.00  0.00    +0.000 C 
BRANCH  20  21
ATOM     21  O   UNL     1       7.680   5.378  14.328  0.00  0.00    +0.000 OA
ATOM     22  H   UNL     1       7.577   6.268  14.742  0.00  0.00    +0.000 HD
ENDBRANCH  20  21
ENDBRANCH  18  20
ENDBRANCH   1  18
TORSDOF 3
ENDMDL
MODEL 3
REMARK VINA RESULT:      -8.1      1.128      1.264
REMARK  Name = 
REMARK  3 active torsions:
REMARK  status: ('A' for Active; 'I' for Inactive)
REMARK    1  A    between atoms: C_2  and  O_3
REMARK    2  A    between atoms: C_2  and  C_4
REMARK    3  A    between atoms: C_4  and  N_5
REMARK                            x       y       z     vdW  Elec       q    Type
REMARK                         _______ _______ _______ _____ _____    ______ ____
ROOT
ATOM      1  N   UNL     1       5.946   5.035  16.729  0.00  0.00    +0.000 N 
ATOM      2  N   UNL     1       5.140   3.962  17.156  0.00  0.00    +0.000 NA
ATOM      3  C   UNL     1       4.028   4.290  17.734  0.00  0.00    +0.000 A 
ATOM      4  C   UNL     1       3.588   5.655  17.883  0.00  0.00    +0.000 A 
ATOM      5  C   UNL     1       2.355   5.701  18.519  0.00  0.00    +0.000 A 
ATOM      6  C   UNL     1       1.784   6.941  18.726  0.00  0.00    +0.000 A 
ATOM      7  C   UNL     1       2.484   8.080  18.270  0.00  0.00    +0.000 A 
ATOM      8  C   UNL     1       3.740   7.975  17.622  0.00  0.00    +0.000 A 
ATOM      9  C   UNL     1       4.302   6.719  17.429  0.00  0.00    +0.000 A 
ATOM     10  C   UNL     1       5.586   6.403  16.792  0.00  0.00    +0.000 A 
ATOM     11  O   UNL     1       6.272   7.319  16.353  0.00  0.00    +0.000 OA
ATOM     12  C   UNL     1       1.968   4.337  18.813  0.00  0.00    +0.000 A 
ATOM     13  C   UNL     1       0.844   3.830  19.439  0.00  0.00    +0.000 A 
ATOM     14  C   UNL     1       0.748   2.441  19.592  0.00  0.00    +0.000 A 
ATOM     15  C   UNL     1       1.766   1.581  19.127  0.00  0.00    +0.000 A 
ATOM     16  C   UNL     1       2.905   2.086  18.493  0.00  0.00    +0.000 A 
ATOM     17  C   UNL     1       2.978   3.456  18.345  0.00  0.00    +0.000 A 
ENDROOT
BRANCH   1  18
ATOM     18  C   UNL     1       7.244   4.696  16.139  0.00  0.00    +0.000 C 
BRANCH  18  20
ATOM     19  O   UNL     1       7.727   5.380  13.860  0.00  0.00    +0.000 OA
ATOM     20  C   UNL     1       7.127   4.636  14.626  0.00  0.00    +0.000 C 
BRANCH  20  21
ATOM     21  O   UNL     1       6.395   3.581  14.185  0.00  0.00    +0.000 OA
ATOM     22  H   UNL     1       5.444   3.845  14.158  0.00  0.00    +0.000 HD
ENDBRANCH  20  21
ENDBRANCH  18  20
ENDBRANCH   1  18
TORSDOF 3
ENDMDL
MODEL 4
REMARK VINA RESULT:      -8.0      3.266      5.583
REMARK  Name = 
REMARK  3 active torsions:
REMARK  status: ('A' for Active; 'I' for Inactive)
REMARK    1  A    between atoms: C_2  and  O_3
REMARK    2  A    between atoms: C_2  and  C_4
REMARK    3  A    between atoms: C_4  and  N_5
REMARK                            x       y       z     vdW  Elec       q    Type
REMARK                         _______ _______ _______ _____ _____    ______ ____
ROOT
ATOM      1  N   UNL     1       3.140   3.883  20.180  0.00  0.00    +0.000 N 
ATOM      2  N   UNL     1       2.416   5.074  20.376  0.00  0.00    +0.000 NA
ATOM      3  C   UNL     1       2.641   6.016  19.517  0.00  0.00    +0.000 A 
ATOM      4  C   UNL     1       3.519   5.859  18.384  0.00  0.00    +0.000 A 
ATOM      5  C   UNL     1       3.549   7.022  17.628  0.00  0.00    +0.000 A 
ATOM      6  C   UNL     1       4.335   7.031  16.493  0.00  0.00    +0.000 A 
ATOM      7  C   UNL     1       5.050   5.856  16.169  0.00  0.00    +0.000 A 
ATOM      8  C   UNL     1       4.979   4.693  16.976  0.00  0.00    +0.000 A 
ATOM      9  C   UNL     1       4.189   4.706  18.118  0.00  0.00    +0.000 A 
ATOM     10  C   UNL     1       3.991   3.615  19.081  0.00  0.00    +0.000 A 
ATOM     11  O   UNL     1       4.561   2.546  18.891  0.00  0.00    +0.000 OA
ATOM     12  C   UNL     1       2.681   7.983  18.276  0.00  0.00    +0.000 A 
ATOM     13  C   UNL     1       2.364   9.287  17.941  0.00  0.00    +0.000 A 
ATOM     14  C   UNL     1       1.486   9.985  18.779  0.00  0.00    +0.000 A 
ATOM     15  C   UNL     1       0.941   9.383  19.933  0.00  0.00    +0.000 A 
ATOM     16  C   UNL     1       1.256   8.065  20.277  0.00  0.00    +0.000 A 
ATOM     17  C   UNL     1       2.116   7.391  19.436  0.00  0.00    +0.000 A 
ENDROOT
BRANCH   1  18
ATOM     18  C   UNL     1       2.963   2.825  21.180  0.00  0.00    +0.000 C 
BRANCH  18  20
ATOM     19  O   UNL     1       1.045   2.453  22.621  0.00  0.00    +0.000 OA
ATOM     20  C   UNL     1       1.488   2.652  21.497  0.00  0.00    +0.000 C 
BRANCH  20  21
ATOM     21  O   UNL     1       0.678   2.880  20.430  0.00  0.00    +0.000 OA
ATOM     22  H   UNL     1       0.573   3.855  20.316  0.00  0.00    +0.000 HD
ENDBRANCH  20  21
ENDBRANCH  18  20
ENDBRANCH   1  18
TORSDOF 3
ENDMDL
MODEL 5
REMARK VINA RESULT:      -7.9      3.219      5.836
REMARK  Name = 
REMARK  3 active torsions:
REMARK  status: ('A' for Active; 'I' for Inactive)
REMARK    1  A    between atoms: C_2  and  O_3
REMARK    2  A    between atoms: C_2  and  C_4
REMARK    3  A    between atoms: C_4  and  N_5
REMARK                            x       y       z     vdW  Elec       q    Type
REMARK                         _______ _______ _______ _____ _____    ______ ____
ROOT
ATOM      1  N   UNL     1       2.124   7.847  19.299  0.00  0.00    +0.000 N 
ATOM      2  N   UNL     1       2.915   7.605  18.160  0.00  0.00    +0.000 NA
ATOM      3  C   UNL     1       3.416   6.414  18.067  0.00  0.00    +0.000 A 
ATOM      4  C   UNL     1       3.143   5.365  19.018  0.00  0.00    +0.000 A 
ATOM      5  C   UNL     1       3.797   4.197  18.652  0.00  0.00    +0.000 A 
ATOM      6  C   UNL     1       3.626   3.087  19.455  0.00  0.00    +0.000 A 
ATOM      7  C   UNL     1       2.792   3.208  20.589  0.00  0.00    +0.000 A 
ATOM      8  C   UNL     1       2.145   4.426  20.913  0.00  0.00    +0.000 A 
ATOM      9  C   UNL     1       2.335   5.534  20.098  0.00  0.00    +0.000 A 
ATOM     10  C   UNL     1       1.765   6.877  20.266  0.00  0.00    +0.000 A 
ATOM     11  O   UNL     1       1.019   7.089  21.216  0.00  0.00    +0.000 OA
ATOM     12  C   UNL     1       4.532   4.474  17.436  0.00  0.00    +0.000 A 
ATOM     13  C   UNL     1       5.347   3.664  16.666  0.00  0.00    +0.000 A 
ATOM     14  C   UNL     1       5.942   4.222  15.529  0.00  0.00    +0.000 A 
ATOM     15  C   UNL     1       5.723   5.571  15.175  0.00  0.00    +0.000 A 
ATOM     16  C   UNL     1       4.900   6.396  15.947  0.00  0.00    +0.000 A 
ATOM     17  C   UNL     1       4.317   5.826  17.060  0.00  0.00    +0.000 A 
ENDROOT
BRANCH   1  18
ATOM     18  C   UNL     1       1.604   9.207  19.471  0.00  0.00    +0.000 C 
BRANCH  18  20
ATOM     19  O   UNL     1      -0.124   9.754  17.856  0.00  0.00    +0.000 OA
ATOM     20  C   UNL     1       1.064   9.727  18.150  0.00  0.00    +0.000 C 
BRANCH  20  21
ATOM     21  O   UNL     1       2.017  10.296  17.367  0.00  0.00    +0.000 OA
ATOM     22  H   UNL     1       2.872  10.297  17.860  0.00  0.00    +0.000 HD
ENDBRANCH  20  21
ENDBRANCH  18  20
ENDBRANCH   1  18
TORSDOF 3
ENDMDL
MODEL 6
REMARK VINA RESULT:      -7.7      1.527      3.993
REMARK  Name = 
REMARK  3 active torsions:
REMARK  status: ('A' for Active; 'I' for Inactive)
REMARK    1  A    between atoms: C_2  and  O_3
REMARK    2  A    between atoms: C_2  and  C_4
REMARK    3  A    between atoms: C_4  and  N_5
REMARK                            x       y       z     vdW  Elec       q    Type
REMARK                         _______ _______ _______ _____ _____    ______ ____
ROOT
ATOM      1  N   UNL     1       4.730   5.463  16.857  0.00  0.00    +0.000 N 
ATOM      2  N   UNL     1       4.172   6.750  16.973  0.00  0.00    +0.000 NA
ATOM      3  C   UNL     1       3.348   6.918  17.958  0.00  0.00    +0.000 A 
ATOM      4  C   UNL     1       3.055   5.892  18.927  0.00  0.00    +0.000 A 
ATOM      5  C   UNL     1       2.157   6.361  19.875  0.00  0.00    +0.000 A 
ATOM      6  C   UNL     1       1.784   5.501  20.888  0.00  0.00    +0.000 A 
ATOM      7  C   UNL     1       2.344   4.204  20.900  0.00  0.00    +0.000 A 
ATOM      8  C   UNL     1       3.261   3.778  19.907  0.00  0.00    +0.000 A 
ATOM      9  C   UNL     1       3.619   4.655  18.892  0.00  0.00    +0.000 A 
ATOM     10  C   UNL     1       4.539   4.403  17.776  0.00  0.00    +0.000 A 
ATOM     11  O   UNL     1       5.088   3.310  17.695  0.00  0.00    +0.000 OA
ATOM     12  C   UNL     1       1.834   7.728  19.526  0.00  0.00    +0.000 A 
ATOM     13  C   UNL     1       0.990   8.642  20.131  0.00  0.00    +0.000 A 
ATOM     14  C   UNL     1       0.869   9.910  19.549  0.00  0.00    +0.000 A 
ATOM     15  C   UNL     1       1.581  10.249  18.379  0.00  0.00    +0.000 A 
ATOM     16  C   UNL     1       2.436   9.332  17.762  0.00  0.00    +0.000 A 
ATOM     17  C   UNL     1       2.548   8.090  18.353  0.00  0.00    +0.000 A 
ENDROOT
BRANCH   1  18
ATOM     18  C   UNL     1       5.609   5.221  15.708  0.00  0.00    +0.000 C 
BRANCH  18  20
ATOM     19  O   UNL     1       7.532   6.581  16.295  0.00  0.00    +0.000 OA
ATOM     20  C   UNL     1       7.055   5.471  16.099  0.00  0.00    +0.000 C 
BRANCH  20  21
ATOM     21  O   UNL     1       7.748   4.331  16.352  0.00  0.00    +0.000 OA
ATOM     22  H   UNL     1       7.357   3.892  17.145  0.00  0.00    +0.000 HD
ENDBRANCH  20  21
ENDBRANCH  18  20
ENDBRANCH   1  18
TORSDOF 3
ENDMDL
MODEL 7
REMARK VINA RESULT:      -7.7      2.938      5.112
REMARK  Name = 
REMARK  3 active torsions:
REMARK  status: ('A' for Active; 'I' for Inactive)
REMARK    1  A    between atoms: C_2  and  O_3
REMARK    2  A    between atoms: C_2  and  C_4
REMARK    3  A    between atoms: C_4  and  N_5
REMARK                            x       y       z     vdW  Elec       q    Type
REMARK                         _______ _______ _______ _____ _____    ______ ____
ROOT
ATOM      1  N   UNL     1       3.648   3.301  20.052  0.00  0.00    +0.000 N 
ATOM      2  N   UNL     1       4.490   3.251  18.925  0.00  0.00    +0.000 NA
ATOM      3  C   UNL     1       4.468   4.297  18.161  0.00  0.00    +0.000 A 
ATOM      4  C   UNL     1       3.694   5.476  18.458  0.00  0.00    +0.000 A 
ATOM      5  C   UNL     1       3.881   6.440  17.477  0.00  0.00    +0.000 A 
ATOM      6  C   UNL     1       3.218   7.642  17.622  0.00  0.00    +0.000 A 
ATOM      7  C   UNL     1       2.399   7.817  18.760  0.00  0.00    +0.000 A 
ATOM      8  C   UNL     1       2.246   6.799  19.734  0.00  0.00    +0.000 A 
ATOM      9  C   UNL     1       2.916   5.594  19.567  0.00  0.00    +0.000 A 
ATOM     10  C   UNL     1       2.882   4.423  20.451  0.00  0.00    +0.000 A 
ATOM     11  O   UNL     1       2.207   4.471  21.474  0.00  0.00    +0.000 OA
ATOM     12  C   UNL     1       4.793   5.889  16.497  0.00  0.00    +0.000 A 
ATOM     13  C   UNL     1       5.299   6.428  15.328  0.00  0.00    +0.000 A 
ATOM     14  C   UNL     1       6.170   5.640  14.565  0.00  0.00    +0.000 A 
ATOM     15  C   UNL     1       6.520   4.334  14.970  0.00  0.00    +0.000 A 
ATOM     16  C   UNL     1       6.013   3.783  16.150  0.00  0.00    +0.000 A 
ATOM     17  C   UNL     1       5.163   4.576  16.892  0.00  0.00    +0.000 A 
ENDROOT
BRANCH   1  18
ATOM     18  C   UNL     1       3.595   2.102  20.895  0.00  0.00    +0.000 C 
BRANCH  18  20
ATOM     19  O   UNL     1       5.734   1.275  21.689  0.00  0.00    +0.000 OA
ATOM     20  C   UNL     1       4.903   1.337  20.792  0.00  0.00    +0.000 C 
BRANCH  20  21
ATOM     21  O   UNL     1       5.008   0.602  19.655  0.00  0.00    +0.000 OA
ATOM     22  H   UNL     1       5.912   0.207  19.617  0.00  0.00    +0.000 HD
ENDBRANCH  20  21
ENDBRANCH  18  20
ENDBRANCH   1  18
TORSDOF 3
ENDMDL
MODEL 8
REMARK VINA RESULT:      -7.7      4.019      5.766
REMARK  Name = 
REMARK  3 active torsions:
REMARK  status: ('A' for Active; 'I' for Inactive)
REMARK    1  A    between atoms: C_2  and  O_3
REMARK    2  A    between atoms: C_2  and  C_4
REMARK    3  A    between atoms: C_4  and  N_5
REMARK                            x       y       z     vdW  Elec       q    Type
REMARK                         _______ _______ _______ _____ _____    ______ ____
ROOT
ATOM      1  N   UNL     1       0.909   8.174  20.666  0.00  0.00    +0.000 N 
ATOM      2  N   UNL     1       1.180   6.883  21.160  0.00  0.00    +0.000 NA
ATOM      3  C   UNL     1       1.962   6.155  20.427  0.00  0.00    +0.000 A 
ATOM      4  C   UNL     1       2.582   6.632  19.217  0.00  0.00    +0.000 A 
ATOM      5  C   UNL     1       3.380   5.644  18.658  0.00  0.00    +0.000 A 
ATOM      6  C   UNL     1       4.061   5.948  17.496  0.00  0.00    +0.000 A 
ATOM      7  C   UNL     1       3.909   7.245  16.956  0.00  0.00    +0.000 A 
ATOM      8  C   UNL     1       3.083   8.218  17.572  0.00  0.00    +0.000 A 
ATOM      9  C   UNL     1       2.401   7.892  18.736  0.00  0.00    +0.000 A 
ATOM     10  C   UNL     1       1.498   8.749  19.514  0.00  0.00    +0.000 A 
ATOM     11  O   UNL     1       1.301   9.899  19.138  0.00  0.00    +0.000 OA
ATOM     12  C   UNL     1       3.282   4.476  19.507  0.00  0.00    +0.000 A 
ATOM     13  C   UNL     1       3.867   3.227  19.401  0.00  0.00    +0.000 A 
ATOM     14  C   UNL     1       3.573   2.278  20.387  0.00  0.00    +0.000 A 
ATOM     15  C   UNL     1       2.703   2.579  21.457  0.00  0.00    +0.000 A 
ATOM     16  C   UNL     1       2.109   3.839  21.572  0.00  0.00    +0.000 A 
ATOM     17  C   UNL     1       2.416   4.763  20.595  0.00  0.00    +0.000 A 
ENDROOT
BRANCH   1  18
ATOM     18  C   UNL     1      -0.032   8.994  21.435  0.00  0.00    +0.000 C 
BRANCH  18  20
ATOM     19  O   UNL     1       0.020   9.939  23.670  0.00  0.00    +0.000 OA
ATOM     20  C   UNL     1       0.629   9.487  22.709  0.00  0.00    +0.000 C 
BRANCH  20  21
ATOM     21  O   UNL     1       1.966   9.251  22.747  0.00  0.00    +0.000 OA
ATOM     22  H   UNL     1       2.273   9.024  21.836  0.00  0.00    +0.000 HD
ENDBRANCH  20  21
ENDBRANCH  18  20
ENDBRANCH   1  18
TORSDOF 3
ENDMDL
MODEL 9
REMARK VINA RESULT:      -7.6      1.413      3.856
REMARK  Name = 
REMARK  3 active torsions:
REMARK  status: ('A' for Active; 'I' for Inactive)
REMARK    1  A    between atoms: C_2  and  O_3
REMARK    2  A    between atoms: C_2  and  C_4
REMARK    3  A    between atoms: C_4  and  N_5
REMARK                            x       y       z     vdW  Elec       q    Type
REMARK                         _______ _______ _______ _____ _____    ______ ____
ROOT
ATOM      1  N   UNL     1       4.339   4.318  16.972  0.00  0.00    +0.000 N 
ATOM      2  N   UNL     1       3.907   5.645  17.161  0.00  0.00    +0.000 NA
ATOM      3  C   UNL     1       3.209   5.861  18.230  0.00  0.00    +0.000 A 
ATOM      4  C   UNL     1       2.934   4.844  19.214  0.00  0.00    +0.000 A 
ATOM      5  C   UNL     1       2.184   5.368  20.257  0.00  0.00    +0.000 A 
ATOM      6  C   UNL     1       1.847   4.522  21.295  0.00  0.00    +0.000 A 
ATOM      7  C   UNL     1       2.293   3.183  21.233  0.00  0.00    +0.000 A 
ATOM      8  C   UNL     1       3.061   2.701  20.144  0.00  0.00    +0.000 A 
ATOM      9  C   UNL     1       3.384   3.565  19.106  0.00  0.00    +0.000 A 
ATOM     10  C   UNL     1       4.156   3.260  17.895  0.00  0.00    +0.000 A 
ATOM     11  O   UNL     1       4.599   2.126  17.744  0.00  0.00    +0.000 OA
ATOM     12  C   UNL     1       1.942   6.764  19.959  0.00  0.00    +0.000 A 
ATOM     13  C   UNL     1       1.247   7.732  20.660  0.00  0.00    +0.000 A 
ATOM     14  C   UNL     1       1.174   9.017  20.108  0.00  0.00    +0.000 A 
ATOM     15  C   UNL     1       1.785   9.319  18.872  0.00  0.00    +0.000 A 
ATOM     16  C   UNL     1       2.489   8.345  18.158  0.00  0.00    +0.000 A 
ATOM     17  C   UNL     1       2.557   7.088  18.721  0.00  0.00    +0.000 A 
ENDROOT
BRANCH   1  18
ATOM     18  C   UNL     1       5.068   4.026  15.734  0.00  0.00    +0.000 C 
BRANCH  18  20
ATOM     19  O   UNL     1       7.416   4.640  15.759  0.00  0.00    +0.000 OA
ATOM     20  C   UNL     1       6.249   4.970  15.592  0.00  0.00    +0.000 C 
BRANCH  20  21
ATOM     21  O   UNL     1       5.904   6.196  15.121  0.00  0.00    +0.000 OA
ATOM     22  H   UNL     1       6.728   6.686  14.883  0.00  0.00    +0.000 HD
ENDBRANCH  20  21
ENDBRANCH  18  20
ENDBRANCH   1  18
TORSDOF 3
ENDMDL
