MODEL 1
REMARK VINA RESULT:      -8.8      0.000      0.000
REMARK  Name = 
REMARK  8 active torsions:
REMARK  status: ('A' for Active; 'I' for Inactive)
REMARK    1  A    between atoms: C_1  and  C_2
REMARK    2  A    between atoms: N_4  and  C_5
REMARK    3  A    between atoms: C_7  and  S_8
REMARK    4  A    between atoms: S_8  and  N_11
REMARK    5  A    between atoms: N_11  and  C_12
REMARK    6  A    between atoms: C_12  and  C_13
REMARK    7  A    between atoms: C_13  and  C_14
REMARK    8  A    between atoms: C_13  and  N_20
REMARK                            x       y       z     vdW  Elec       q    Type
REMARK                         _______ _______ _______ _____ _____    ______ ____
ROOT
ATOM      1  C   UNL     1       2.496   6.564  18.209  0.00  0.00    +0.000 C 
ENDROOT
BRANCH   1   2
ATOM      2  N   UNL     1       1.659   7.670  18.792  0.00  0.00    +0.000 NA
ATOM      3  C   UNL     1       1.989   8.007  20.197  0.00  0.00    +0.000 C 
ATOM      4  C   UNL     1       0.735   8.473  20.953  0.00  0.00    +0.000 C 
ATOM      5  C   UNL     1       0.333   9.927  20.713  0.00  0.00    +0.000 C 
ATOM      6  C   UNL     1       0.071  10.323  19.262  0.00  0.00    +0.000 C 
ATOM      7  C   UNL     1       1.343  10.236  18.423  0.00  0.00    +0.000 C 
ATOM      8  C   UNL     1       1.648   8.841  17.865  0.00  0.00    +0.000 C 
ENDBRANCH   1   2
BRANCH   1   9
ATOM      9  C   UNL     1       1.987   5.195  18.679  0.00  0.00    +0.000 A 
ATOM     10  C   UNL     1       1.967   4.078  17.815  0.00  0.00    +0.000 A 
ATOM     11  C   UNL     1       1.540   2.831  18.272  0.00  0.00    +0.000 A 
ATOM     12  C   UNL     1       1.141   2.672  19.598  0.00  0.00    +0.000 A 
ATOM     13  C   UNL     1       1.163   3.762  20.470  0.00  0.00    +0.000 A 
ATOM     14  C   UNL     1       1.579   5.019  20.015  0.00  0.00    +0.000 A 
ENDBRANCH   1   9
BRANCH   1  15
ATOM     15  C   UNL     1       4.023   6.669  18.519  0.00  0.00    +0.000 C 
BRANCH  15  16
ATOM     16  N   UNL     1       4.431   5.733  19.567  0.00  0.00    +0.000 NA
ATOM     17  H   UNL     1       4.760   6.280  20.396  0.00  0.00    +0.000 HD
BRANCH  16  18
ATOM     18  S   UNL     1       5.804   4.742  19.051  0.00  0.00    +0.000 S 
ATOM     19  O   UNL     1       5.480   3.293  19.452  0.00  0.00    +0.000 OA
ATOM     20  O   UNL     1       6.940   5.114  20.015  0.00  0.00    +0.000 OA
BRANCH  18  27
ATOM     21  C   UNL     1       7.615   7.131  17.471  0.00  0.00    +0.000 C 
ATOM     22  C   UNL     1       6.998   5.970  16.766  0.00  0.00    +0.000 A 
ATOM     23  N   UNL     1       7.121   5.729  15.445  0.00  0.00    +0.000 NA
ATOM     24  N   UNL     1       6.466   4.607  15.185  0.00  0.00    +0.000 N 
ATOM     25  C   UNL     1       6.379   3.993  13.867  0.00  0.00    +0.000 C 
ATOM     26  C   UNL     1       5.913   4.118  16.309  0.00  0.00    +0.000 A 
ATOM     27  C   UNL     1       6.239   4.970  17.337  0.00  0.00    +0.000 A 
ENDBRANCH  18  27
ENDBRANCH  16  18
ENDBRANCH  15  16
ENDBRANCH   1  15
TORSDOF 6
ENDMDL
MODEL 2
REMARK VINA RESULT:      -8.8      3.237      7.176
REMARK  Name = 
REMARK  8 active torsions:
REMARK  status: ('A' for Active; 'I' for Inactive)
REMARK    1  A    between atoms: C_1  and  C_2
REMARK    2  A    between atoms: N_4  and  C_5
REMARK    3  A    between atoms: C_7  and  S_8
REMARK    4  A    between atoms: S_8  and  N_11
REMARK    5  A    between atoms: N_11  and  C_12
REMARK    6  A    between atoms: C_12  and  C_13
REMARK    7  A    between atoms: C_13  and  C_14
REMARK    8  A    between atoms: C_13  and  N_20
REMARK                            x       y       z     vdW  Elec       q    Type
REMARK                         _______ _______ _______ _____ _____    ______ ____
ROOT
ATOM      1  C   UNL     1       3.422   6.177  18.800  0.00  0.00    +0.000 C 
ENDROOT
BRANCH   1   2
ATOM      2  N   UNL     1       4.558   5.710  17.930  0.00  0.00    +0.000 NA
ATOM      3  C   UNL     1       4.923   6.656  16.848  0.00  0.00    +0.000 C 
ATOM      4  C   UNL     1       5.432   5.897  15.613  0.00  0.00    +0.000 C 
ATOM      5  C   UNL     1       6.887   5.437  15.684  0.00  0.00    +0.000 C 
ATOM      6  C   UNL     1       7.252   4.536  16.862  0.00  0.00    +0.000 C 
ATOM      7  C   UNL     1       7.119   5.275  18.190  0.00  0.00    +0.000 C 
ATOM      8  C   UNL     1       5.706   5.279  18.783  0.00  0.00    +0.000 C 
ENDBRANCH   1   2
BRANCH   1   9
ATOM      9  C   UNL     1       2.497   5.005  19.156  0.00  0.00    +0.000 A 
ATOM     10  C   UNL     1       2.073   4.776  20.484  0.00  0.00    +0.000 A 
ATOM     11  C   UNL     1       1.198   3.731  20.783  0.00  0.00    +0.000 A 
ATOM     12  C   UNL     1       0.720   2.907  19.765  0.00  0.00    +0.000 A 
ATOM     13  C   UNL     1       1.120   3.125  18.444  0.00  0.00    +0.000 A 
ATOM     14  C   UNL     1       2.007   4.164  18.140  0.00  0.00    +0.000 A 
ENDBRANCH   1   9
BRANCH   1  15
ATOM     15  C   UNL     1       2.564   7.330  18.190  0.00  0.00    +0.000 C 
BRANCH  15  16
ATOM     16  N   UNL     1       1.884   8.109  19.225  0.00  0.00    +0.000 NA
ATOM     17  H   UNL     1       1.038   7.579  19.541  0.00  0.00    +0.000 HD
BRANCH  16  18
ATOM     18  S   UNL     1       1.295   9.653  18.592  0.00  0.00    +0.000 S 
ATOM     19  O   UNL     1       0.097   9.330  17.682  0.00  0.00    +0.000 OA
ATOM     20  O   UNL     1       2.369  10.101  17.589  0.00  0.00    +0.000 OA
BRANCH  18  27
ATOM     21  C   UNL     1      -0.183   9.415  21.632  0.00  0.00    +0.000 C 
ATOM     22  C   UNL     1       0.372  10.689  21.087  0.00  0.00    +0.000 A 
ATOM     23  N   UNL     1       0.377  11.862  21.751  0.00  0.00    +0.000 NA
ATOM     24  N   UNL     1       0.968  12.756  20.972  0.00  0.00    +0.000 N 
ATOM     25  C   UNL     1       1.191  14.147  21.339  0.00  0.00    +0.000 C 
ATOM     26  C   UNL     1       1.340  12.188  19.811  0.00  0.00    +0.000 A 
ATOM     27  C   UNL     1       0.973  10.865  19.859  0.00  0.00    +0.000 A 
ENDBRANCH  18  27
ENDBRANCH  16  18
ENDBRANCH  15  16
ENDBRANCH   1  15
TORSDOF 6
ENDMDL
MODEL 3
REMARK VINA RESULT:      -8.6      2.443      4.965
REMARK  Name = 
REMARK  8 active torsions:
REMARK  status: ('A' for Active; 'I' for Inactive)
REMARK    1  A    between atoms: C_1  and  C_2
REMARK    2  A    between atoms: N_4  and  C_5
REMARK    3  A    between atoms: C_7  and  S_8
REMARK    4  A    between atoms: S_8  and  N_11
REMARK    5  A    between atoms: N_11  and  C_12
REMARK    6  A    between atoms: C_12  and  C_13
REMARK    7  A    between atoms: C_13  and  C_14
REMARK    8  A    between atoms: C_13  and  N_20
REMARK                            x       y       z     vdW  Elec       q    Type
REMARK                         _______ _______ _______ _____ _____    ______ ____
ROOT
ATOM      1  C   UNL     1       3.546   5.971  18.688  0.00  0.00    +0.000 C 
ENDROOT
BRANCH   1   2
ATOM      2  N   UNL     1       3.013   4.931  19.636  0.00  0.00    +0.000 NA
ATOM      3  C   UNL     1       1.717   4.341  19.225  0.00  0.00    +0.000 C 
ATOM      4  C   UNL     1       0.878   3.963  20.456  0.00  0.00    +0.000 C 
ATOM      5  C   UNL     1       1.255   2.640  21.121  0.00  0.00    +0.000 C 
ATOM      6  C   UNL     1       2.702   2.511  21.592  0.00  0.00    +0.000 C 
ATOM      7  C   UNL     1       3.674   2.528  20.416  0.00  0.00    +0.000 C 
ATOM      8  C   UNL     1       4.077   3.928  19.938  0.00  0.00    +0.000 C 
ENDBRANCH   1   2
BRANCH   1   9
ATOM      9  C   UNL     1       2.739   7.272  18.803  0.00  0.00    +0.000 A 
ATOM     10  C   UNL     1       2.613   8.162  17.714  0.00  0.00    +0.000 A 
ATOM     11  C   UNL     1       1.841   9.319  17.825  0.00  0.00    +0.000 A 
ATOM     12  C   UNL     1       1.171   9.601  19.014  0.00  0.00    +0.000 A 
ATOM     13  C   UNL     1       1.276   8.728  20.099  0.00  0.00    +0.000 A 
ATOM     14  C   UNL     1       2.059   7.572  19.999  0.00  0.00    +0.000 A 
ENDBRANCH   1   9
BRANCH   1  15
ATOM     15  C   UNL     1       3.582   5.531  17.190  0.00  0.00    +0.000 C 
BRANCH  15  16
ATOM     16  N   UNL     1       4.870   4.938  16.828  0.00  0.00    +0.000 NA
ATOM     17  H   UNL     1       5.346   4.612  17.701  0.00  0.00    +0.000 HD
BRANCH  16  18
ATOM     18  S   UNL     1       5.948   6.133  16.092  0.00  0.00    +0.000 S 
ATOM     19  O   UNL     1       5.062   7.080  15.265  0.00  0.00    +0.000 OA
ATOM     20  O   UNL     1       6.714   5.356  15.010  0.00  0.00    +0.000 OA
BRANCH  18  27
ATOM     21  C   UNL     1       7.718   4.951  18.729  0.00  0.00    +0.000 C 
ATOM     22  C   UNL     1       7.724   6.384  18.313  0.00  0.00    +0.000 A 
ATOM     23  N   UNL     1       8.452   7.347  18.913  0.00  0.00    +0.000 NA
ATOM     24  N   UNL     1       8.226   8.479  18.262  0.00  0.00    +0.000 N 
ATOM     25  C   UNL     1       8.847   9.754  18.590  0.00  0.00    +0.000 C 
ATOM     26  C   UNL     1       7.358   8.272  17.255  0.00  0.00    +0.000 A 
ATOM     27  C   UNL     1       7.022   6.940  17.264  0.00  0.00    +0.000 A 
ENDBRANCH  18  27
ENDBRANCH  16  18
ENDBRANCH  15  16
ENDBRANCH   1  15
TORSDOF 6
ENDMDL
MODEL 4
REMARK VINA RESULT:      -8.5      3.197      7.111
REMARK  Name = 
REMARK  8 active torsions:
REMARK  status: ('A' for Active; 'I' for Inactive)
REMARK    1  A    between atoms: C_1  and  C_2
REMARK    2  A    between atoms: N_4  and  C_5
REMARK    3  A    between atoms: C_7  and  S_8
REMARK    4  A    between atoms: S_8  and  N_11
REMARK    5  A    between atoms: N_11  and  C_12
REMARK    6  A    between atoms: C_12  and  C_13
REMARK    7  A    between atoms: C_13  and  C_14
REMARK    8  A    between atoms: C_13  and  N_20
REMARK                            x       y       z     vdW  Elec       q    Type
REMARK                         _______ _______ _______ _____ _____    ______ ____
ROOT
ATOM      1  C   UNL     1       3.480   6.177  18.857  0.00  0.00    +0.000 C 
ENDROOT
BRANCH   1   2
ATOM      2  N   UNL     1       4.632   5.679  18.026  0.00  0.00    +0.000 NA
ATOM      3  C   UNL     1       4.900   6.487  16.813  0.00  0.00    +0.000 C 
ATOM      4  C   UNL     1       5.442   5.601  15.680  0.00  0.00    +0.000 C 
ATOM      5  C   UNL     1       6.929   5.265  15.770  0.00  0.00    +0.000 C 
ATOM      6  C   UNL     1       7.387   4.568  17.049  0.00  0.00    +0.000 C 
ATOM      7  C   UNL     1       7.223   5.474  18.265  0.00  0.00    +0.000 C 
ATOM      8  C   UNL     1       5.826   5.457  18.895  0.00  0.00    +0.000 C 
ENDBRANCH   1   2
BRANCH   1   9
ATOM      9  C   UNL     1       2.493   5.040  19.152  0.00  0.00    +0.000 A 
ATOM     10  C   UNL     1       2.037   4.175  18.132  0.00  0.00    +0.000 A 
ATOM     11  C   UNL     1       1.171   3.121  18.425  0.00  0.00    +0.000 A 
ATOM     12  C   UNL     1       0.759   2.900  19.739  0.00  0.00    +0.000 A 
ATOM     13  C   UNL     1       1.208   3.738  20.762  0.00  0.00    +0.000 A 
ATOM     14  C   UNL     1       2.066   4.805  20.472  0.00  0.00    +0.000 A 
ENDBRANCH   1   9
BRANCH   1  15
ATOM     15  C   UNL     1       2.698   7.377  18.235  0.00  0.00    +0.000 C 
BRANCH  15  16
ATOM     16  N   UNL     1       1.958   8.129  19.249  0.00  0.00    +0.000 NA
ATOM     17  H   UNL     1       1.127   7.565  19.544  0.00  0.00    +0.000 HD
BRANCH  16  18
ATOM     18  S   UNL     1       1.321   9.644  18.594  0.00  0.00    +0.000 S 
ATOM     19  O   UNL     1       0.226   9.265  17.583  0.00  0.00    +0.000 OA
ATOM     20  O   UNL     1       2.442  10.183  17.692  0.00  0.00    +0.000 OA
BRANCH  18  27
ATOM     21  C   UNL     1       1.956  12.947  19.013  0.00  0.00    +0.000 C 
ATOM     22  C   UNL     1       1.108  12.150  19.947  0.00  0.00    +0.000 A 
ATOM     23  N   UNL     1       0.482  12.658  21.027  0.00  0.00    +0.000 NA
ATOM     24  N   UNL     1      -0.191  11.670  21.597  0.00  0.00    +0.000 N 
ATOM     25  C   UNL     1      -1.020  11.816  22.785  0.00  0.00    +0.000 C 
ATOM     26  C   UNL     1      -0.009  10.526  20.912  0.00  0.00    +0.000 A 
ATOM     27  C   UNL     1       0.817  10.806  19.850  0.00  0.00    +0.000 A 
ENDBRANCH  18  27
ENDBRANCH  16  18
ENDBRANCH  15  16
ENDBRANCH   1  15
TORSDOF 6
ENDMDL
MODEL 5
REMARK VINA RESULT:      -8.5      3.231      7.128
REMARK  Name = 
REMARK  8 active torsions:
REMARK  status: ('A' for Active; 'I' for Inactive)
REMARK    1  A    between atoms: C_1  and  C_2
REMARK    2  A    between atoms: N_4  and  C_5
REMARK    3  A    between atoms: C_7  and  S_8
REMARK    4  A    between atoms: S_8  and  N_11
REMARK    5  A    between atoms: N_11  and  C_12
REMARK    6  A    between atoms: C_12  and  C_13
REMARK    7  A    between atoms: C_13  and  C_14
REMARK    8  A    between atoms: C_13  and  N_20
REMARK                            x       y       z     vdW  Elec       q    Type
REMARK                         _______ _______ _______ _____ _____    ______ ____
ROOT
ATOM      1  C   UNL     1       3.598   6.316  18.894  0.00  0.00    +0.000 C 
ENDROOT
BRANCH   1   2
ATOM      2  N   UNL     1       4.732   5.764  18.073  0.00  0.00    +0.000 NA
ATOM      3  C   UNL     1       5.035   6.546  16.851  0.00  0.00    +0.000 C 
ATOM      4  C   UNL     1       5.546   5.627  15.731  0.00  0.00    +0.000 C 
ATOM      5  C   UNL     1       7.019   5.236  15.829  0.00  0.00    +0.000 C 
ATOM      6  C   UNL     1       7.446   4.538  17.119  0.00  0.00    +0.000 C 
ATOM      7  C   UNL     1       7.314   5.465  18.323  0.00  0.00    +0.000 C 
ATOM      8  C   UNL     1       5.915   5.508  18.949  0.00  0.00    +0.000 C 
ENDBRANCH   1   2
BRANCH   1   9
ATOM      9  C   UNL     1       2.572   5.218  19.207  0.00  0.00    +0.000 A 
ATOM     10  C   UNL     1       1.989   4.439  18.183  0.00  0.00    +0.000 A 
ATOM     11  C   UNL     1       1.089   3.417  18.489  0.00  0.00    +0.000 A 
ATOM     12  C   UNL     1       0.768   3.144  19.818  0.00  0.00    +0.000 A 
ATOM     13  C   UNL     1       1.342   3.896  20.845  0.00  0.00    +0.000 A 
ATOM     14  C   UNL     1       2.236   4.931  20.543  0.00  0.00    +0.000 A 
ENDBRANCH   1   9
BRANCH   1  15
ATOM     15  C   UNL     1       2.858   7.531  18.251  0.00  0.00    +0.000 C 
BRANCH  15  16
ATOM     16  N   UNL     1       1.822   8.067  19.135  0.00  0.00    +0.000 NA
ATOM     17  H   UNL     1       1.002   7.417  19.123  0.00  0.00    +0.000 HD
BRANCH  16  18
ATOM     18  S   UNL     1       1.225   9.630  18.558  0.00  0.00    +0.000 S 
ATOM     19  O   UNL     1       0.053   9.333  17.608  0.00  0.00    +0.000 OA
ATOM     20  O   UNL     1       2.316  10.137  17.601  0.00  0.00    +0.000 OA
BRANCH  18  27
ATOM     21  C   UNL     1       0.949   9.227  21.912  0.00  0.00    +0.000 C 
ATOM     22  C   UNL     1       0.775  10.541  21.226  0.00  0.00    +0.000 A 
ATOM     23  N   UNL     1       0.526  11.704  21.862  0.00  0.00    +0.000 NA
ATOM     24  N   UNL     1       0.459  12.653  20.940  0.00  0.00    +0.000 N 
ATOM     25  C   UNL     1       0.226  14.062  21.226  0.00  0.00    +0.000 C 
ATOM     26  C   UNL     1       0.653  12.129  19.717  0.00  0.00    +0.000 A 
ATOM     27  C   UNL     1       0.859  10.780  19.871  0.00  0.00    +0.000 A 
ENDBRANCH  18  27
ENDBRANCH  16  18
ENDBRANCH  15  16
ENDBRANCH   1  15
TORSDOF 6
ENDMDL
MODEL 6
REMARK VINA RESULT:      -8.4      3.195      7.354
REMARK  Name = 
REMARK  8 active torsions:
REMARK  status: ('A' for Active; 'I' for Inactive)
REMARK    1  A    between atoms: C_1  and  C_2
REMARK    2  A    between atoms: N_4  and  C_5
REMARK    3  A    between atoms: C_7  and  S_8
REMARK    4  A    between atoms: S_8  and  N_11
REMARK    5  A    between atoms: N_11  and  C_12
REMARK    6  A    between atoms: C_12  and  C_13
REMARK    7  A    between atoms: C_13  and  C_14
REMARK    8  A    between atoms: C_13  and  N_20
REMARK                            x       y       z     vdW  Elec       q    Type
REMARK                         _______ _______ _______ _____ _____    ______ ____
ROOT
ATOM      1  C   UNL     1       3.336   6.297  18.886  0.00  0.00    +0.000 C 
ENDROOT
BRANCH   1   2
ATOM      2  N   UNL     1       4.510   5.860  18.052  0.00  0.00    +0.000 NA
ATOM      3  C   UNL     1       4.928   6.846  17.028  0.00  0.00    +0.000 C 
ATOM      4  C   UNL     1       5.492   6.135  15.788  0.00  0.00    +0.000 C 
ATOM      5  C   UNL     1       6.941   5.665  15.908  0.00  0.00    +0.000 C 
ATOM      6  C   UNL     1       7.246   4.714  17.064  0.00  0.00    +0.000 C 
ATOM      7  C   UNL     1       7.054   5.400  18.413  0.00  0.00    +0.000 C 
ATOM      8  C   UNL     1       5.614   5.388  18.939  0.00  0.00    +0.000 C 
ENDBRANCH   1   2
BRANCH   1   9
ATOM      9  C   UNL     1       2.416   5.107  19.192  0.00  0.00    +0.000 A 
ATOM     10  C   UNL     1       1.995   4.819  20.510  0.00  0.00    +0.000 A 
ATOM     11  C   UNL     1       1.126   3.758  20.764  0.00  0.00    +0.000 A 
ATOM     12  C   UNL     1       0.650   2.977  19.711  0.00  0.00    +0.000 A 
ATOM     13  C   UNL     1       1.047   3.253  18.401  0.00  0.00    +0.000 A 
ATOM     14  C   UNL     1       1.929   4.308  18.141  0.00  0.00    +0.000 A 
ENDBRANCH   1   9
BRANCH   1  15
ATOM     15  C   UNL     1       2.483   7.446  18.261  0.00  0.00    +0.000 C 
BRANCH  15  16
ATOM     16  N   UNL     1       1.941   8.341  19.284  0.00  0.00    +0.000 NA
ATOM     17  H   UNL     1       1.196   7.831  19.815  0.00  0.00    +0.000 HD
BRANCH  16  18
ATOM     18  S   UNL     1       1.157   9.753  18.560  0.00  0.00    +0.000 S 
ATOM     19  O   UNL     1       0.474   9.267  17.271  0.00  0.00    +0.000 OA
ATOM     20  O   UNL     1       2.313  10.613  18.028  0.00  0.00    +0.000 OA
BRANCH  18  27
ATOM     21  C   UNL     1      -1.486  11.811  18.047  0.00  0.00    +0.000 C 
ATOM     22  C   UNL     1      -0.979  11.450  19.403  0.00  0.00    +0.000 A 
ATOM     23  N   UNL     1      -1.531  11.871  20.559  0.00  0.00    +0.000 NA
ATOM     24  N   UNL     1      -0.835  11.334  21.550  0.00  0.00    +0.000 N 
ATOM     25  C   UNL     1      -1.130  11.528  22.962  0.00  0.00    +0.000 C 
ATOM     26  C   UNL     1       0.165  10.578  21.061  0.00  0.00    +0.000 A 
ATOM     27  C   UNL     1       0.095  10.633  19.690  0.00  0.00    +0.000 A 
ENDBRANCH  18  27
ENDBRANCH  16  18
ENDBRANCH  15  16
ENDBRANCH   1  15
TORSDOF 6
ENDMDL
MODEL 7
REMARK VINA RESULT:      -8.3      3.280      7.088
REMARK  Name = 
REMARK  8 active torsions:
REMARK  status: ('A' for Active; 'I' for Inactive)
REMARK    1  A    between atoms: C_1  and  C_2
REMARK    2  A    between atoms: N_4  and  C_5
REMARK    3  A    between atoms: C_7  and  S_8
REMARK    4  A    between atoms: S_8  and  N_11
REMARK    5  A    between atoms: N_11  and  C_12
REMARK    6  A    between atoms: C_12  and  C_13
REMARK    7  A    between atoms: C_13  and  C_14
REMARK    8  A    between atoms: C_13  and  N_20
REMARK                            x       y       z     vdW  Elec       q    Type
REMARK                         _______ _______ _______ _____ _____    ______ ____
ROOT
ATOM      1  C   UNL     1       3.211   6.044  18.223  0.00  0.00    +0.000 C 
ENDROOT
BRANCH   1   2
ATOM      2  N   UNL     1       2.722   4.855  19.005  0.00  0.00    +0.000 NA
ATOM      3  C   UNL     1       1.987   5.204  20.244  0.00  0.00    +0.000 C 
ATOM      4  C   UNL     1       2.210   4.136  21.327  0.00  0.00    +0.000 C 
ATOM      5  C   UNL     1       1.355   2.878  21.189  0.00  0.00    +0.000 C 
ATOM      6  C   UNL     1       1.484   2.117  19.871  0.00  0.00    +0.000 C 
ATOM      7  C   UNL     1       0.969   2.944  18.697  0.00  0.00    +0.000 C 
ATOM      8  C   UNL     1       1.993   3.917  18.100  0.00  0.00    +0.000 C 
ENDBRANCH   1   2
BRANCH   1   9
ATOM      9  C   UNL     1       4.746   6.092  18.214  0.00  0.00    +0.000 A 
ATOM     10  C   UNL     1       5.511   5.401  19.180  0.00  0.00    +0.000 A 
ATOM     11  C   UNL     1       6.906   5.423  19.132  0.00  0.00    +0.000 A 
ATOM     12  C   UNL     1       7.559   6.117  18.115  0.00  0.00    +0.000 A 
ATOM     13  C   UNL     1       6.819   6.797  17.145  0.00  0.00    +0.000 A 
ATOM     14  C   UNL     1       5.420   6.790  17.195  0.00  0.00    +0.000 A 
ENDBRANCH   1   9
BRANCH   1  15
ATOM     15  C   UNL     1       2.665   7.420  18.718  0.00  0.00    +0.000 C 
BRANCH  15  16
ATOM     16  N   UNL     1       1.411   7.779  18.054  0.00  0.00    +0.000 NA
ATOM     17  H   UNL     1       1.519   7.618  17.025  0.00  0.00    +0.000 HD
BRANCH  16  18
ATOM     18  S   UNL     1       1.044   9.499  18.251  0.00  0.00    +0.000 S 
ATOM     19  O   UNL     1      -0.154   9.804  17.336  0.00  0.00    +0.000 OA
ATOM     20  O   UNL     1       2.200  10.229  17.548  0.00  0.00    +0.000 OA
BRANCH  18  27
ATOM     21  C   UNL     1       1.310  12.508  19.786  0.00  0.00    +0.000 C 
ATOM     22  C   UNL     1       0.952  11.250  20.504  0.00  0.00    +0.000 A 
ATOM     23  N   UNL     1       0.666  11.180  21.819  0.00  0.00    +0.000 NA
ATOM     24  N   UNL     1       0.373   9.918  22.095  0.00  0.00    +0.000 N 
ATOM     25  C   UNL     1      -0.015   9.432  23.411  0.00  0.00    +0.000 C 
ATOM     26  C   UNL     1       0.471   9.164  20.985  0.00  0.00    +0.000 A 
ATOM     27  C   UNL     1       0.839   9.992  19.952  0.00  0.00    +0.000 A 
ENDBRANCH  18  27
ENDBRANCH  16  18
ENDBRANCH  15  16
ENDBRANCH   1  15
TORSDOF 6
ENDMDL
MODEL 8
REMARK VINA RESULT:      -8.3      3.137      7.257
REMARK  Name = 
REMARK  8 active torsions:
REMARK  status: ('A' for Active; 'I' for Inactive)
REMARK    1  A    between atoms: C_1  and  C_2
REMARK    2  A    between atoms: N_4  and  C_5
REMARK    3  A    between atoms: C_7  and  S_8
REMARK    4  A    between atoms: S_8  and  N_11
REMARK    5  A    between atoms: N_11  and  C_12
REMARK    6  A    between atoms: C_12  and  C_13
REMARK    7  A    between atoms: C_13  and  C_14
REMARK    8  A    between atoms: C_13  and  N_20
REMARK                            x       y       z     vdW  Elec       q    Type
REMARK                         _______ _______ _______ _____ _____    ______ ____
ROOT
ATOM      1  C   UNL     1       3.424   6.142  18.905  0.00  0.00    +0.000 C 
ENDROOT
BRANCH   1   2
ATOM      2  N   UNL     1       4.587   5.723  18.046  0.00  0.00    +0.000 NA
ATOM      3  C   UNL     1       4.894   6.661  16.940  0.00  0.00    +0.000 C 
ATOM      4  C   UNL     1       5.450   5.902  15.724  0.00  0.00    +0.000 C 
ATOM      5  C   UNL     1       6.930   5.534  15.806  0.00  0.00    +0.000 C 
ATOM      6  C   UNL     1       7.348   4.687  17.006  0.00  0.00    +0.000 C 
ATOM      7  C   UNL     1       7.169   5.450  18.315  0.00  0.00    +0.000 C 
ATOM      8  C   UNL     1       5.757   5.384  18.909  0.00  0.00    +0.000 C 
ENDBRANCH   1   2
BRANCH   1   9
ATOM      9  C   UNL     1       2.513   4.943  19.203  0.00  0.00    +0.000 A 
ATOM     10  C   UNL     1       2.064   4.665  20.514  0.00  0.00    +0.000 A 
ATOM     11  C   UNL     1       1.202   3.596  20.760  0.00  0.00    +0.000 A 
ATOM     12  C   UNL     1       0.762   2.797  19.706  0.00  0.00    +0.000 A 
ATOM     13  C   UNL     1       1.186   3.062  18.403  0.00  0.00    +0.000 A 
ATOM     14  C   UNL     1       2.061   4.125  18.150  0.00  0.00    +0.000 A 
ENDBRANCH   1   9
BRANCH   1  15
ATOM     15  C   UNL     1       2.559   7.299  18.312  0.00  0.00    +0.000 C 
BRANCH  15  16
ATOM     16  N   UNL     1       2.153   8.257  19.341  0.00  0.00    +0.000 NA
ATOM     17  H   UNL     1       1.519   7.773  20.019  0.00  0.00    +0.000 HD
BRANCH  16  18
ATOM     18  S   UNL     1       1.215   9.589  18.650  0.00  0.00    +0.000 S 
ATOM     19  O   UNL     1       0.543   9.045  17.378  0.00  0.00    +0.000 OA
ATOM     20  O   UNL     1       2.267  10.559  18.088  0.00  0.00    +0.000 OA
BRANCH  18  27
ATOM     21  C   UNL     1       0.736   9.116  21.971  0.00  0.00    +0.000 C 
ATOM     22  C   UNL     1      -0.021  10.120  21.168  0.00  0.00    +0.000 A 
ATOM     23  N   UNL     1      -0.944  10.962  21.677  0.00  0.00    +0.000 NA
ATOM     24  N   UNL     1      -1.383  11.718  20.681  0.00  0.00    +0.000 N 
ATOM     25  C   UNL     1      -2.375  12.773  20.825  0.00  0.00    +0.000 C 
ATOM     26  C   UNL     1      -0.769  11.378  19.533  0.00  0.00    +0.000 A 
ATOM     27  C   UNL     1       0.108  10.360  19.816  0.00  0.00    +0.000 A 
ENDBRANCH  18  27
ENDBRANCH  16  18
ENDBRANCH  15  16
ENDBRANCH   1  15
TORSDOF 6
ENDMDL
MODEL 9
REMARK VINA RESULT:      -8.3      3.118      7.060
REMARK  Name = 
REMARK  8 active torsions:
REMARK  status: ('A' for Active; 'I' for Inactive)
REMARK    1  A    between atoms: C_1  and  C_2
REMARK    2  A    between atoms: N_4  and  C_5
REMARK    3  A    between atoms: C_7  and  S_8
REMARK    4  A    between atoms: S_8  and  N_11
REMARK    5  A    between atoms: N_11  and  C_12
REMARK    6  A    between atoms: C_12  and  C_13
REMARK    7  A    between atoms: C_13  and  C_14
REMARK    8  A    between atoms: C_13  and  N_20
REMARK                            x       y       z     vdW  Elec       q    Type
REMARK                         _______ _______ _______ _____ _____    ______ ____
ROOT
ATOM      1  C   UNL     1       3.659   6.332  18.558  0.00  0.00    +0.000 C 
ENDROOT
BRANCH   1   2
ATOM      2  N   UNL     1       4.813   5.741  17.793  0.00  0.00    +0.000 NA
ATOM      3  C   UNL     1       5.098   6.416  16.505  0.00  0.00    +0.000 C 
ATOM      4  C   UNL     1       5.641   5.414  15.475  0.00  0.00    +0.000 C 
ATOM      5  C   UNL     1       7.125   5.077  15.612  0.00  0.00    +0.000 C 
ATOM      6  C   UNL     1       7.566   4.513  16.961  0.00  0.00    +0.000 C 
ATOM      7  C   UNL     1       7.401   5.541  18.075  0.00  0.00    +0.000 C 
ATOM      8  C   UNL     1       5.998   5.601  18.691  0.00  0.00    +0.000 C 
ENDBRANCH   1   2
BRANCH   1   9
ATOM      9  C   UNL     1       2.682   5.233  18.998  0.00  0.00    +0.000 A 
ATOM     10  C   UNL     1       2.258   5.117  20.341  0.00  0.00    +0.000 A 
ATOM     11  C   UNL     1       1.337   4.138  20.715  0.00  0.00    +0.000 A 
ATOM     12  C   UNL     1       0.813   3.270  19.759  0.00  0.00    +0.000 A 
ATOM     13  C   UNL     1       1.212   3.376  18.425  0.00  0.00    +0.000 A 
ATOM     14  C   UNL     1       2.145   4.348  18.045  0.00  0.00    +0.000 A 
ENDBRANCH   1   9
BRANCH   1  15
ATOM     15  C   UNL     1       2.865   7.436  17.790  0.00  0.00    +0.000 C 
BRANCH  15  16
ATOM     16  N   UNL     1       1.551   7.676  18.387  0.00  0.00    +0.000 NA
ATOM     17  H   UNL     1       0.824   7.206  17.797  0.00  0.00    +0.000 HD
BRANCH  16  18
ATOM     18  S   UNL     1       1.147   9.398  18.393  0.00  0.00    +0.000 S 
ATOM     19  O   UNL     1       0.010   9.591  17.376  0.00  0.00    +0.000 OA
ATOM     20  O   UNL     1       2.337  10.082  17.702  0.00  0.00    +0.000 OA
BRANCH  18  27
ATOM     21  C   UNL     1       1.332  12.535  19.663  0.00  0.00    +0.000 C 
ATOM     22  C   UNL     1       0.906  11.349  20.463  0.00  0.00    +0.000 A 
ATOM     23  N   UNL     1       0.520  11.402  21.754  0.00  0.00    +0.000 NA
ATOM     24  N   UNL     1       0.192  10.172  22.120  0.00  0.00    +0.000 N 
ATOM     25  C   UNL     1      -0.300   9.811  23.442  0.00  0.00    +0.000 C 
ATOM     26  C   UNL     1       0.364   9.319  21.094  0.00  0.00    +0.000 A 
ATOM     27  C   UNL     1       0.819  10.046  20.021  0.00  0.00    +0.000 A 
ENDBRANCH  18  27
ENDBRANCH  16  18
ENDBRANCH  15  16
ENDBRANCH   1  15
TORSDOF 6
ENDMDL
