MODEL 1
REMARK VINA RESULT:      -5.4      0.000      0.000
REMARK  Name = 
REMARK  8 active torsions:
REMARK  status: ('A' for Active; 'I' for Inactive)
REMARK    1  A    between atoms: N_1  and  C_2
REMARK    2  A    between atoms: C_2  and  C_3
REMARK    3  A    between atoms: C_3  and  O_4
REMARK    4  A    between atoms: O_4  and  C_5
REMARK    5  A    between atoms: C_10  and  O_11
REMARK    6  A    between atoms: O_11  and  C_12
REMARK    7  A    between atoms: C_12  and  C_13
REMARK    8  A    between atoms: C_13  and  N_14
REMARK                            x       y       z     vdW  Elec       q    Type
REMARK                         _______ _______ _______ _____ _____    ______ ____
ROOT
ATOM      1  C   UNL     1       4.580   3.807  18.822  0.00  0.00    +0.000 A 
ATOM      2  C   UNL     1       3.539   3.693  19.773  0.00  0.00    +0.000 A 
ATOM      3  C   UNL     1       2.230   3.425  19.384  0.00  0.00    +0.000 A 
ATOM      4  C   UNL     1       1.923   3.276  18.036  0.00  0.00    +0.000 A 
ATOM      5  C   UNL     1       2.926   3.388  17.076  0.00  0.00    +0.000 A 
ATOM      6  C   UNL     1       4.257   3.641  17.439  0.00  0.00    +0.000 A 
ENDROOT
BRANCH   1   7
ATOM      7  O   UNL     1       5.857   4.079  19.218  0.00  0.00    +0.000 OA
BRANCH   7   8
ATOM      8  C   UNL     1       6.403   5.353  19.275  0.00  0.00    +0.000 C 
BRANCH   8   9
ATOM      9  C   UNL     1       7.636   5.499  18.386  0.00  0.00    +0.000 C 
BRANCH   9  10
ATOM     10  N   UNL     1       7.975   4.219  17.770  0.00  0.00    +0.000 NA
ATOM     11  H   UNL     1       7.289   4.008  17.009  0.00  0.00    +0.000 HD
ATOM     12  H   UNL     1       7.887   3.467  18.492  0.00  0.00    +0.000 HD
ENDBRANCH   9  10
ENDBRANCH   8   9
ENDBRANCH   7   8
ENDBRANCH   1   7
BRANCH   6  13
ATOM     13  O   UNL     1       5.162   3.696  16.422  0.00  0.00    +0.000 OA
BRANCH  13  14
ATOM     14  C   UNL     1       5.256   4.659  15.437  0.00  0.00    +0.000 C 
BRANCH  14  15
ATOM     15  C   UNL     1       6.425   4.352  14.496  0.00  0.00    +0.000 C 
BRANCH  15  16
ATOM     16  N   UNL     1       7.551   5.253  14.733  0.00  0.00    +0.000 NA
ATOM     17  H   UNL     1       7.546   6.016  14.020  0.00  0.00    +0.000 HD
ATOM     18  H   UNL     1       8.435   4.708  14.607  0.00  0.00    +0.000 HD
ENDBRANCH  15  16
ENDBRANCH  14  15
ENDBRANCH  13  14
ENDBRANCH   6  13
TORSDOF 8
ENDMDL
MODEL 2
REMARK VINA RESULT:      -5.0      0.458      3.119
REMARK  Name = 
REMARK  8 active torsions:
REMARK  status: ('A' for Active; 'I' for Inactive)
REMARK    1  A    between atoms: N_1  and  C_2
REMARK    2  A    between atoms: C_2  and  C_3
REMARK    3  A    between atoms: C_3  and  O_4
REMARK    4  A    between atoms: O_4  and  C_5
REMARK    5  A    between atoms: C_10  and  O_11
REMARK    6  A    between atoms: O_11  and  C_12
REMARK    7  A    between atoms: C_12  and  C_13
REMARK    8  A    between atoms: C_13  and  N_14
REMARK                            x       y       z     vdW  Elec       q    Type
REMARK                         _______ _______ _______ _____ _____    ______ ____
ROOT
ATOM      1  C   UNL     1       4.411   3.986  17.343  0.00  0.00    +0.000 A 
ATOM      2  C   UNL     1       3.095   3.659  16.941  0.00  0.00    +0.000 A 
ATOM      3  C   UNL     1       2.150   3.207  17.858  0.00  0.00    +0.000 A 
ATOM      4  C   UNL     1       2.496   3.059  19.195  0.00  0.00    +0.000 A 
ATOM      5  C   UNL     1       3.786   3.368  19.621  0.00  0.00    +0.000 A 
ATOM      6  C   UNL     1       4.755   3.842  18.724  0.00  0.00    +0.000 A 
ENDROOT
BRANCH   1   7
ATOM      7  O   UNL     1       5.329   4.419  16.432  0.00  0.00    +0.000 OA
BRANCH   7   8
ATOM      8  C   UNL     1       5.533   3.836  15.189  0.00  0.00    +0.000 C 
BRANCH   8   9
ATOM      9  C   UNL     1       6.667   4.500  14.412  0.00  0.00    +0.000 C 
BRANCH   9  10
ATOM     10  N   UNL     1       7.283   5.556  15.212  0.00  0.00    +0.000 NA
ATOM     11  H   UNL     1       7.231   5.299  16.224  0.00  0.00    +0.000 HD
ATOM     12  H   UNL     1       6.735   6.438  15.081  0.00  0.00    +0.000 HD
ENDBRANCH   9  10
ENDBRANCH   8   9
ENDBRANCH   7   8
ENDBRANCH   1   7
BRANCH   6  13
ATOM     13  O   UNL     1       5.972   4.147  19.253  0.00  0.00    +0.000 OA
BRANCH  13  14
ATOM     14  C   UNL     1       6.557   5.396  19.341  0.00  0.00    +0.000 C 
BRANCH  14  15
ATOM     15  C   UNL     1       7.935   5.392  18.674  0.00  0.00    +0.000 C 
BRANCH  15  16
ATOM     16  N   UNL     1       8.108   4.222  17.815  0.00  0.00    +0.000 NA
ATOM     17  H   UNL     1       7.293   3.580  17.928  0.00  0.00    +0.000 HD
ATOM     18  H   UNL     1       8.963   3.708  18.135  0.00  0.00    +0.000 HD
ENDBRANCH  15  16
ENDBRANCH  14  15
ENDBRANCH  13  14
ENDBRANCH   6  13
TORSDOF 8
ENDMDL
MODEL 3
REMARK VINA RESULT:      -4.9      2.604      3.728
REMARK  Name = 
REMARK  8 active torsions:
REMARK  status: ('A' for Active; 'I' for Inactive)
REMARK    1  A    between atoms: N_1  and  C_2
REMARK    2  A    between atoms: C_2  and  C_3
REMARK    3  A    between atoms: C_3  and  O_4
REMARK    4  A    between atoms: O_4  and  C_5
REMARK    5  A    between atoms: C_10  and  O_11
REMARK    6  A    between atoms: O_11  and  C_12
REMARK    7  A    between atoms: C_12  and  C_13
REMARK    8  A    between atoms: C_13  and  N_14
REMARK                            x       y       z     vdW  Elec       q    Type
REMARK                         _______ _______ _______ _____ _____    ______ ____
ROOT
ATOM      1  C   UNL     1       5.139   5.206  17.873  0.00  0.00    +0.000 A 
ATOM      2  C   UNL     1       4.575   6.413  17.401  0.00  0.00    +0.000 A 
ATOM      3  C   UNL     1       3.413   6.937  17.962  0.00  0.00    +0.000 A 
ATOM      4  C   UNL     1       2.779   6.263  19.000  0.00  0.00    +0.000 A 
ATOM      5  C   UNL     1       3.309   5.069  19.483  0.00  0.00    +0.000 A 
ATOM      6  C   UNL     1       4.487   4.526  18.950  0.00  0.00    +0.000 A 
ENDROOT
BRANCH   1   7
ATOM      7  O   UNL     1       6.273   4.700  17.308  0.00  0.00    +0.000 OA
BRANCH   7   8
ATOM      8  C   UNL     1       7.521   4.714  17.913  0.00  0.00    +0.000 C 
BRANCH   8   9
ATOM      9  C   UNL     1       7.711   5.918  18.831  0.00  0.00    +0.000 C 
BRANCH   9  10
ATOM     10  N   UNL     1       7.935   5.481  20.207  0.00  0.00    +0.000 NA
ATOM     11  H   UNL     1       8.172   4.462  20.212  0.00  0.00    +0.000 HD
ATOM     12  H   UNL     1       7.046   5.600  20.745  0.00  0.00    +0.000 HD
ENDBRANCH   9  10
ENDBRANCH   8   9
ENDBRANCH   7   8
ENDBRANCH   1   7
BRANCH   6  13
ATOM     13  O   UNL     1       4.935   3.373  19.520  0.00  0.00    +0.000 OA
BRANCH  13  14
ATOM     14  C   UNL     1       4.199   2.241  19.808  0.00  0.00    +0.000 C 
BRANCH  14  15
ATOM     15  C   UNL     1       3.639   1.624  18.523  0.00  0.00    +0.000 C 
BRANCH  15  16
ATOM     16  N   UNL     1       2.178   1.645  18.514  0.00  0.00    +0.000 NA
ATOM     17  H   UNL     1       1.823   1.798  19.485  0.00  0.00    +0.000 HD
ATOM     18  H   UNL     1       1.841   0.705  18.199  0.00  0.00    +0.000 HD
ENDBRANCH  15  16
ENDBRANCH  14  15
ENDBRANCH  13  14
ENDBRANCH   6  13
TORSDOF 8
ENDMDL
MODEL 4
REMARK VINA RESULT:      -4.9      3.350      5.189
REMARK  Name = 
REMARK  8 active torsions:
REMARK  status: ('A' for Active; 'I' for Inactive)
REMARK    1  A    between atoms: N_1  and  C_2
REMARK    2  A    between atoms: C_2  and  C_3
REMARK    3  A    between atoms: C_3  and  O_4
REMARK    4  A    between atoms: O_4  and  C_5
REMARK    5  A    between atoms: C_10  and  O_11
REMARK    6  A    between atoms: O_11  and  C_12
REMARK    7  A    between atoms: C_12  and  C_13
REMARK    8  A    between atoms: C_13  and  N_14
REMARK                            x       y       z     vdW  Elec       q    Type
REMARK                         _______ _______ _______ _____ _____    ______ ____
ROOT
ATOM      1  C   UNL     1       3.796   5.260  18.372  0.00  0.00    +0.000 A 
ATOM      2  C   UNL     1       4.078   6.334  17.496  0.00  0.00    +0.000 A 
ATOM      3  C   UNL     1       3.443   7.565  17.633  0.00  0.00    +0.000 A 
ATOM      4  C   UNL     1       2.504   7.753  18.640  0.00  0.00    +0.000 A 
ATOM      5  C   UNL     1       2.202   6.713  19.516  0.00  0.00    +0.000 A 
ATOM      6  C   UNL     1       2.837   5.467  19.413  0.00  0.00    +0.000 A 
ENDROOT
BRANCH   1   7
ATOM      7  O   UNL     1       4.419   4.056  18.220  0.00  0.00    +0.000 OA
BRANCH   7   8
ATOM      8  C   UNL     1       3.822   2.931  17.671  0.00  0.00    +0.000 C 
BRANCH   8   9
ATOM      9  C   UNL     1       3.789   1.755  18.644  0.00  0.00    +0.000 C 
BRANCH   9  10
ATOM     10  N   UNL     1       4.687   1.999  19.769  0.00  0.00    +0.000 NA
ATOM     11  H   UNL     1       5.082   2.964  19.694  0.00  0.00    +0.000 HD
ATOM     12  H   UNL     1       5.486   1.325  19.712  0.00  0.00    +0.000 HD
ENDBRANCH   9  10
ENDBRANCH   8   9
ENDBRANCH   7   8
ENDBRANCH   1   7
BRANCH   6  13
ATOM     13  O   UNL     1       2.492   4.533  20.343  0.00  0.00    +0.000 OA
BRANCH  13  14
ATOM     14  C   UNL     1       1.253   3.949  20.523  0.00  0.00    +0.000 C 
BRANCH  14  15
ATOM     15  C   UNL     1       1.355   2.760  21.483  0.00  0.00    +0.000 C 
BRANCH  15  16
ATOM     16  N   UNL     1       2.719   2.590  21.979  0.00  0.00    +0.000 NA
ATOM     17  H   UNL     1       3.362   2.402  21.178  0.00  0.00    +0.000 HD
ATOM     18  H   UNL     1       2.735   1.748  22.602  0.00  0.00    +0.000 HD
ENDBRANCH  15  16
ENDBRANCH  14  15
ENDBRANCH  13  14
ENDBRANCH   6  13
TORSDOF 8
ENDMDL
MODEL 5
REMARK VINA RESULT:      -4.8      1.327      1.363
REMARK  Name = 
REMARK  8 active torsions:
REMARK  status: ('A' for Active; 'I' for Inactive)
REMARK    1  A    between atoms: N_1  and  C_2
REMARK    2  A    between atoms: C_2  and  C_3
REMARK    3  A    between atoms: C_3  and  O_4
REMARK    4  A    between atoms: O_4  and  C_5
REMARK    5  A    between atoms: C_10  and  O_11
REMARK    6  A    between atoms: O_11  and  C_12
REMARK    7  A    between atoms: C_12  and  C_13
REMARK    8  A    between atoms: C_13  and  N_14
REMARK                            x       y       z     vdW  Elec       q    Type
REMARK                         _______ _______ _______ _____ _____    ______ ____
ROOT
ATOM      1  C   UNL     1       5.194   4.244  18.680  0.00  0.00    +0.000 A 
ATOM      2  C   UNL     1       4.658   3.206  19.475  0.00  0.00    +0.000 A 
ATOM      3  C   UNL     1       3.608   2.413  19.020  0.00  0.00    +0.000 A 
ATOM      4  C   UNL     1       3.058   2.645  17.764  0.00  0.00    +0.000 A 
ATOM      5  C   UNL     1       3.562   3.664  16.959  0.00  0.00    +0.000 A 
ATOM      6  C   UNL     1       4.630   4.468  17.384  0.00  0.00    +0.000 A 
ENDROOT
BRANCH   1   7
ATOM      7  O   UNL     1       6.217   5.018  19.143  0.00  0.00    +0.000 OA
BRANCH   7   8
ATOM      8  C   UNL     1       7.424   5.196  18.483  0.00  0.00    +0.000 C 
BRANCH   8   9
ATOM      9  C   UNL     1       7.848   6.661  18.425  0.00  0.00    +0.000 C 
BRANCH   9  10
ATOM     10  N   UNL     1       7.449   7.258  17.153  0.00  0.00    +0.000 NA
ATOM     11  H   UNL     1       6.544   6.837  16.841  0.00  0.00    +0.000 HD
ATOM     12  H   UNL     1       8.171   7.023  16.433  0.00  0.00    +0.000 HD
ENDBRANCH   9  10
ENDBRANCH   8   9
ENDBRANCH   7   8
ENDBRANCH   1   7
BRANCH   6  13
ATOM     13  O   UNL     1       5.066   5.411  16.504  0.00  0.00    +0.000 OA
BRANCH  13  14
ATOM     14  C   UNL     1       5.320   5.244  15.156  0.00  0.00    +0.000 C 
BRANCH  14  15
ATOM     15  C   UNL     1       6.630   4.479  14.948  0.00  0.00    +0.000 C 
BRANCH  15  16
ATOM     16  N   UNL     1       7.741   5.389  14.676  0.00  0.00    +0.000 NA
ATOM     17  H   UNL     1       8.104   5.779  15.575  0.00  0.00    +0.000 HD
ATOM     18  H   UNL     1       7.374   6.190  14.109  0.00  0.00    +0.000 HD
ENDBRANCH  15  16
ENDBRANCH  14  15
ENDBRANCH  13  14
ENDBRANCH   6  13
TORSDOF 8
ENDMDL
MODEL 6
REMARK VINA RESULT:      -4.8      3.239      4.787
REMARK  Name = 
REMARK  8 active torsions:
REMARK  status: ('A' for Active; 'I' for Inactive)
REMARK    1  A    between atoms: N_1  and  C_2
REMARK    2  A    between atoms: C_2  and  C_3
REMARK    3  A    between atoms: C_3  and  O_4
REMARK    4  A    between atoms: O_4  and  C_5
REMARK    5  A    between atoms: C_10  and  O_11
REMARK    6  A    between atoms: O_11  and  C_12
REMARK    7  A    between atoms: C_12  and  C_13
REMARK    8  A    between atoms: C_13  and  N_14
REMARK                            x       y       z     vdW  Elec       q    Type
REMARK                         _______ _______ _______ _____ _____    ______ ____
ROOT
ATOM      1  C   UNL     1       4.221   5.546  18.626  0.00  0.00    +0.000 A 
ATOM      2  C   UNL     1       4.157   6.554  17.637  0.00  0.00    +0.000 A 
ATOM      3  C   UNL     1       4.890   6.459  16.457  0.00  0.00    +0.000 A 
ATOM      4  C   UNL     1       5.712   5.360  16.238  0.00  0.00    +0.000 A 
ATOM      5  C   UNL     1       5.800   4.352  17.196  0.00  0.00    +0.000 A 
ATOM      6  C   UNL     1       5.062   4.413  18.387  0.00  0.00    +0.000 A 
ENDROOT
BRANCH   1   7
ATOM      7  O   UNL     1       3.505   5.658  19.781  0.00  0.00    +0.000 OA
BRANCH   7   8
ATOM      8  C   UNL     1       2.123   5.556  19.857  0.00  0.00    +0.000 C 
BRANCH   8   9
ATOM      9  C   UNL     1       1.670   4.528  20.891  0.00  0.00    +0.000 C 
BRANCH   9  10
ATOM     10  N   UNL     1       0.656   3.645  20.322  0.00  0.00    +0.000 NA
ATOM     11  H   UNL     1       0.056   3.266  21.091  0.00  0.00    +0.000 HD
ATOM     12  H   UNL     1       1.135   2.834  19.867  0.00  0.00    +0.000 HD
ENDBRANCH   9  10
ENDBRANCH   8   9
ENDBRANCH   7   8
ENDBRANCH   1   7
BRANCH   6  13
ATOM     13  O   UNL     1       5.195   3.357  19.237  0.00  0.00    +0.000 OA
BRANCH  13  14
ATOM     14  C   UNL     1       4.228   2.433  19.582  0.00  0.00    +0.000 C 
BRANCH  14  15
ATOM     15  C   UNL     1       3.587   1.833  18.328  0.00  0.00    +0.000 C 
BRANCH  15  16
ATOM     16  N   UNL     1       2.137   1.718  18.472  0.00  0.00    +0.000 NA
ATOM     17  H   UNL     1       1.697   2.658  18.353  0.00  0.00    +0.000 HD
ATOM     18  H   UNL     1       1.933   1.395  19.447  0.00  0.00    +0.000 HD
ENDBRANCH  15  16
ENDBRANCH  14  15
ENDBRANCH  13  14
ENDBRANCH   6  13
TORSDOF 8
ENDMDL
MODEL 7
REMARK VINA RESULT:      -4.8      3.250      4.092
REMARK  Name = 
REMARK  8 active torsions:
REMARK  status: ('A' for Active; 'I' for Inactive)
REMARK    1  A    between atoms: N_1  and  C_2
REMARK    2  A    between atoms: C_2  and  C_3
REMARK    3  A    between atoms: C_3  and  O_4
REMARK    4  A    between atoms: O_4  and  C_5
REMARK    5  A    between atoms: C_10  and  O_11
REMARK    6  A    between atoms: O_11  and  C_12
REMARK    7  A    between atoms: C_12  and  C_13
REMARK    8  A    between atoms: C_13  and  N_14
REMARK                            x       y       z     vdW  Elec       q    Type
REMARK                         _______ _______ _______ _____ _____    ______ ____
ROOT
ATOM      1  C   UNL     1       2.516   4.394  18.288  0.00  0.00    +0.000 A 
ATOM      2  C   UNL     1       1.881   3.137  18.407  0.00  0.00    +0.000 A 
ATOM      3  C   UNL     1       1.106   2.821  19.520  0.00  0.00    +0.000 A 
ATOM      4  C   UNL     1       0.955   3.746  20.546  0.00  0.00    +0.000 A 
ATOM      5  C   UNL     1       1.573   4.992  20.459  0.00  0.00    +0.000 A 
ATOM      6  C   UNL     1       2.346   5.345  19.343  0.00  0.00    +0.000 A 
ENDROOT
BRANCH   1   7
ATOM      7  O   UNL     1       3.280   4.686  17.195  0.00  0.00    +0.000 OA
BRANCH   7   8
ATOM      8  C   UNL     1       4.504   4.094  16.916  0.00  0.00    +0.000 C 
BRANCH   8   9
ATOM      9  C   UNL     1       5.633   4.656  17.776  0.00  0.00    +0.000 C 
BRANCH   9  10
ATOM     10  N   UNL     1       5.925   3.754  18.887  0.00  0.00    +0.000 NA
ATOM     11  H   UNL     1       6.036   4.311  19.765  0.00  0.00    +0.000 HD
ATOM     12  H   UNL     1       6.836   3.276  18.699  0.00  0.00    +0.000 HD
ENDBRANCH   9  10
ENDBRANCH   8   9
ENDBRANCH   7   8
ENDBRANCH   1   7
BRANCH   6  13
ATOM     13  O   UNL     1       2.875   6.600  19.345  0.00  0.00    +0.000 OA
BRANCH  13  14
ATOM     14  C   UNL     1       2.204   7.791  19.145  0.00  0.00    +0.000 C 
BRANCH  14  15
ATOM     15  C   UNL     1       2.509   8.352  17.753  0.00  0.00    +0.000 C 
BRANCH  15  16
ATOM     16  N   UNL     1       1.768   9.586  17.501  0.00  0.00    +0.000 NA
ATOM     17  H   UNL     1       2.383  10.409  17.687  0.00  0.00    +0.000 HD
ATOM     18  H   UNL     1       0.969   9.629  18.177  0.00  0.00    +0.000 HD
ENDBRANCH  15  16
ENDBRANCH  14  15
ENDBRANCH  13  14
ENDBRANCH   6  13
TORSDOF 8
ENDMDL
MODEL 8
REMARK VINA RESULT:      -4.8      3.054      4.710
REMARK  Name = 
REMARK  8 active torsions:
REMARK  status: ('A' for Active; 'I' for Inactive)
REMARK    1  A    between atoms: N_1  and  C_2
REMARK    2  A    between atoms: C_2  and  C_3
REMARK    3  A    between atoms: C_3  and  O_4
REMARK    4  A    between atoms: O_4  and  C_5
REMARK    5  A    between atoms: C_10  and  O_11
REMARK    6  A    between atoms: O_11  and  C_12
REMARK    7  A    between atoms: C_12  and  C_13
REMARK    8  A    between atoms: C_13  and  N_14
REMARK                            x       y       z     vdW  Elec       q    Type
REMARK                         _______ _______ _______ _____ _____    ______ ____
ROOT
ATOM      1  C   UNL     1       3.385   5.512  17.706  0.00  0.00    +0.000 A 
ATOM      2  C   UNL     1       4.137   6.603  17.214  0.00  0.00    +0.000 A 
ATOM      3  C   UNL     1       5.186   6.413  16.318  0.00  0.00    +0.000 A 
ATOM      4  C   UNL     1       5.518   5.130  15.900  0.00  0.00    +0.000 A 
ATOM      5  C   UNL     1       4.798   4.035  16.372  0.00  0.00    +0.000 A 
ATOM      6  C   UNL     1       3.726   4.195  17.261  0.00  0.00    +0.000 A 
ENDROOT
BRANCH   1   7
ATOM      7  O   UNL     1       2.366   5.712  18.590  0.00  0.00    +0.000 OA
BRANCH   7   8
ATOM      8  C   UNL     1       2.527   5.778  19.967  0.00  0.00    +0.000 C 
BRANCH   8   9
ATOM      9  C   UNL     1       1.538   4.886  20.713  0.00  0.00    +0.000 C 
BRANCH   9  10
ATOM     10  N   UNL     1       0.928   3.925  19.799  0.00  0.00    +0.000 NA
ATOM     11  H   UNL     1       1.675   3.467  19.228  0.00  0.00    +0.000 HD
ATOM     12  H   UNL     1       0.300   4.441  19.141  0.00  0.00    +0.000 HD
ENDBRANCH   9  10
ENDBRANCH   8   9
ENDBRANCH   7   8
ENDBRANCH   1   7
BRANCH   6  13
ATOM     13  O   UNL     1       3.070   3.061  17.630  0.00  0.00    +0.000 OA
BRANCH  13  14
ATOM     14  C   UNL     1       3.589   1.978  18.314  0.00  0.00    +0.000 C 
BRANCH  14  15
ATOM     15  C   UNL     1       4.140   2.416  19.674  0.00  0.00    +0.000 C 
BRANCH  15  16
ATOM     16  N   UNL     1       5.205   1.526  20.130  0.00  0.00    +0.000 NA
ATOM     17  H   UNL     1       5.214   1.497  21.175  0.00  0.00    +0.000 HD
ATOM     18  H   UNL     1       6.120   1.928  19.817  0.00  0.00    +0.000 HD
ENDBRANCH  15  16
ENDBRANCH  14  15
ENDBRANCH  13  14
ENDBRANCH   6  13
TORSDOF 8
ENDMDL
MODEL 9
REMARK VINA RESULT:      -4.8      3.731      4.889
REMARK  Name = 
REMARK  8 active torsions:
REMARK  status: ('A' for Active; 'I' for Inactive)
REMARK    1  A    between atoms: N_1  and  C_2
REMARK    2  A    between atoms: C_2  and  C_3
REMARK    3  A    between atoms: C_3  and  O_4
REMARK    4  A    between atoms: O_4  and  C_5
REMARK    5  A    between atoms: C_10  and  O_11
REMARK    6  A    between atoms: O_11  and  C_12
REMARK    7  A    between atoms: C_12  and  C_13
REMARK    8  A    between atoms: C_13  and  N_14
REMARK                            x       y       z     vdW  Elec       q    Type
REMARK                         _______ _______ _______ _____ _____    ______ ____
ROOT
ATOM      1  C   UNL     1       2.593   5.460  18.638  0.00  0.00    +0.000 A 
ATOM      2  C   UNL     1       2.285   6.817  18.392  0.00  0.00    +0.000 A 
ATOM      3  C   UNL     1       3.173   7.649  17.714  0.00  0.00    +0.000 A 
ATOM      4  C   UNL     1       4.393   7.150  17.275  0.00  0.00    +0.000 A 
ATOM      5  C   UNL     1       4.726   5.817  17.507  0.00  0.00    +0.000 A 
ATOM      6  C   UNL     1       3.846   4.951  18.172  0.00  0.00    +0.000 A 
ENDROOT
BRANCH   1   7
ATOM      7  O   UNL     1       1.717   4.659  19.312  0.00  0.00    +0.000 OA
BRANCH   7   8
ATOM      8  C   UNL     1       1.445   4.766  20.668  0.00  0.00    +0.000 C 
BRANCH   8   9
ATOM      9  C   UNL     1       2.322   3.844  21.512  0.00  0.00    +0.000 C 
BRANCH   9  10
ATOM     10  N   UNL     1       1.589   2.634  21.874  0.00  0.00    +0.000 NA
ATOM     11  H   UNL     1       1.711   2.447  22.896  0.00  0.00    +0.000 HD
ATOM     12  H   UNL     1       2.000   1.825  21.354  0.00  0.00    +0.000 HD
ENDBRANCH   9  10
ENDBRANCH   8   9
ENDBRANCH   7   8
ENDBRANCH   1   7
BRANCH   6  13
ATOM     13  O   UNL     1       4.257   3.661  18.314  0.00  0.00    +0.000 OA
BRANCH  13  14
ATOM     14  C   UNL     1       3.767   2.550  17.655  0.00  0.00    +0.000 C 
BRANCH  14  15
ATOM     15  C   UNL     1       3.200   1.539  18.656  0.00  0.00    +0.000 C 
BRANCH  15  16
ATOM     16  N   UNL     1       1.745   1.637  18.748  0.00  0.00    +0.000 NA
ATOM     17  H   UNL     1       1.470   1.868  19.729  0.00  0.00    +0.000 HD
ATOM     18  H   UNL     1       1.342   0.698  18.519  0.00  0.00    +0.000 HD
ENDBRANCH  15  16
ENDBRANCH  14  15
ENDBRANCH  13  14
ENDBRANCH   6  13
TORSDOF 8
ENDMDL
