MODEL 1
REMARK VINA RESULT:      -7.7      0.000      0.000
REMARK  Name = 
REMARK  7 active torsions:
REMARK  status: ('A' for Active; 'I' for Inactive)
REMARK    1  A    between atoms: C_1  and  O_2
REMARK    2  A    between atoms: O_2  and  C_3
REMARK    3  A    between atoms: C_8  and  C_9
REMARK    4  A    between atoms: C_10  and  C_11
REMARK    5  A    between atoms: N_12  and  N_13
REMARK    6  A    between atoms: C_14  and  S_15
REMARK    7  A    between atoms: C_18  and  C_19
REMARK                            x       y       z     vdW  Elec       q    Type
REMARK                         _______ _______ _______ _____ _____    ______ ____
ROOT
ATOM      1  N   UNL     1       5.501   6.224  17.051  0.00  0.00    +0.000 N 
ATOM      2  C   UNL     1       5.839   4.978  16.536  0.00  0.00    +0.000 A 
ATOM      3  N   UNL     1       4.982   4.070  16.927  0.00  0.00    +0.000 NA
ATOM      4  N   UNL     1       3.986   4.711  17.604  0.00  0.00    +0.000 NA
ATOM      5  C   UNL     1       4.251   6.006  17.648  0.00  0.00    +0.000 A 
ENDROOT
BRANCH   5   6
ATOM      6  C   UNL     1       3.350   7.022  18.225  0.00  0.00    +0.000 A 
ATOM      7  C   UNL     1       3.068   8.202  17.515  0.00  0.00    +0.000 A 
ATOM      8  C   UNL     1       2.163   9.153  18.004  0.00  0.00    +0.000 A 
ATOM      9  C   UNL     1       1.512   8.931  19.212  0.00  0.00    +0.000 A 
ATOM     10 CL   UNL     1       0.391  10.092  19.807  0.00  0.00    +0.000 Cl
ATOM     11  C   UNL     1       1.761   7.773  19.936  0.00  0.00    +0.000 A 
ATOM     12  C   UNL     1       2.674   6.826  19.451  0.00  0.00    +0.000 A 
ATOM     13 CL   UNL     1       2.926   5.440  20.462  0.00  0.00    +0.000 Cl
ENDBRANCH   5   6
BRANCH   1  15
ATOM     14  C   UNL     1       7.229   7.584  17.639  0.00  0.00    +0.000 C 
ATOM     15  N   UNL     1       6.135   7.452  16.963  0.00  0.00    +0.000 NA
BRANCH  14  17
ATOM     16  C   UNL     1       8.694   9.207  18.714  0.00  0.00    +0.000 C 
ATOM     17  C   UNL     1       8.001   8.845  17.623  0.00  0.00    +0.000 C 
BRANCH  16  23
ATOM     18  C   UNL     1       9.437  11.163  20.157  0.00  0.00    +0.000 A 
ATOM     19  C   UNL     1      10.104  12.390  20.267  0.00  0.00    +0.000 A 
ATOM     20  C   UNL     1      10.701  12.970  19.155  0.00  0.00    +0.000 A 
ATOM     21  C   UNL     1      10.631  12.342  17.917  0.00  0.00    +0.000 A 
ATOM     22  C   UNL     1       9.942  11.132  17.787  0.00  0.00    +0.000 A 
ATOM     23  C   UNL     1       9.318  10.536  18.896  0.00  0.00    +0.000 A 
BRANCH  18  25
ATOM     24  C   UNL     1       8.390  11.337  22.287  0.00  0.00    +0.000 C 
ATOM     25  O   UNL     1       8.875  10.519  21.233  0.00  0.00    +0.000 OA
ENDBRANCH  18  25
ENDBRANCH  16  23
ENDBRANCH  14  17
ENDBRANCH   1  15
BRANCH   2  26
ATOM     26  S   UNL     1       7.119   4.644  15.411  0.00  0.00    +0.000 S 
ATOM     27  H   UNL     1       6.466   3.809  14.594  0.00  0.00    +0.000 HD
ENDBRANCH   2  26
TORSDOF 6
ENDMDL
MODEL 2
REMARK VINA RESULT:      -7.6      5.311      7.080
REMARK  Name = 
REMARK  7 active torsions:
REMARK  status: ('A' for Active; 'I' for Inactive)
REMARK    1  A    between atoms: C_1  and  O_2
REMARK    2  A    between atoms: O_2  and  C_3
REMARK    3  A    between atoms: C_8  and  C_9
REMARK    4  A    between atoms: C_10  and  C_11
REMARK    5  A    between atoms: N_12  and  N_13
REMARK    6  A    between atoms: C_14  and  S_15
REMARK    7  A    between atoms: C_18  and  C_19
REMARK                            x       y       z     vdW  Elec       q    Type
REMARK                         _______ _______ _______ _____ _____    ______ ____
ROOT
ATOM      1  N   UNL     1       3.511   4.817  18.548  0.00  0.00    +0.000 N 
ATOM      2  C   UNL     1       2.861   3.995  19.461  0.00  0.00    +0.000 A 
ATOM      3  N   UNL     1       2.958   2.740  19.102  0.00  0.00    +0.000 NA
ATOM      4  N   UNL     1       3.779   2.688  18.013  0.00  0.00    +0.000 NA
ATOM      5  C   UNL     1       4.160   3.914  17.694  0.00  0.00    +0.000 A 
ENDROOT
BRANCH   5   6
ATOM      6  C   UNL     1       5.122   4.235  16.622  0.00  0.00    +0.000 A 
ATOM      7  C   UNL     1       4.761   4.062  15.274  0.00  0.00    +0.000 A 
ATOM      8  C   UNL     1       5.626   4.424  14.233  0.00  0.00    +0.000 A 
ATOM      9  C   UNL     1       6.866   4.980  14.525  0.00  0.00    +0.000 A 
ATOM     10 CL   UNL     1       7.923   5.436  13.247  0.00  0.00    +0.000 Cl
ATOM     11  C   UNL     1       7.251   5.172  15.845  0.00  0.00    +0.000 A 
ATOM     12  C   UNL     1       6.390   4.800  16.887  0.00  0.00    +0.000 A 
ATOM     13 CL   UNL     1       6.998   5.056  18.491  0.00  0.00    +0.000 Cl
ENDBRANCH   5   6
BRANCH   1  15
ATOM     14  C   UNL     1       2.540   6.845  18.195  0.00  0.00    +0.000 C 
ATOM     15  N   UNL     1       3.622   6.196  18.477  0.00  0.00    +0.000 NA
BRANCH  14  17
ATOM     16  C   UNL     1       1.553   9.014  18.707  0.00  0.00    +0.000 C 
ATOM     17  C   UNL     1       2.527   8.321  18.096  0.00  0.00    +0.000 C 
BRANCH  16  23
ATOM     18  C   UNL     1       0.048  11.061  18.706  0.00  0.00    +0.000 A 
ATOM     19  C   UNL     1      -0.095  12.447  18.563  0.00  0.00    +0.000 A 
ATOM     20  C   UNL     1       1.006  13.244  18.275  0.00  0.00    +0.000 A 
ATOM     21  C   UNL     1       2.262  12.669  18.115  0.00  0.00    +0.000 A 
ATOM     22  C   UNL     1       2.412  11.283  18.226  0.00  0.00    +0.000 A 
ATOM     23  C   UNL     1       1.309  10.458  18.501  0.00  0.00    +0.000 A 
BRANCH  18  25
ATOM     24  C   UNL     1      -2.065  10.140  18.111  0.00  0.00    +0.000 C 
ATOM     25  O   UNL     1      -0.996  10.233  19.041  0.00  0.00    +0.000 OA
ENDBRANCH  18  25
ENDBRANCH  16  23
ENDBRANCH  14  17
ENDBRANCH   1  15
BRANCH   2  26
ATOM     26  S   UNL     1       2.137   4.494  20.959  0.00  0.00    +0.000 S 
ATOM     27  H   UNL     1       2.280   5.818  20.828  0.00  0.00    +0.000 HD
ENDBRANCH   2  26
TORSDOF 6
ENDMDL
MODEL 3
REMARK VINA RESULT:      -7.5      1.585      1.937
REMARK  Name = 
REMARK  7 active torsions:
REMARK  status: ('A' for Active; 'I' for Inactive)
REMARK    1  A    between atoms: C_1  and  O_2
REMARK    2  A    between atoms: O_2  and  C_3
REMARK    3  A    between atoms: C_8  and  C_9
REMARK    4  A    between atoms: C_10  and  C_11
REMARK    5  A    between atoms: N_12  and  N_13
REMARK    6  A    between atoms: C_14  and  S_15
REMARK    7  A    between atoms: C_18  and  C_19
REMARK                            x       y       z     vdW  Elec       q    Type
REMARK                         _______ _______ _______ _____ _____    ______ ____
ROOT
ATOM      1  N   UNL     1       5.979   6.111  16.448  0.00  0.00    +0.000 N 
ATOM      2  C   UNL     1       6.282   5.190  15.452  0.00  0.00    +0.000 A 
ATOM      3  N   UNL     1       5.396   4.227  15.430  0.00  0.00    +0.000 NA
ATOM      4  N   UNL     1       4.417   4.550  16.322  0.00  0.00    +0.000 NA
ATOM      5  C   UNL     1       4.720   5.698  16.907  0.00  0.00    +0.000 A 
ENDROOT
BRANCH   5   6
ATOM      6  C   UNL     1       3.847   6.401  17.866  0.00  0.00    +0.000 A 
ATOM      7  C   UNL     1       3.275   7.640  17.526  0.00  0.00    +0.000 A 
ATOM      8  C   UNL     1       2.388   8.298  18.387  0.00  0.00    +0.000 A 
ATOM      9  C   UNL     1       2.044   7.718  19.602  0.00  0.00    +0.000 A 
ATOM     10 CL   UNL     1       0.944   8.519  20.654  0.00  0.00    +0.000 Cl
ATOM     11  C   UNL     1       2.583   6.491  19.967  0.00  0.00    +0.000 A 
ATOM     12  C   UNL     1       3.480   5.837  19.109  0.00  0.00    +0.000 A 
ATOM     13 CL   UNL     1       4.112   4.331  19.692  0.00  0.00    +0.000 Cl
ENDBRANCH   5   6
BRANCH   1  15
ATOM     14  C   UNL     1       7.529   7.068  17.813  0.00  0.00    +0.000 C 
ATOM     15  N   UNL     1       6.649   7.243  16.881  0.00  0.00    +0.000 NA
BRANCH  14  17
ATOM     16  C   UNL     1       8.123   9.430  17.862  0.00  0.00    +0.000 C 
ATOM     17  C   UNL     1       8.315   8.197  18.357  0.00  0.00    +0.000 C 
BRANCH  16  23
ATOM     18  C   UNL     1       8.666  11.911  17.796  0.00  0.00    +0.000 A 
ATOM     19  C   UNL     1       9.500  12.970  18.178  0.00  0.00    +0.000 A 
ATOM     20  C   UNL     1      10.620  12.736  18.966  0.00  0.00    +0.000 A 
ATOM     21  C   UNL     1      10.930  11.444  19.374  0.00  0.00    +0.000 A 
ATOM     22  C   UNL     1      10.122  10.375  18.974  0.00  0.00    +0.000 A 
ATOM     23  C   UNL     1       8.993  10.587  18.165  0.00  0.00    +0.000 A 
BRANCH  18  25
ATOM     24  C   UNL     1       6.813  13.308  17.264  0.00  0.00    +0.000 C 
ATOM     25  O   UNL     1       7.518  12.093  17.062  0.00  0.00    +0.000 OA
ENDBRANCH  18  25
ENDBRANCH  16  23
ENDBRANCH  14  17
ENDBRANCH   1  15
BRANCH   2  26
ATOM     26  S   UNL     1       7.558   5.325  14.281  0.00  0.00    +0.000 S 
ATOM     27  H   UNL     1       7.512   4.086  13.779  0.00  0.00    +0.000 HD
ENDBRANCH   2  26
TORSDOF 6
ENDMDL
MODEL 4
REMARK VINA RESULT:      -7.5      5.290      7.018
REMARK  Name = 
REMARK  7 active torsions:
REMARK  status: ('A' for Active; 'I' for Inactive)
REMARK    1  A    between atoms: C_1  and  O_2
REMARK    2  A    between atoms: O_2  and  C_3
REMARK    3  A    between atoms: C_8  and  C_9
REMARK    4  A    between atoms: C_10  and  C_11
REMARK    5  A    between atoms: N_12  and  N_13
REMARK    6  A    between atoms: C_14  and  S_15
REMARK    7  A    between atoms: C_18  and  C_19
REMARK                            x       y       z     vdW  Elec       q    Type
REMARK                         _______ _______ _______ _____ _____    ______ ____
ROOT
ATOM      1  N   UNL     1       2.844   3.994  18.531  0.00  0.00    +0.000 N 
ATOM      2  C   UNL     1       2.322   3.078  19.437  0.00  0.00    +0.000 A 
ATOM      3  N   UNL     1       2.873   1.903  19.274  0.00  0.00    +0.000 NA
ATOM      4  N   UNL     1       3.861   2.039  18.343  0.00  0.00    +0.000 NA
ATOM      5  C   UNL     1       3.894   3.293  17.921  0.00  0.00    +0.000 A 
ENDROOT
BRANCH   5   6
ATOM      6  C   UNL     1       4.893   3.829  16.977  0.00  0.00    +0.000 A 
ATOM      7  C   UNL     1       4.806   3.525  15.607  0.00  0.00    +0.000 A 
ATOM      8  C   UNL     1       5.697   4.075  14.677  0.00  0.00    +0.000 A 
ATOM      9  C   UNL     1       6.687   4.953  15.103  0.00  0.00    +0.000 A 
ATOM     10 CL   UNL     1       7.774   5.638  13.960  0.00  0.00    +0.000 Cl
ATOM     11  C   UNL     1       6.799   5.280  16.447  0.00  0.00    +0.000 A 
ATOM     12  C   UNL     1       5.912   4.722  17.380  0.00  0.00    +0.000 A 
ATOM     13 CL   UNL     1       6.174   5.180  19.031  0.00  0.00    +0.000 Cl
ENDBRANCH   5   6
BRANCH   1  15
ATOM     14  C   UNL     1       2.584   6.119  19.305  0.00  0.00    +0.000 C 
ATOM     15  N   UNL     1       2.530   5.321  18.288  0.00  0.00    +0.000 NA
BRANCH  14  17
ATOM     16  C   UNL     1       1.659   8.196  20.182  0.00  0.00    +0.000 C 
ATOM     17  C   UNL     1       2.277   7.560  19.173  0.00  0.00    +0.000 C 
BRANCH  16  23
ATOM     18  C   UNL     1       0.831  10.364  21.215  0.00  0.00    +0.000 A 
ATOM     19  C   UNL     1       0.378  11.680  21.047  0.00  0.00    +0.000 A 
ATOM     20  C   UNL     1       0.252  12.226  19.776  0.00  0.00    +0.000 A 
ATOM     21  C   UNL     1       0.565  11.465  18.655  0.00  0.00    +0.000 A 
ATOM     22  C   UNL     1       0.989  10.141  18.807  0.00  0.00    +0.000 A 
ATOM     23  C   UNL     1       1.108   9.565  20.083  0.00  0.00    +0.000 A 
BRANCH  18  25
ATOM     24  C   UNL     1      -0.135   9.569  23.239  0.00  0.00    +0.000 C 
ATOM     25  O   UNL     1       1.023   9.792  22.449  0.00  0.00    +0.000 OA
ENDBRANCH  18  25
ENDBRANCH  16  23
ENDBRANCH  14  17
ENDBRANCH   1  15
BRANCH   2  26
ATOM     26  S   UNL     1       1.205   3.426  20.721  0.00  0.00    +0.000 S 
ATOM     27  H   UNL     1       1.058   2.189  21.210  0.00  0.00    +0.000 HD
ENDBRANCH   2  26
TORSDOF 6
ENDMDL
MODEL 5
REMARK VINA RESULT:      -7.3      4.611      7.689
REMARK  Name = 
REMARK  7 active torsions:
REMARK  status: ('A' for Active; 'I' for Inactive)
REMARK    1  A    between atoms: C_1  and  O_2
REMARK    2  A    between atoms: O_2  and  C_3
REMARK    3  A    between atoms: C_8  and  C_9
REMARK    4  A    between atoms: C_10  and  C_11
REMARK    5  A    between atoms: N_12  and  N_13
REMARK    6  A    between atoms: C_14  and  S_15
REMARK    7  A    between atoms: C_18  and  C_19
REMARK                            x       y       z     vdW  Elec       q    Type
REMARK                         _______ _______ _______ _____ _____    ______ ____
ROOT
ATOM      1  N   UNL     1       3.047   4.344  20.149  0.00  0.00    +0.000 N 
ATOM      2  C   UNL     1       2.502   3.070  20.267  0.00  0.00    +0.000 A 
ATOM      3  N   UNL     1       2.983   2.277  19.343  0.00  0.00    +0.000 NA
ATOM      4  N   UNL     1       3.950   2.968  18.672  0.00  0.00    +0.000 NA
ATOM      5  C   UNL     1       4.039   4.190  19.170  0.00  0.00    +0.000 A 
ENDROOT
BRANCH   5   6
ATOM      6  C   UNL     1       5.038   5.191  18.749  0.00  0.00    +0.000 A 
ATOM      7  C   UNL     1       6.378   5.067  19.156  0.00  0.00    +0.000 A 
ATOM      8  C   UNL     1       7.362   5.961  18.715  0.00  0.00    +0.000 A 
ATOM      9  C   UNL     1       7.023   6.991  17.846  0.00  0.00    +0.000 A 
ATOM     10 CL   UNL     1       8.233   8.082  17.295  0.00  0.00    +0.000 Cl
ATOM     11  C   UNL     1       5.711   7.139  17.418  0.00  0.00    +0.000 A 
ATOM     12  C   UNL     1       4.723   6.249  17.867  0.00  0.00    +0.000 A 
ATOM     13 CL   UNL     1       3.117   6.559  17.291  0.00  0.00    +0.000 Cl
ENDBRANCH   5   6
BRANCH   1  15
ATOM     14  C   UNL     1       1.798   6.224  20.445  0.00  0.00    +0.000 C 
ATOM     15  N   UNL     1       2.799   5.513  20.850  0.00  0.00    +0.000 NA
BRANCH  14  17
ATOM     16  C   UNL     1       0.198   7.997  20.929  0.00  0.00    +0.000 C 
ATOM     17  C   UNL     1       1.427   7.490  21.114  0.00  0.00    +0.000 C 
BRANCH  16  23
ATOM     18  C   UNL     1      -0.456  10.406  20.453  0.00  0.00    +0.000 A 
ATOM     19  C   UNL     1      -0.913  11.643  20.925  0.00  0.00    +0.000 A 
ATOM     20  C   UNL     1      -1.183  11.826  22.276  0.00  0.00    +0.000 A 
ATOM     21  C   UNL     1      -0.990  10.784  23.174  0.00  0.00    +0.000 A 
ATOM     22  C   UNL     1      -0.506   9.553  22.720  0.00  0.00    +0.000 A 
ATOM     23  C   UNL     1      -0.212   9.351  21.361  0.00  0.00    +0.000 A 
BRANCH  18  25
ATOM     24  C   UNL     1      -1.293  10.417  18.224  0.00  0.00    +0.000 C 
ATOM     25  O   UNL     1      -0.225  10.154  19.122  0.00  0.00    +0.000 OA
ENDBRANCH  18  25
ENDBRANCH  16  23
ENDBRANCH  14  17
ENDBRANCH   1  15
BRANCH   2  26
ATOM     26  S   UNL     1       1.444   2.517  21.528  0.00  0.00    +0.000 S 
ATOM     27  H   UNL     1       1.626   3.513  22.404  0.00  0.00    +0.000 HD
ENDBRANCH   2  26
TORSDOF 6
ENDMDL
MODEL 6
REMARK VINA RESULT:      -7.1      4.080      7.182
REMARK  Name = 
REMARK  7 active torsions:
REMARK  status: ('A' for Active; 'I' for Inactive)
REMARK    1  A    between atoms: C_1  and  O_2
REMARK    2  A    between atoms: O_2  and  C_3
REMARK    3  A    between atoms: C_8  and  C_9
REMARK    4  A    between atoms: C_10  and  C_11
REMARK    5  A    between atoms: N_12  and  N_13
REMARK    6  A    between atoms: C_14  and  S_15
REMARK    7  A    between atoms: C_18  and  C_19
REMARK                            x       y       z     vdW  Elec       q    Type
REMARK                         _______ _______ _______ _____ _____    ______ ____
ROOT
ATOM      1  N   UNL     1       3.516   4.292  19.025  0.00  0.00    +0.000 N 
ATOM      2  C   UNL     1       3.012   3.039  18.696  0.00  0.00    +0.000 A 
ATOM      3  N   UNL     1       3.618   2.562  17.639  0.00  0.00    +0.000 NA
ATOM      4  N   UNL     1       4.623   3.427  17.316  0.00  0.00    +0.000 NA
ATOM      5  C   UNL     1       4.612   4.444  18.162  0.00  0.00    +0.000 A 
ENDROOT
BRANCH   5   6
ATOM      6  C   UNL     1       5.610   5.531  18.173  0.00  0.00    +0.000 A 
ATOM      7  C   UNL     1       6.814   5.378  18.884  0.00  0.00    +0.000 A 
ATOM      8  C   UNL     1       7.810   6.362  18.856  0.00  0.00    +0.000 A 
ATOM      9  C   UNL     1       7.624   7.515  18.101  0.00  0.00    +0.000 A 
ATOM     10 CL   UNL     1       8.852   8.718  18.056  0.00  0.00    +0.000 Cl
ATOM     11  C   UNL     1       6.450   7.695  17.381  0.00  0.00    +0.000 A 
ATOM     12  C   UNL     1       5.449   6.714  17.417  0.00  0.00    +0.000 A 
ATOM     13 CL   UNL     1       4.017   7.070  16.506  0.00  0.00    +0.000 Cl
ENDBRANCH   5   6
BRANCH   1  15
ATOM     14  C   UNL     1       2.401   6.180  19.635  0.00  0.00    +0.000 C 
ATOM     15  N   UNL     1       3.151   5.195  20.009  0.00  0.00    +0.000 NA
BRANCH  14  17
ATOM     16  C   UNL     1       0.834   7.918  20.315  0.00  0.00    +0.000 C 
ATOM     17  C   UNL     1       1.939   7.207  20.594  0.00  0.00    +0.000 C 
BRANCH  16  23
ATOM     18  C   UNL     1       0.302  10.395  20.503  0.00  0.00    +0.000 A 
ATOM     19  C   UNL     1      -0.185  11.465  21.265  0.00  0.00    +0.000 A 
ATOM     20  C   UNL     1      -0.624  11.262  22.567  0.00  0.00    +0.000 A 
ATOM     21  C   UNL     1      -0.574   9.993  23.131  0.00  0.00    +0.000 A 
ATOM     22  C   UNL     1      -0.063   8.922  22.391  0.00  0.00    +0.000 A 
ATOM     23  C   UNL     1       0.401   9.108  21.078  0.00  0.00    +0.000 A 
BRANCH  18  25
ATOM     24  C   UNL     1       1.441  11.695  18.867  0.00  0.00    +0.000 C 
ATOM     25  O   UNL     1       0.700  10.530  19.195  0.00  0.00    +0.000 OA
ENDBRANCH  18  25
ENDBRANCH  16  23
ENDBRANCH  14  17
ENDBRANCH   1  15
BRANCH   2  26
ATOM     26  S   UNL     1       1.849   2.127  19.608  0.00  0.00    +0.000 S 
ATOM     27  H   UNL     1       1.348   1.379  18.618  0.00  0.00    +0.000 HD
ENDBRANCH   2  26
TORSDOF 6
ENDMDL
MODEL 7
REMARK VINA RESULT:      -7.0      5.990      7.984
REMARK  Name = 
REMARK  7 active torsions:
REMARK  status: ('A' for Active; 'I' for Inactive)
REMARK    1  A    between atoms: C_1  and  O_2
REMARK    2  A    between atoms: O_2  and  C_3
REMARK    3  A    between atoms: C_8  and  C_9
REMARK    4  A    between atoms: C_10  and  C_11
REMARK    5  A    between atoms: N_12  and  N_13
REMARK    6  A    between atoms: C_14  and  S_15
REMARK    7  A    between atoms: C_18  and  C_19
REMARK                            x       y       z     vdW  Elec       q    Type
REMARK                         _______ _______ _______ _____ _____    ______ ____
ROOT
ATOM      1  N   UNL     1       0.310   9.910  20.416  0.00  0.00    +0.000 N 
ATOM      2  C   UNL     1       0.480  10.251  21.753  0.00  0.00    +0.000 A 
ATOM      3  N   UNL     1      -0.252  11.291  22.061  0.00  0.00    +0.000 NA
ATOM      4  N   UNL     1      -1.020  11.588  20.973  0.00  0.00    +0.000 NA
ATOM      5  C   UNL     1      -0.736  10.744  19.994  0.00  0.00    +0.000 A 
ENDROOT
BRANCH   5   6
ATOM      6  C   UNL     1      -1.434  10.709  18.695  0.00  0.00    +0.000 A 
ATOM      7  C   UNL     1      -2.212   9.592  18.340  0.00  0.00    +0.000 A 
ATOM      8  C   UNL     1      -2.943   9.559  17.146  0.00  0.00    +0.000 A 
ATOM      9  C   UNL     1      -2.919  10.652  16.289  0.00  0.00    +0.000 A 
ATOM     10 CL   UNL     1      -3.826  10.617  14.828  0.00  0.00    +0.000 Cl
ATOM     11  C   UNL     1      -2.167  11.774  16.610  0.00  0.00    +0.000 A 
ATOM     12  C   UNL     1      -1.427  11.804  17.802  0.00  0.00    +0.000 A 
ATOM     13 CL   UNL     1      -0.502  13.245  18.075  0.00  0.00    +0.000 Cl
ENDBRANCH   5   6
BRANCH   1  15
ATOM     14  C   UNL     1       1.711   9.357  18.709  0.00  0.00    +0.000 C 
ATOM     15  N   UNL     1       0.912   8.937  19.636  0.00  0.00    +0.000 NA
BRANCH  14  17
ATOM     16  C   UNL     1       2.753   7.199  18.272  0.00  0.00    +0.000 C 
ATOM     17  C   UNL     1       2.419   8.416  17.815  0.00  0.00    +0.000 C 
BRANCH  16  23
ATOM     18  C   UNL     1       3.501   4.858  17.625  0.00  0.00    +0.000 A 
ATOM     19  C   UNL     1       4.337   4.031  16.863  0.00  0.00    +0.000 A 
ATOM     20  C   UNL     1       5.272   4.580  15.994  0.00  0.00    +0.000 A 
ATOM     21  C   UNL     1       5.395   5.960  15.883  0.00  0.00    +0.000 A 
ATOM     22  C   UNL     1       4.587   6.797  16.660  0.00  0.00    +0.000 A 
ATOM     23  C   UNL     1       3.646   6.262  17.555  0.00  0.00    +0.000 A 
BRANCH  18  25
ATOM     24  C   UNL     1       1.855   3.190  18.038  0.00  0.00    +0.000 C 
ATOM     25  O   UNL     1       2.525   4.369  18.459  0.00  0.00    +0.000 OA
ENDBRANCH  18  25
ENDBRANCH  16  23
ENDBRANCH  14  17
ENDBRANCH   1  15
BRANCH   2  26
ATOM     26  S   UNL     1       1.405   9.368  22.928  0.00  0.00    +0.000 S 
ATOM     27  H   UNL     1       0.536   9.400  23.945  0.00  0.00    +0.000 HD
ENDBRANCH   2  26
TORSDOF 6
ENDMDL
MODEL 8
REMARK VINA RESULT:      -7.0      4.323      6.813
REMARK  Name = 
REMARK  7 active torsions:
REMARK  status: ('A' for Active; 'I' for Inactive)
REMARK    1  A    between atoms: C_1  and  O_2
REMARK    2  A    between atoms: O_2  and  C_3
REMARK    3  A    between atoms: C_8  and  C_9
REMARK    4  A    between atoms: C_10  and  C_11
REMARK    5  A    between atoms: N_12  and  N_13
REMARK    6  A    between atoms: C_14  and  S_15
REMARK    7  A    between atoms: C_18  and  C_19
REMARK                            x       y       z     vdW  Elec       q    Type
REMARK                         _______ _______ _______ _____ _____    ______ ____
ROOT
ATOM      1  N   UNL     1       5.495   6.436  18.070  0.00  0.00    +0.000 N 
ATOM      2  C   UNL     1       6.856   6.710  18.141  0.00  0.00    +0.000 A 
ATOM      3  N   UNL     1       7.487   5.750  18.770  0.00  0.00    +0.000 NA
ATOM      4  N   UNL     1       6.582   4.760  19.019  0.00  0.00    +0.000 NA
ATOM      5  C   UNL     1       5.395   5.128  18.565  0.00  0.00    +0.000 A 
ENDROOT
BRANCH   5   6
ATOM      6  C   UNL     1       4.194   4.272  18.582  0.00  0.00    +0.000 A 
ATOM      7  C   UNL     1       3.473   4.087  19.776  0.00  0.00    +0.000 A 
ATOM      8  C   UNL     1       2.291   3.337  19.808  0.00  0.00    +0.000 A 
ATOM      9  C   UNL     1       1.799   2.768  18.639  0.00  0.00    +0.000 A 
ATOM     10 CL   UNL     1       0.340   1.858  18.676  0.00  0.00    +0.000 Cl
ATOM     11  C   UNL     1       2.481   2.936  17.441  0.00  0.00    +0.000 A 
ATOM     12  C   UNL     1       3.670   3.679  17.410  0.00  0.00    +0.000 A 
ATOM     13 CL   UNL     1       4.447   3.788  15.864  0.00  0.00    +0.000 Cl
ENDBRANCH   5   6
BRANCH   1  15
ATOM     14  C   UNL     1       3.426   7.344  18.349  0.00  0.00    +0.000 C 
ATOM     15  N   UNL     1       4.439   7.175  17.562  0.00  0.00    +0.000 NA
BRANCH  14  17
ATOM     16  C   UNL     1       1.935   9.258  18.568  0.00  0.00    +0.000 C 
ATOM     17  C   UNL     1       2.240   8.119  17.926  0.00  0.00    +0.000 C 
BRANCH  16  23
ATOM     18  C   UNL     1       0.498  11.342  18.784  0.00  0.00    +0.000 A 
ATOM     19  C   UNL     1      -0.707  12.004  18.515  0.00  0.00    +0.000 A 
ATOM     20  C   UNL     1      -1.720  11.367  17.809  0.00  0.00    +0.000 A 
ATOM     21  C   UNL     1      -1.550  10.059  17.371  0.00  0.00    +0.000 A 
ATOM     22  C   UNL     1      -0.363   9.377  17.659  0.00  0.00    +0.000 A 
ATOM     23  C   UNL     1       0.667   9.997  18.386  0.00  0.00    +0.000 A 
BRANCH  18  25
ATOM     24  C   UNL     1       1.861  13.275  19.055  0.00  0.00    +0.000 C 
ATOM     25  O   UNL     1       1.551  11.942  19.432  0.00  0.00    +0.000 OA
ENDBRANCH  18  25
ENDBRANCH  16  23
ENDBRANCH  14  17
ENDBRANCH   1  15
BRANCH   2  26
ATOM     26  S   UNL     1       7.677   8.044  17.392  0.00  0.00    +0.000 S 
ATOM     27  H   UNL     1       8.129   8.656  18.494  0.00  0.00    +0.000 HD
ENDBRANCH   2  26
TORSDOF 6
ENDMDL
MODEL 9
REMARK VINA RESULT:      -6.9      5.423      7.241
REMARK  Name = 
REMARK  7 active torsions:
REMARK  status: ('A' for Active; 'I' for Inactive)
REMARK    1  A    between atoms: C_1  and  O_2
REMARK    2  A    between atoms: O_2  and  C_3
REMARK    3  A    between atoms: C_8  and  C_9
REMARK    4  A    between atoms: C_10  and  C_11
REMARK    5  A    between atoms: N_12  and  N_13
REMARK    6  A    between atoms: C_14  and  S_15
REMARK    7  A    between atoms: C_18  and  C_19
REMARK                            x       y       z     vdW  Elec       q    Type
REMARK                         _______ _______ _______ _____ _____    ______ ____
ROOT
ATOM      1  N   UNL     1       3.272   3.828  19.590  0.00  0.00    +0.000 N 
ATOM      2  C   UNL     1       3.110   2.990  20.687  0.00  0.00    +0.000 A 
ATOM      3  N   UNL     1       3.961   1.997  20.638  0.00  0.00    +0.000 NA
ATOM      4  N   UNL     1       4.791   2.220  19.579  0.00  0.00    +0.000 NA
ATOM      5  C   UNL     1       4.428   3.336  18.967  0.00  0.00    +0.000 A 
ENDROOT
BRANCH   5   6
ATOM      6  C   UNL     1       5.153   3.937  17.831  0.00  0.00    +0.000 A 
ATOM      7  C   UNL     1       6.453   4.442  18.009  0.00  0.00    +0.000 A 
ATOM      8  C   UNL     1       7.192   4.955  16.935  0.00  0.00    +0.000 A 
ATOM      9  C   UNL     1       6.646   4.958  15.658  0.00  0.00    +0.000 A 
ATOM     10 CL   UNL     1       7.558   5.576  14.337  0.00  0.00    +0.000 Cl
ATOM     11  C   UNL     1       5.368   4.460  15.444  0.00  0.00    +0.000 A 
ATOM     12  C   UNL     1       4.623   3.956  16.521  0.00  0.00    +0.000 A 
ATOM     13 CL   UNL     1       3.029   3.396  16.133  0.00  0.00    +0.000 Cl
ENDBRANCH   5   6
BRANCH   1  15
ATOM     14  C   UNL     1       2.990   6.086  19.649  0.00  0.00    +0.000 C 
ATOM     15  N   UNL     1       2.572   4.953  19.187  0.00  0.00    +0.000 NA
BRANCH  14  17
ATOM     16  C   UNL     1       1.773   8.109  20.251  0.00  0.00    +0.000 C 
ATOM     17  C   UNL     1       2.330   7.359  19.287  0.00  0.00    +0.000 C 
BRANCH  16  23
ATOM     18  C   UNL     1       0.530  10.194  21.002  0.00  0.00    +0.000 A 
ATOM     19  C   UNL     1      -0.238  11.320  20.673  0.00  0.00    +0.000 A 
ATOM     20  C   UNL     1      -0.588  11.573  19.353  0.00  0.00    +0.000 A 
ATOM     21  C   UNL     1      -0.190  10.704  18.345  0.00  0.00    +0.000 A 
ATOM     22  C   UNL     1       0.551   9.561  18.663  0.00  0.00    +0.000 A 
ATOM     23  C   UNL     1       0.903   9.277  19.993  0.00  0.00    +0.000 A 
BRANCH  18  25
ATOM     24  C   UNL     1      -0.053   9.558  23.220  0.00  0.00    +0.000 C 
ATOM     25  O   UNL     1       0.948   9.924  22.282  0.00  0.00    +0.000 OA
ENDBRANCH  18  25
ENDBRANCH  16  23
ENDBRANCH  14  17
ENDBRANCH   1  15
BRANCH   2  26
ATOM     26  S   UNL     1       2.046   3.255  22.034  0.00  0.00    +0.000 S 
ATOM     27  H   UNL     1       1.239   4.171  21.485  0.00  0.00    +0.000 HD
ENDBRANCH   2  26
TORSDOF 6
ENDMDL
