MODEL 1
REMARK VINA RESULT:      -7.2      0.000      0.000
REMARK  Name = 
REMARK  5 active torsions:
REMARK  status: ('A' for Active; 'I' for Inactive)
REMARK    1  A    between atoms: C_1  and  O_2
REMARK    2  A    between atoms: O_2  and  C_3
REMARK    3  A    between atoms: C_12  and  C_14
REMARK    4  A    between atoms: C_26  and  O_27
REMARK    5  A    between atoms: O_27  and  C_28
REMARK                            x       y       z     vdW  Elec       q    Type
REMARK                         _______ _______ _______ _____ _____    ______ ____
ROOT
ATOM      1  C   UNL     1       2.543   7.199  18.647  0.00  0.00    +0.000 A 
ATOM      2  C   UNL     1       2.095   8.514  18.386  0.00  0.00    +0.000 A 
ATOM      3  C   UNL     1       1.339   9.215  19.337  0.00  0.00    +0.000 A 
ATOM      4  N   UNL     1       0.934  10.483  19.075  0.00  0.00    +0.000 NA
ATOM      5  C   UNL     1       0.206  11.198  19.980  0.00  0.00    +0.000 A 
ATOM      6  N   UNL     1      -0.177  12.551  19.704  0.00  0.00    +0.000 N 
ATOM      7  C   UNL     1      -0.888  13.364  20.688  0.00  0.00    +0.000 C 
ATOM      8  C   UNL     1      -0.037  14.602  21.015  0.00  0.00    +0.000 C 
ATOM      9  N   UNL     1       0.336  15.274  19.768  0.00  0.00    +0.000 N 
ATOM     10  C   UNL     1       0.080  16.617  19.575  0.00  0.00    +0.000 C 
ATOM     11  O   UNL     1      -0.389  17.276  20.494  0.00  0.00    +0.000 OA
ATOM     12  C   UNL     1       1.047  14.427  18.808  0.00  0.00    +0.000 C 
ATOM     13  C   UNL     1       0.187  13.214  18.462  0.00  0.00    +0.000 C 
ATOM     14  N   UNL     1      -0.141  10.619  21.155  0.00  0.00    +0.000 NA
ATOM     15  C   UNL     1       0.223   9.354  21.480  0.00  0.00    +0.000 A 
ATOM     16  N   UNL     1      -0.208   8.843  22.734  0.00  0.00    +0.000 N 
ATOM     17  C   UNL     1       1.004   8.608  20.564  0.00  0.00    +0.000 A 
ATOM     18  C   UNL     1       1.454   7.306  20.824  0.00  0.00    +0.000 A 
ATOM     19  C   UNL     1       2.227   6.598  19.882  0.00  0.00    +0.000 A 
ATOM     20  H   UNL     1      -0.774   9.439  23.357  0.00  0.00    +0.000 HD
ATOM     21  H   UNL     1      -0.012   7.887  23.053  0.00  0.00    +0.000 HD
ENDROOT
BRANCH  10  22
ATOM     22  C   UNL     1       0.376  17.351  18.312  0.00  0.00    +0.000 A 
ATOM     23  C   UNL     1      -0.575  17.867  17.449  0.00  0.00    +0.000 A 
ATOM     24  C   UNL     1       0.125  18.464  16.425  0.00  0.00    +0.000 A 
ATOM     25  C   UNL     1       1.459  18.258  16.702  0.00  0.00    +0.000 A 
ATOM     26  O   UNL     1       1.574  17.596  17.829  0.00  0.00    +0.000 OA
ENDBRANCH  10  22
BRANCH   1  28
ATOM     27  C   UNL     1       4.556   6.787  17.324  0.00  0.00    +0.000 C 
ATOM     28  O   UNL     1       3.272   6.491  17.743  0.00  0.00    +0.000 OA
ENDBRANCH   1  28
BRANCH  19  29
ATOM     29  O   UNL     1       2.667   5.334  20.140  0.00  0.00    +0.000 OA
ATOM     30  C   UNL     1       2.166   4.502  21.126  0.00  0.00    +0.000 C 
ENDBRANCH  19  29
TORSDOF 3
ENDMDL
MODEL 2
REMARK VINA RESULT:      -7.2      2.992      9.883
REMARK  Name = 
REMARK  5 active torsions:
REMARK  status: ('A' for Active; 'I' for Inactive)
REMARK    1  A    between atoms: C_1  and  O_2
REMARK    2  A    between atoms: O_2  and  C_3
REMARK    3  A    between atoms: C_12  and  C_14
REMARK    4  A    between atoms: C_26  and  O_27
REMARK    5  A    between atoms: O_27  and  C_28
REMARK                            x       y       z     vdW  Elec       q    Type
REMARK                         _______ _______ _______ _____ _____    ______ ____
ROOT
ATOM      1  C   UNL     1      -0.340  11.877  22.024  0.00  0.00    +0.000 A 
ATOM      2  C   UNL     1       0.056  10.623  21.507  0.00  0.00    +0.000 A 
ATOM      3  C   UNL     1       0.789  10.538  20.315  0.00  0.00    +0.000 A 
ATOM      4  N   UNL     1       1.175   9.326  19.844  0.00  0.00    +0.000 NA
ATOM      5  C   UNL     1       1.897   9.207  18.693  0.00  0.00    +0.000 A 
ATOM      6  N   UNL     1       2.332   7.921  18.233  0.00  0.00    +0.000 N 
ATOM      7  C   UNL     1       3.173   7.774  17.047  0.00  0.00    +0.000 C 
ATOM      8  C   UNL     1       4.489   7.095  17.456  0.00  0.00    +0.000 C 
ATOM      9  N   UNL     1       4.190   5.865  18.194  0.00  0.00    +0.000 N 
ATOM     10  C   UNL     1       4.732   4.653  17.814  0.00  0.00    +0.000 C 
ATOM     11  O   UNL     1       5.542   4.619  16.898  0.00  0.00    +0.000 OA
ATOM     12  C   UNL     1       3.346   6.054  19.376  0.00  0.00    +0.000 C 
ATOM     13  C   UNL     1       2.026   6.701  18.962  0.00  0.00    +0.000 C 
ATOM     14  N   UNL     1       2.213  10.323  17.993  0.00  0.00    +0.000 NA
ATOM     15  C   UNL     1       1.854  11.565  18.399  0.00  0.00    +0.000 A 
ATOM     16  N   UNL     1       2.228  12.664  17.579  0.00  0.00    +0.000 N 
ATOM     17  C   UNL     1       1.130  11.709  19.607  0.00  0.00    +0.000 A 
ATOM     18  C   UNL     1       0.742  12.953  20.126  0.00  0.00    +0.000 A 
ATOM     19  C   UNL     1       0.019  13.050  21.330  0.00  0.00    +0.000 A 
ATOM     20  H   UNL     1       2.758  12.492  16.711  0.00  0.00    +0.000 HD
ATOM     21  H   UNL     1       1.973  13.637  17.785  0.00  0.00    +0.000 HD
ENDROOT
BRANCH  10  22
ATOM     22  C   UNL     1       4.423   3.355  18.480  0.00  0.00    +0.000 A 
ATOM     23  C   UNL     1       3.562   2.392  17.985  0.00  0.00    +0.000 A 
ATOM     24  C   UNL     1       3.575   1.364  18.901  0.00  0.00    +0.000 A 
ATOM     25  C   UNL     1       4.419   1.765  19.913  0.00  0.00    +0.000 A 
ATOM     26  O   UNL     1       4.907   2.950  19.633  0.00  0.00    +0.000 OA
ENDBRANCH  10  22
BRANCH   1  28
ATOM     27  C   UNL     1      -2.433  11.910  23.286  0.00  0.00    +0.000 C 
ATOM     28  O   UNL     1      -1.057  11.991  23.175  0.00  0.00    +0.000 OA
ENDBRANCH   1  28
BRANCH  19  29
ATOM     29  O   UNL     1      -0.352  14.261  21.833  0.00  0.00    +0.000 OA
ATOM     30  C   UNL     1      -1.170  15.174  21.190  0.00  0.00    +0.000 C 
ENDBRANCH  19  29
TORSDOF 3
ENDMDL
MODEL 3
REMARK VINA RESULT:      -6.9      3.477      5.319
REMARK  Name = 
REMARK  5 active torsions:
REMARK  status: ('A' for Active; 'I' for Inactive)
REMARK    1  A    between atoms: C_1  and  O_2
REMARK    2  A    between atoms: O_2  and  C_3
REMARK    3  A    between atoms: C_12  and  C_14
REMARK    4  A    between atoms: C_26  and  O_27
REMARK    5  A    between atoms: O_27  and  C_28
REMARK                            x       y       z     vdW  Elec       q    Type
REMARK                         _______ _______ _______ _____ _____    ______ ____
ROOT
ATOM      1  C   UNL     1       2.692   3.869  20.412  0.00  0.00    +0.000 A 
ATOM      2  C   UNL     1       2.133   5.110  20.794  0.00  0.00    +0.000 A 
ATOM      3  C   UNL     1       2.269   6.240  19.975  0.00  0.00    +0.000 A 
ATOM      4  N   UNL     1       1.711   7.417  20.350  0.00  0.00    +0.000 NA
ATOM      5  C   UNL     1       1.815   8.534  19.574  0.00  0.00    +0.000 A 
ATOM      6  N   UNL     1       1.183   9.758  19.966  0.00  0.00    +0.000 N 
ATOM      7  C   UNL     1       1.213  10.945  19.114  0.00  0.00    +0.000 C 
ATOM      8  C   UNL     1      -0.231  11.339  18.764  0.00  0.00    +0.000 C 
ATOM      9  N   UNL     1      -1.015  11.447  19.996  0.00  0.00    +0.000 N 
ATOM     10  C   UNL     1      -1.731  12.590  20.291  0.00  0.00    +0.000 C 
ATOM     11  O   UNL     1      -1.781  13.495  19.469  0.00  0.00    +0.000 OA
ATOM     12  C   UNL     1      -1.021  10.237  20.823  0.00  0.00    +0.000 C 
ATOM     13  C   UNL     1       0.412   9.865  21.194  0.00  0.00    +0.000 C 
ATOM     14  N   UNL     1       2.514   8.469  18.415  0.00  0.00    +0.000 NA
ATOM     15  C   UNL     1       3.105   7.329  17.981  0.00  0.00    +0.000 A 
ATOM     16  N   UNL     1       3.825   7.380  16.756  0.00  0.00    +0.000 N 
ATOM     17  C   UNL     1       2.981   6.153  18.760  0.00  0.00    +0.000 A 
ATOM     18  C   UNL     1       3.529   4.920  18.380  0.00  0.00    +0.000 A 
ATOM     19  C   UNL     1       3.384   3.775  19.188  0.00  0.00    +0.000 A 
ATOM     20  H   UNL     1       3.875   8.268  16.235  0.00  0.00    +0.000 HD
ATOM     21  H   UNL     1       4.333   6.578  16.365  0.00  0.00    +0.000 HD
ENDROOT
BRANCH  10  22
ATOM     22  C   UNL     1      -2.500  12.792  21.552  0.00  0.00    +0.000 A 
ATOM     23  C   UNL     1      -1.954  13.169  22.766  0.00  0.00    +0.000 A 
ATOM     24  C   UNL     1      -3.007  13.245  23.650  0.00  0.00    +0.000 A 
ATOM     25  C   UNL     1      -4.130  12.885  22.938  0.00  0.00    +0.000 A 
ATOM     26  O   UNL     1      -3.796  12.623  21.697  0.00  0.00    +0.000 OA
ENDBRANCH  10  22
BRANCH   1  28
ATOM     27  C   UNL     1       1.485   2.407  21.955  0.00  0.00    +0.000 C 
ATOM     28  O   UNL     1       2.582   2.757  21.188  0.00  0.00    +0.000 OA
ENDBRANCH   1  28
BRANCH  19  29
ATOM     29  O   UNL     1       3.915   2.577  18.813  0.00  0.00    +0.000 OA
ATOM     30  C   UNL     1       3.343   1.702  17.906  0.00  0.00    +0.000 C 
ENDBRANCH  19  29
TORSDOF 3
ENDMDL
MODEL 4
REMARK VINA RESULT:      -6.7      2.727      9.334
REMARK  Name = 
REMARK  5 active torsions:
REMARK  status: ('A' for Active; 'I' for Inactive)
REMARK    1  A    between atoms: C_1  and  O_2
REMARK    2  A    between atoms: O_2  and  C_3
REMARK    3  A    between atoms: C_12  and  C_14
REMARK    4  A    between atoms: C_26  and  O_27
REMARK    5  A    between atoms: O_27  and  C_28
REMARK                            x       y       z     vdW  Elec       q    Type
REMARK                         _______ _______ _______ _____ _____    ______ ____
ROOT
ATOM      1  C   UNL     1      -0.319  12.502  19.244  0.00  0.00    +0.000 A 
ATOM      2  C   UNL     1       0.635  11.522  18.893  0.00  0.00    +0.000 A 
ATOM      3  C   UNL     1       0.734  10.325  19.617  0.00  0.00    +0.000 A 
ATOM      4  N   UNL     1       1.644   9.389  19.253  0.00  0.00    +0.000 NA
ATOM      5  C   UNL     1       1.762   8.209  19.929  0.00  0.00    +0.000 A 
ATOM      6  N   UNL     1       2.701   7.214  19.505  0.00  0.00    +0.000 N 
ATOM      7  C   UNL     1       2.790   5.912  20.162  0.00  0.00    +0.000 C 
ATOM      8  C   UNL     1       2.497   4.814  19.128  0.00  0.00    +0.000 C 
ATOM      9  N   UNL     1       3.359   5.009  17.959  0.00  0.00    +0.000 N 
ATOM     10  C   UNL     1       4.157   3.989  17.480  0.00  0.00    +0.000 C 
ATOM     11  O   UNL     1       4.080   2.878  17.989  0.00  0.00    +0.000 OA
ATOM     12  C   UNL     1       3.240   6.325  17.327  0.00  0.00    +0.000 C 
ATOM     13  C   UNL     1       3.561   7.413  18.349  0.00  0.00    +0.000 C 
ATOM     14  N   UNL     1       0.967   7.982  21.003  0.00  0.00    +0.000 NA
ATOM     15  C   UNL     1       0.041   8.875  21.428  0.00  0.00    +0.000 A 
ATOM     16  N   UNL     1      -0.729   8.538  22.574  0.00  0.00    +0.000 N 
ATOM     17  C   UNL     1      -0.114  10.092  20.720  0.00  0.00    +0.000 A 
ATOM     18  C   UNL     1      -1.065  11.063  21.063  0.00  0.00    +0.000 A 
ATOM     19  C   UNL     1      -1.183  12.262  20.332  0.00  0.00    +0.000 A 
ATOM     20  H   UNL     1      -0.568   7.634  23.044  0.00  0.00    +0.000 HD
ATOM     21  H   UNL     1      -1.428   9.163  22.990  0.00  0.00    +0.000 HD
ENDROOT
BRANCH  10  22
ATOM     22  C   UNL     1       5.102   4.134  16.336  0.00  0.00    +0.000 A 
ATOM     23  C   UNL     1       6.450   4.424  16.449  0.00  0.00    +0.000 A 
ATOM     24  C   UNL     1       6.940   4.460  15.163  0.00  0.00    +0.000 A 
ATOM     25  C   UNL     1       5.864   4.217  14.337  0.00  0.00    +0.000 A 
ATOM     26  O   UNL     1       4.789   4.027  15.064  0.00  0.00    +0.000 OA
ENDBRANCH  10  22
BRANCH   1  28
ATOM     27  C   UNL     1       0.357  14.796  18.739  0.00  0.00    +0.000 C 
ATOM     28  O   UNL     1      -0.435  13.676  18.565  0.00  0.00    +0.000 OA
ENDBRANCH   1  28
BRANCH  19  29
ATOM     29  O   UNL     1      -2.111  13.202  20.666  0.00  0.00    +0.000 OA
ATOM     30  C   UNL     1      -3.462  12.958  20.848  0.00  0.00    +0.000 C 
ENDBRANCH  19  29
TORSDOF 3
ENDMDL
MODEL 5
REMARK VINA RESULT:      -6.6      2.200      9.602
REMARK  Name = 
REMARK  5 active torsions:
REMARK  status: ('A' for Active; 'I' for Inactive)
REMARK    1  A    between atoms: C_1  and  O_2
REMARK    2  A    between atoms: O_2  and  C_3
REMARK    3  A    between atoms: C_12  and  C_14
REMARK    4  A    between atoms: C_26  and  O_27
REMARK    5  A    between atoms: O_27  and  C_28
REMARK                            x       y       z     vdW  Elec       q    Type
REMARK                         _______ _______ _______ _____ _____    ______ ____
ROOT
ATOM      1  C   UNL     1       0.373  14.525  22.081  0.00  0.00    +0.000 A 
ATOM      2  C   UNL     1       0.346  13.151  21.752  0.00  0.00    +0.000 A 
ATOM      3  C   UNL     1       0.908  12.689  20.553  0.00  0.00    +0.000 A 
ATOM      4  N   UNL     1       0.889  11.365  20.265  0.00  0.00    +0.000 NA
ATOM      5  C   UNL     1       1.435  10.879  19.112  0.00  0.00    +0.000 A 
ATOM      6  N   UNL     1       1.442   9.472  18.843  0.00  0.00    +0.000 N 
ATOM      7  C   UNL     1       2.091   8.920  17.655  0.00  0.00    +0.000 C 
ATOM      8  C   UNL     1       3.194   7.948  18.100  0.00  0.00    +0.000 C 
ATOM      9  N   UNL     1       2.631   6.975  19.040  0.00  0.00    +0.000 N 
ATOM     10  C   UNL     1       2.769   5.617  18.834  0.00  0.00    +0.000 C 
ATOM     11  O   UNL     1       3.446   5.220  17.895  0.00  0.00    +0.000 OA
ATOM     12  C   UNL     1       1.991   7.566  20.218  0.00  0.00    +0.000 C 
ATOM     13  C   UNL     1       0.875   8.509  19.774  0.00  0.00    +0.000 C 
ATOM     14  N   UNL     1       1.985  11.745  18.227  0.00  0.00    +0.000 NA
ATOM     15  C   UNL     1       2.033  13.081  18.446  0.00  0.00    +0.000 A 
ATOM     16  N   UNL     1       2.622  13.897  17.442  0.00  0.00    +0.000 N 
ATOM     17  C   UNL     1       1.498  13.598  19.650  0.00  0.00    +0.000 A 
ATOM     18  C   UNL     1       1.529  14.961  19.981  0.00  0.00    +0.000 A 
ATOM     19  C   UNL     1       0.981  15.432  21.190  0.00  0.00    +0.000 A 
ATOM     20  H   UNL     1       2.997  13.457  16.588  0.00  0.00    +0.000 HD
ATOM     21  H   UNL     1       2.674  14.920  17.502  0.00  0.00    +0.000 HD
ENDROOT
BRANCH  10  22
ATOM     22  C   UNL     1       2.171   4.573  19.714  0.00  0.00    +0.000 A 
ATOM     23  C   UNL     1       1.142   3.721  19.352  0.00  0.00    +0.000 A 
ATOM     24  C   UNL     1       0.907   2.923  20.449  0.00  0.00    +0.000 A 
ATOM     25  C   UNL     1       1.782   3.346  21.425  0.00  0.00    +0.000 A 
ATOM     26  O   UNL     1       2.519   4.325  20.957  0.00  0.00    +0.000 OA
ENDBRANCH  10  22
BRANCH   1  28
ATOM     27  C   UNL     1      -1.271  14.485  23.889  0.00  0.00    +0.000 C 
ATOM     28  O   UNL     1      -0.170  15.004  23.233  0.00  0.00    +0.000 OA
ENDBRANCH   1  28
BRANCH  19  29
ATOM     29  O   UNL     1       1.017  16.757  21.510  0.00  0.00    +0.000 OA
ATOM     30  C   UNL     1       0.713  17.794  20.645  0.00  0.00    +0.000 C 
ENDBRANCH  19  29
TORSDOF 3
ENDMDL
MODEL 6
REMARK VINA RESULT:      -6.6      2.901      4.431
REMARK  Name = 
REMARK  5 active torsions:
REMARK  status: ('A' for Active; 'I' for Inactive)
REMARK    1  A    between atoms: C_1  and  O_2
REMARK    2  A    between atoms: O_2  and  C_3
REMARK    3  A    between atoms: C_12  and  C_14
REMARK    4  A    between atoms: C_26  and  O_27
REMARK    5  A    between atoms: O_27  and  C_28
REMARK                            x       y       z     vdW  Elec       q    Type
REMARK                         _______ _______ _______ _____ _____    ______ ____
ROOT
ATOM      1  C   UNL     1       4.804   6.407  17.063  0.00  0.00    +0.000 A 
ATOM      2  C   UNL     1       3.842   7.356  17.478  0.00  0.00    +0.000 A 
ATOM      3  C   UNL     1       3.067   7.137  18.626  0.00  0.00    +0.000 A 
ATOM      4  N   UNL     1       2.163   8.068  19.018  0.00  0.00    +0.000 NA
ATOM      5  C   UNL     1       1.398   7.891  20.134  0.00  0.00    +0.000 A 
ATOM      6  N   UNL     1       0.477   8.905  20.556  0.00  0.00    +0.000 N 
ATOM      7  C   UNL     1      -0.295   8.775  21.791  0.00  0.00    +0.000 C 
ATOM      8  C   UNL     1       0.057   9.948  22.720  0.00  0.00    +0.000 C 
ATOM      9  N   UNL     1      -0.100  11.207  21.988  0.00  0.00    +0.000 N 
ATOM     10  C   UNL     1      -0.886  12.229  22.482  0.00  0.00    +0.000 C 
ATOM     11  O   UNL     1      -1.393  12.113  23.591  0.00  0.00    +0.000 OA
ATOM     12  C   UNL     1       0.690  11.300  20.758  0.00  0.00    +0.000 C 
ATOM     13  C   UNL     1       0.317  10.151  19.824  0.00  0.00    +0.000 C 
ATOM     14  N   UNL     1       1.529   6.749  20.850  0.00  0.00    +0.000 NA
ATOM     15  C   UNL     1       2.406   5.772  20.513  0.00  0.00    +0.000 A 
ATOM     16  N   UNL     1       2.449   4.610  21.330  0.00  0.00    +0.000 N 
ATOM     17  C   UNL     1       3.228   5.953  19.375  0.00  0.00    +0.000 A 
ATOM     18  C   UNL     1       4.187   5.015  18.965  0.00  0.00    +0.000 A 
ATOM     19  C   UNL     1       4.982   5.233  17.823  0.00  0.00    +0.000 A 
ATOM     20  H   UNL     1       1.825   4.541  22.147  0.00  0.00    +0.000 HD
ATOM     21  H   UNL     1       3.055   3.804  21.136  0.00  0.00    +0.000 HD
ENDROOT
BRANCH  10  22
ATOM     22  C   UNL     1      -1.139  13.511  21.765  0.00  0.00    +0.000 A 
ATOM     23  C   UNL     1      -2.251  13.782  20.988  0.00  0.00    +0.000 A 
ATOM     24  C   UNL     1      -2.086  15.068  20.523  0.00  0.00    +0.000 A 
ATOM     25  C   UNL     1      -0.874  15.500  21.017  0.00  0.00    +0.000 A 
ATOM     26  O   UNL     1      -0.338  14.554  21.750  0.00  0.00    +0.000 OA
ENDBRANCH  10  22
BRANCH   1  28
ATOM     27  C   UNL     1       5.501   5.841  14.790  0.00  0.00    +0.000 C 
ATOM     28  O   UNL     1       5.567   6.589  15.952  0.00  0.00    +0.000 OA
ENDBRANCH   1  28
BRANCH  19  29
ATOM     29  O   UNL     1       5.916   4.321  17.430  0.00  0.00    +0.000 OA
ATOM     30  C   UNL     1       7.277   4.424  17.662  0.00  0.00    +0.000 C 
ENDBRANCH  19  29
TORSDOF 3
ENDMDL
MODEL 7
REMARK VINA RESULT:      -6.4      2.534      9.615
REMARK  Name = 
REMARK  5 active torsions:
REMARK  status: ('A' for Active; 'I' for Inactive)
REMARK    1  A    between atoms: C_1  and  O_2
REMARK    2  A    between atoms: O_2  and  C_3
REMARK    3  A    between atoms: C_12  and  C_14
REMARK    4  A    between atoms: C_26  and  O_27
REMARK    5  A    between atoms: O_27  and  C_28
REMARK                            x       y       z     vdW  Elec       q    Type
REMARK                         _______ _______ _______ _____ _____    ______ ____
ROOT
ATOM      1  C   UNL     1      -0.927  14.225  23.171  0.00  0.00    +0.000 A 
ATOM      2  C   UNL     1      -0.778  12.882  22.760  0.00  0.00    +0.000 A 
ATOM      3  C   UNL     1      -0.223  12.572  21.510  0.00  0.00    +0.000 A 
ATOM      4  N   UNL     1      -0.072  11.276  21.141  0.00  0.00    +0.000 NA
ATOM      5  C   UNL     1       0.473  10.938  19.936  0.00  0.00    +0.000 A 
ATOM      6  N   UNL     1       0.664   9.563  19.580  0.00  0.00    +0.000 N 
ATOM      7  C   UNL     1       1.317   9.177  18.332  0.00  0.00    +0.000 C 
ATOM      8  C   UNL     1       2.570   8.351  18.663  0.00  0.00    +0.000 C 
ATOM      9  N   UNL     1       2.202   7.257  19.567  0.00  0.00    +0.000 N 
ATOM     10  C   UNL     1       2.518   5.947  19.270  0.00  0.00    +0.000 C 
ATOM     11  O   UNL     1       3.192   5.703  18.277  0.00  0.00    +0.000 OA
ATOM     12  C   UNL     1       1.551   7.685  20.807  0.00  0.00    +0.000 C 
ATOM     13  C   UNL     1       0.291   8.480  20.475  0.00  0.00    +0.000 C 
ATOM     14  N   UNL     1       0.846  11.921  19.081  0.00  0.00    +0.000 NA
ATOM     15  C   UNL     1       0.717  13.237  19.380  0.00  0.00    +0.000 A 
ATOM     16  N   UNL     1       1.129  14.182  18.402  0.00  0.00    +0.000 N 
ATOM     17  C   UNL     1       0.181  13.605  20.638  0.00  0.00    +0.000 A 
ATOM     18  C   UNL     1       0.038  14.937  21.051  0.00  0.00    +0.000 A 
ATOM     19  C   UNL     1      -0.504  15.258  22.311  0.00  0.00    +0.000 A 
ATOM     20  H   UNL     1       1.514  13.848  17.506  0.00  0.00    +0.000 HD
ATOM     21  H   UNL     1       1.039  15.197  18.523  0.00  0.00    +0.000 HD
ENDROOT
BRANCH  10  22
ATOM     22  C   UNL     1       2.123   4.781  20.111  0.00  0.00    +0.000 A 
ATOM     23  C   UNL     1       1.040   3.955  19.868  0.00  0.00    +0.000 A 
ATOM     24  C   UNL     1       1.046   3.015  20.873  0.00  0.00    +0.000 A 
ATOM     25  C   UNL     1       2.112   3.331  21.687  0.00  0.00    +0.000 A 
ATOM     26  O   UNL     1       2.731   4.383  21.206  0.00  0.00    +0.000 OA
ENDBRANCH  10  22
BRANCH   1  28
ATOM     27  C   UNL     1      -2.817  14.605  24.674  0.00  0.00    +0.000 C 
ATOM     28  O   UNL     1      -1.468  14.557  24.375  0.00  0.00    +0.000 OA
ENDBRANCH   1  28
BRANCH  19  29
ATOM     29  O   UNL     1      -0.637  16.555  22.710  0.00  0.00    +0.000 OA
ATOM     30  C   UNL     1       0.312  17.546  22.529  0.00  0.00    +0.000 C 
ENDBRANCH  19  29
TORSDOF 3
ENDMDL
MODEL 8
REMARK VINA RESULT:      -6.2      1.990      2.673
REMARK  Name = 
REMARK  5 active torsions:
REMARK  status: ('A' for Active; 'I' for Inactive)
REMARK    1  A    between atoms: C_1  and  O_2
REMARK    2  A    between atoms: O_2  and  C_3
REMARK    3  A    between atoms: C_12  and  C_14
REMARK    4  A    between atoms: C_26  and  O_27
REMARK    5  A    between atoms: O_27  and  C_28
REMARK                            x       y       z     vdW  Elec       q    Type
REMARK                         _______ _______ _______ _____ _____    ______ ____
ROOT
ATOM      1  C   UNL     1       4.448   5.826  17.060  0.00  0.00    +0.000 A 
ATOM      2  C   UNL     1       3.965   7.154  17.047  0.00  0.00    +0.000 A 
ATOM      3  C   UNL     1       3.108   7.615  18.057  0.00  0.00    +0.000 A 
ATOM      4  N   UNL     1       2.670   8.898  18.037  0.00  0.00    +0.000 NA
ATOM      5  C   UNL     1       1.844   9.384  19.008  0.00  0.00    +0.000 A 
ATOM      6  N   UNL     1       1.425  10.754  18.994  0.00  0.00    +0.000 N 
ATOM      7  C   UNL     1       0.606  11.318  20.065  0.00  0.00    +0.000 C 
ATOM      8  C   UNL     1       1.374  12.478  20.717  0.00  0.00    +0.000 C 
ATOM      9  N   UNL     1       1.813  13.412  19.677  0.00  0.00    +0.000 N 
ATOM     10  C   UNL     1       1.514  14.758  19.752  0.00  0.00    +0.000 C 
ATOM     11  O   UNL     1       0.947  15.192  20.747  0.00  0.00    +0.000 OA
ATOM     12  C   UNL     1       2.631  12.810  18.622  0.00  0.00    +0.000 C 
ATOM     13  C   UNL     1       1.854  11.677  17.956  0.00  0.00    +0.000 C 
ATOM     14  N   UNL     1       1.434   8.556  20.000  0.00  0.00    +0.000 NA
ATOM     15  C   UNL     1       1.826   7.262  20.080  0.00  0.00    +0.000 A 
ATOM     16  N   UNL     1       1.322   6.482  21.156  0.00  0.00    +0.000 N 
ATOM     17  C   UNL     1       2.706   6.750  19.096  0.00  0.00    +0.000 A 
ATOM     18  C   UNL     1       3.192   5.435  19.111  0.00  0.00    +0.000 A 
ATOM     19  C   UNL     1       4.065   4.966  18.109  0.00  0.00    +0.000 A 
ATOM     20  H   UNL     1       0.685   6.915  21.841  0.00  0.00    +0.000 HD
ATOM     21  H   UNL     1       1.534   5.485  21.281  0.00  0.00    +0.000 HD
ENDROOT
BRANCH  10  22
ATOM     22  C   UNL     1       1.874  15.754  18.703  0.00  0.00    +0.000 A 
ATOM     23  C   UNL     1       1.092  16.831  18.326  0.00  0.00    +0.000 A 
ATOM     24  C   UNL     1       1.797  17.487  17.342  0.00  0.00    +0.000 A 
ATOM     25  C   UNL     1       2.954  16.762  17.153  0.00  0.00    +0.000 A 
ATOM     26  O   UNL     1       2.969  15.741  17.976  0.00  0.00    +0.000 OA
ENDBRANCH  10  22
BRANCH   1  28
ATOM     27  C   UNL     1       6.646   5.514  16.040  0.00  0.00    +0.000 C 
ATOM     28  O   UNL     1       5.274   5.348  16.091  0.00  0.00    +0.000 OA
ENDBRANCH   1  28
BRANCH  19  29
ATOM     29  O   UNL     1       4.538   3.688  18.129  0.00  0.00    +0.000 OA
ATOM     30  C   UNL     1       4.445   2.821  19.204  0.00  0.00    +0.000 C 
ENDBRANCH  19  29
TORSDOF 3
ENDMDL
MODEL 9
REMARK VINA RESULT:      -6.2      1.149      1.347
REMARK  Name = 
REMARK  5 active torsions:
REMARK  status: ('A' for Active; 'I' for Inactive)
REMARK    1  A    between atoms: C_1  and  O_2
REMARK    2  A    between atoms: O_2  and  C_3
REMARK    3  A    between atoms: C_12  and  C_14
REMARK    4  A    between atoms: C_26  and  O_27
REMARK    5  A    between atoms: O_27  and  C_28
REMARK                            x       y       z     vdW  Elec       q    Type
REMARK                         _______ _______ _______ _____ _____    ______ ____
ROOT
ATOM      1  C   UNL     1       3.436   7.110  17.689  0.00  0.00    +0.000 A 
ATOM      2  C   UNL     1       2.849   8.391  17.588  0.00  0.00    +0.000 A 
ATOM      3  C   UNL     1       2.032   8.889  18.614  0.00  0.00    +0.000 A 
ATOM      4  N   UNL     1       1.493  10.128  18.506  0.00  0.00    +0.000 NA
ATOM      5  C   UNL     1       0.702  10.648  19.488  0.00  0.00    +0.000 A 
ATOM      6  N   UNL     1       0.175  11.976  19.376  0.00  0.00    +0.000 N 
ATOM      7  C   UNL     1      -0.609  12.584  20.450  0.00  0.00    +0.000 C 
ATOM      8  C   UNL     1       0.110  13.857  20.926  0.00  0.00    +0.000 C 
ATOM      9  N   UNL     1       0.397  14.710  19.771  0.00  0.00    +0.000 N 
ATOM     10  C   UNL     1      -0.001  16.032  19.741  0.00  0.00    +0.000 C 
ATOM     11  O   UNL     1      -0.529  16.522  20.731  0.00  0.00    +0.000 OA
ATOM     12  C   UNL     1       1.185  14.066  18.717  0.00  0.00    +0.000 C 
ATOM     13  C   UNL     1       0.455  12.818  18.225  0.00  0.00    +0.000 C 
ATOM     14  N   UNL     1       0.430   9.897  20.583  0.00  0.00    +0.000 NA
ATOM     15  C   UNL     1       0.928   8.649  20.755  0.00  0.00    +0.000 A 
ATOM     16  N   UNL     1       0.565   7.947  21.936  0.00  0.00    +0.000 N 
ATOM     17  C   UNL     1       1.775   8.106  19.758  0.00  0.00    +0.000 A 
ATOM     18  C   UNL     1       2.363   6.837  19.860  0.00  0.00    +0.000 A 
ATOM     19  C   UNL     1       3.197   6.334  18.842  0.00  0.00    +0.000 A 
ATOM     20  H   UNL     1      -0.054   8.400  22.625  0.00  0.00    +0.000 HD
ATOM     21  H   UNL     1       0.865   6.986  22.138  0.00  0.00    +0.000 HD
ENDROOT
BRANCH  10  22
ATOM     22  C   UNL     1       0.204  16.940  18.576  0.00  0.00    +0.000 A 
ATOM     23  C   UNL     1       1.409  17.521  18.222  0.00  0.00    +0.000 A 
ATOM     24  C   UNL     1       1.153  18.270  17.096  0.00  0.00    +0.000 A 
ATOM     25  C   UNL     1      -0.194  18.129  16.841  0.00  0.00    +0.000 A 
ATOM     26  O   UNL     1      -0.727  17.334  17.736  0.00  0.00    +0.000 OA
ENDBRANCH  10  22
BRANCH   1  28
ATOM     27  C   UNL     1       5.592   6.779  16.589  0.00  0.00    +0.000 C 
ATOM     28  O   UNL     1       4.227   6.597  16.709  0.00  0.00    +0.000 OA
ENDBRANCH   1  28
BRANCH  19  29
ATOM     29  O   UNL     1       3.771   5.102  18.947  0.00  0.00    +0.000 OA
ATOM     30  C   UNL     1       4.970   4.833  19.583  0.00  0.00    +0.000 C 
ENDBRANCH  19  29
TORSDOF 3
ENDMDL
