MODEL 1
REMARK VINA RESULT:      -7.4      0.000      0.000
REMARK  Name = 
REMARK  6 active torsions:
REMARK  status: ('A' for Active; 'I' for Inactive)
REMARK    1  A    between atoms: C_2  and  C_3
REMARK    2  A    between atoms: C_3  and  N_4
REMARK    3  A    between atoms: C_8  and  C_9
REMARK    4  A    between atoms: N_11  and  C_12
REMARK    5  A    between atoms: C_23  and  C_24
REMARK    6  A    between atoms: N_26  and  C_27
REMARK                            x       y       z     vdW  Elec       q    Type
REMARK                         _______ _______ _______ _____ _____    ______ ____
ROOT
ATOM      1  N   UNL     1      -0.526  11.796  19.584  0.00  0.00    +0.000 N 
ATOM      2  C   UNL     1      -0.716  10.625  18.914  0.00  0.00    +0.000 C 
ATOM      3  O   UNL     1      -1.103  10.485  17.767  0.00  0.00    +0.000 OA
ATOM      4  C   UNL     1      -0.261   9.531  19.795  0.00  0.00    +0.000 C 
ATOM      5  C   UNL     1       1.228   9.190  19.964  0.00  0.00    +0.000 C 
ATOM      6  C   UNL     1       1.080   8.405  21.266  0.00  0.00    +0.000 C 
ATOM      7  C   UNL     1       1.286   9.153  22.524  0.00  0.00    +0.000 C 
ATOM      8  C   UNL     1       0.221   9.965  22.626  0.00  0.00    +0.000 C 
ATOM      9  C   UNL     1      -0.643   9.972  21.320  0.00  0.00    +0.000 C 
ATOM     10  O   UNL     1      -0.378   8.490  21.414  0.00  0.00    +0.000 OA
ATOM     11  C   UNL     1      -0.049  11.496  20.931  0.00  0.00    +0.000 C 
ENDROOT
BRANCH   5  12
ATOM     12  C   UNL     1       1.938   8.494  18.813  0.00  0.00    +0.000 C 
ATOM     13  O   UNL     1       1.994   9.003  17.697  0.00  0.00    +0.000 OA
ATOM     14  N   UNL     1       2.310   7.182  19.101  0.00  0.00    +0.000 N 
ATOM     15  H   UNL     1       2.530   6.922  20.058  0.00  0.00    +0.000 HD
BRANCH  14  16
ATOM     16  C   UNL     1       2.823   6.310  18.031  0.00  0.00    +0.000 C 
ATOM     17  C   UNL     1       4.344   6.174  18.135  0.00  0.00    +0.000 C 
ATOM     18  C   UNL     1       4.768   5.194  19.226  0.00  0.00    +0.000 C 
ATOM     19  C   UNL     1       4.160   3.817  18.991  0.00  0.00    +0.000 C 
ATOM     20  C   UNL     1       2.638   3.888  18.948  0.00  0.00    +0.000 C 
ATOM     21  C   UNL     1       2.128   4.935  17.957  0.00  0.00    +0.000 C 
ENDBRANCH  14  16
ENDBRANCH   5  12
BRANCH  11  22
ATOM     22  C   UNL     1      -0.365  12.634  21.933  0.00  0.00    +0.000 C 
ATOM     23  O   UNL     1       0.468  13.440  22.335  0.00  0.00    +0.000 OA
ATOM     24  N   UNL     1      -1.707  12.626  22.324  0.00  0.00    +0.000 N 
ATOM     25  H   UNL     1      -2.247  11.795  22.145  0.00  0.00    +0.000 HD
BRANCH  24  26
ATOM     26  C   UNL     1      -2.302  13.636  23.172  0.00  0.00    +0.000 C 
ATOM     27  C   UNL     1      -2.855  14.821  22.378  0.00  0.00    +0.000 C 
ATOM     28  C   UNL     1      -3.909  15.410  23.302  0.00  0.00    +0.000 C 
ATOM     29  C   UNL     1      -4.592  14.189  23.894  0.00  0.00    +0.000 C 
ATOM     30  C   UNL     1      -3.518  13.101  23.949  0.00  0.00    +0.000 C 
ENDBRANCH  24  26
ENDBRANCH  11  22
BRANCH   1  31
ATOM     31  C   UNL     1      -0.181  12.964  18.802  0.00  0.00    +0.000 C 
BRANCH  31  33
ATOM     32  C   UNL     1       2.192  12.583  18.170  0.00  0.00    +0.000 C 
ATOM     33  C   UNL     1       1.274  13.254  18.878  0.00  0.00    +0.000 C 
ENDBRANCH  31  33
ENDBRANCH   1  31
TORSDOF 6
ENDMDL
MODEL 2
REMARK VINA RESULT:      -6.9      0.790      1.114
REMARK  Name = 
REMARK  6 active torsions:
REMARK  status: ('A' for Active; 'I' for Inactive)
REMARK    1  A    between atoms: C_2  and  C_3
REMARK    2  A    between atoms: C_3  and  N_4
REMARK    3  A    between atoms: C_8  and  C_9
REMARK    4  A    between atoms: N_11  and  C_12
REMARK    5  A    between atoms: C_23  and  C_24
REMARK    6  A    between atoms: N_26  and  C_27
REMARK                            x       y       z     vdW  Elec       q    Type
REMARK                         _______ _______ _______ _____ _____    ______ ____
ROOT
ATOM      1  N   UNL     1      -0.469  11.908  19.363  0.00  0.00    +0.000 N 
ATOM      2  C   UNL     1      -0.684  10.724  18.725  0.00  0.00    +0.000 C 
ATOM      3  O   UNL     1      -1.077  10.561  17.584  0.00  0.00    +0.000 OA
ATOM      4  C   UNL     1      -0.250   9.645  19.635  0.00  0.00    +0.000 C 
ATOM      5  C   UNL     1       1.233   9.279  19.811  0.00  0.00    +0.000 C 
ATOM      6  C   UNL     1       1.071   8.532  21.133  0.00  0.00    +0.000 C 
ATOM      7  C   UNL     1       1.296   9.309  22.370  0.00  0.00    +0.000 C 
ATOM      8  C   UNL     1       0.248  10.145  22.452  0.00  0.00    +0.000 C 
ATOM      9  C   UNL     1      -0.620  10.134  21.148  0.00  0.00    +0.000 C 
ATOM     10  O   UNL     1      -0.383   8.650  21.281  0.00  0.00    +0.000 OA
ATOM     11  C   UNL     1       0.005  11.635  20.718  0.00  0.00    +0.000 C 
ENDROOT
BRANCH   5  12
ATOM     12  C   UNL     1       1.926   8.538  18.677  0.00  0.00    +0.000 C 
ATOM     13  O   UNL     1       1.959   9.000  17.540  0.00  0.00    +0.000 OA
ATOM     14  N   UNL     1       2.311   7.241  19.013  0.00  0.00    +0.000 N 
ATOM     15  H   UNL     1       2.549   7.023  19.976  0.00  0.00    +0.000 HD
BRANCH  14  16
ATOM     16  C   UNL     1       2.810   6.327  17.972  0.00  0.00    +0.000 C 
ATOM     17  C   UNL     1       4.329   6.179  18.074  0.00  0.00    +0.000 C 
ATOM     18  C   UNL     1       4.748   5.233  19.197  0.00  0.00    +0.000 C 
ATOM     19  C   UNL     1       4.125   3.856  19.012  0.00  0.00    +0.000 C 
ATOM     20  C   UNL     1       2.604   3.941  18.974  0.00  0.00    +0.000 C 
ATOM     21  C   UNL     1       2.100   4.958  17.949  0.00  0.00    +0.000 C 
ENDBRANCH  14  16
ENDBRANCH   5  12
BRANCH  11  22
ATOM     22  C   UNL     1      -0.287  12.805  21.689  0.00  0.00    +0.000 C 
ATOM     23  O   UNL     1       0.587  13.473  22.234  0.00  0.00    +0.000 OA
ATOM     24  N   UNL     1      -1.658  13.003  21.871  0.00  0.00    +0.000 N 
ATOM     25  H   UNL     1      -2.284  12.265  21.590  0.00  0.00    +0.000 HD
BRANCH  24  26
ATOM     26  C   UNL     1      -2.218  14.090  22.645  0.00  0.00    +0.000 C 
ATOM     27  C   UNL     1      -1.528  14.264  24.000  0.00  0.00    +0.000 C 
ATOM     28  C   UNL     1      -1.797  15.717  24.354  0.00  0.00    +0.000 C 
ATOM     29  C   UNL     1      -1.622  16.449  23.035  0.00  0.00    +0.000 C 
ATOM     30  C   UNL     1      -2.036  15.452  21.951  0.00  0.00    +0.000 C 
ENDBRANCH  24  26
ENDBRANCH  11  22
BRANCH   1  31
ATOM     31  C   UNL     1      -0.103  13.048  18.551  0.00  0.00    +0.000 C 
BRANCH  31  33
ATOM     32  C   UNL     1       2.315  12.667  18.125  0.00  0.00    +0.000 C 
ATOM     33  C   UNL     1       1.338  13.378  18.701  0.00  0.00    +0.000 C 
ENDBRANCH  31  33
ENDBRANCH   1  31
TORSDOF 6
ENDMDL
MODEL 3
REMARK VINA RESULT:      -6.4      1.411      8.181
REMARK  Name = 
REMARK  6 active torsions:
REMARK  status: ('A' for Active; 'I' for Inactive)
REMARK    1  A    between atoms: C_2  and  C_3
REMARK    2  A    between atoms: C_3  and  N_4
REMARK    3  A    between atoms: C_8  and  C_9
REMARK    4  A    between atoms: N_11  and  C_12
REMARK    5  A    between atoms: C_23  and  C_24
REMARK    6  A    between atoms: N_26  and  C_27
REMARK                            x       y       z     vdW  Elec       q    Type
REMARK                         _______ _______ _______ _____ _____    ______ ____
ROOT
ATOM      1  N   UNL     1       1.179  11.625  19.581  0.00  0.00    +0.000 N 
ATOM      2  C   UNL     1       1.421  12.227  20.779  0.00  0.00    +0.000 C 
ATOM      3  O   UNL     1       1.881  13.339  20.966  0.00  0.00    +0.000 OA
ATOM      4  C   UNL     1       0.921  11.327  21.837  0.00  0.00    +0.000 C 
ATOM      5  C   UNL     1      -0.573  11.236  22.188  0.00  0.00    +0.000 C 
ATOM      6  C   UNL     1      -0.500   9.893  22.911  0.00  0.00    +0.000 C 
ATOM      7  C   UNL     1      -0.792   8.686  22.109  0.00  0.00    +0.000 C 
ATOM      8  C   UNL     1       0.257   8.554  21.281  0.00  0.00    +0.000 C 
ATOM      9  C   UNL     1       1.202   9.803  21.323  0.00  0.00    +0.000 C 
ATOM     10  O   UNL     1       0.944   9.657  22.802  0.00  0.00    +0.000 OA
ATOM     11  C   UNL     1       0.620  10.297  19.826  0.00  0.00    +0.000 C 
ENDROOT
BRANCH   5  12
ATOM     12  C   UNL     1      -1.202  12.397  22.943  0.00  0.00    +0.000 C 
ATOM     13  O   UNL     1      -0.513  13.285  23.436  0.00  0.00    +0.000 OA
ATOM     14  N   UNL     1      -2.565  12.229  23.185  0.00  0.00    +0.000 N 
ATOM     15  H   UNL     1      -3.127  11.689  22.533  0.00  0.00    +0.000 HD
BRANCH  14  16
ATOM     16  C   UNL     1      -3.276  13.162  24.075  0.00  0.00    +0.000 C 
ATOM     17  C   UNL     1      -3.710  14.410  23.304  0.00  0.00    +0.000 C 
ATOM     18  C   UNL     1      -4.956  14.168  22.456  0.00  0.00    +0.000 C 
ATOM     19  C   UNL     1      -6.116  13.686  23.316  0.00  0.00    +0.000 C 
ATOM     20  C   UNL     1      -5.758  12.401  24.054  0.00  0.00    +0.000 C 
ATOM     21  C   UNL     1      -4.452  12.523  24.840  0.00  0.00    +0.000 C 
ENDBRANCH  14  16
ENDBRANCH   5  12
BRANCH  11  22
ATOM     22  C   UNL     1       0.863   9.331  18.640  0.00  0.00    +0.000 C 
ATOM     23  O   UNL     1       0.156   9.291  17.637  0.00  0.00    +0.000 OA
ATOM     24  N   UNL     1       1.975   8.513  18.854  0.00  0.00    +0.000 N 
ATOM     25  H   UNL     1       2.336   8.441  19.791  0.00  0.00    +0.000 HD
BRANCH  24  26
ATOM     26  C   UNL     1       2.493   7.588  17.868  0.00  0.00    +0.000 C 
ATOM     27  C   UNL     1       4.008   7.704  17.689  0.00  0.00    +0.000 C 
ATOM     28  C   UNL     1       4.409   6.345  17.141  0.00  0.00    +0.000 C 
ATOM     29  C   UNL     1       3.563   5.369  17.941  0.00  0.00    +0.000 C 
ATOM     30  C   UNL     1       2.272   6.121  18.275  0.00  0.00    +0.000 C 
ENDBRANCH  24  26
ENDBRANCH  11  22
BRANCH   1  31
ATOM     31  C   UNL     1       0.873  12.479  18.454  0.00  0.00    +0.000 C 
BRANCH  31  33
ATOM     32  C   UNL     1      -1.566  12.234  18.048  0.00  0.00    +0.000 C 
ATOM     33  C   UNL     1      -0.533  12.955  18.502  0.00  0.00    +0.000 C 
ENDBRANCH  31  33
ENDBRANCH   1  31
TORSDOF 6
ENDMDL
MODEL 4
REMARK VINA RESULT:      -6.3      0.960      1.376
REMARK  Name = 
REMARK  6 active torsions:
REMARK  status: ('A' for Active; 'I' for Inactive)
REMARK    1  A    between atoms: C_2  and  C_3
REMARK    2  A    between atoms: C_3  and  N_4
REMARK    3  A    between atoms: C_8  and  C_9
REMARK    4  A    between atoms: N_11  and  C_12
REMARK    5  A    between atoms: C_23  and  C_24
REMARK    6  A    between atoms: N_26  and  C_27
REMARK                            x       y       z     vdW  Elec       q    Type
REMARK                         _______ _______ _______ _____ _____    ______ ____
ROOT
ATOM      1  N   UNL     1      -1.048  11.378  20.073  0.00  0.00    +0.000 N 
ATOM      2  C   UNL     1      -1.102  10.199  19.394  0.00  0.00    +0.000 C 
ATOM      3  O   UNL     1      -1.579  10.003  18.290  0.00  0.00    +0.000 OA
ATOM      4  C   UNL     1      -0.374   9.192  20.192  0.00  0.00    +0.000 C 
ATOM      5  C   UNL     1       1.161   9.116  20.198  0.00  0.00    +0.000 C 
ATOM      6  C   UNL     1       1.290   8.305  21.485  0.00  0.00    +0.000 C 
ATOM      7  C   UNL     1       1.497   9.066  22.736  0.00  0.00    +0.000 C 
ATOM      8  C   UNL     1       0.324   9.678  22.970  0.00  0.00    +0.000 C 
ATOM      9  C   UNL     1      -0.662   9.545  21.760  0.00  0.00    +0.000 C 
ATOM     10  O   UNL     1      -0.136   8.132  21.786  0.00  0.00    +0.000 OA
ATOM     11  C   UNL     1      -0.385  11.153  21.355  0.00  0.00    +0.000 C 
ENDROOT
BRANCH   5  12
ATOM     12  C   UNL     1       1.854   8.566  18.960  0.00  0.00    +0.000 C 
ATOM     13  O   UNL     1       1.795   9.151  17.883  0.00  0.00    +0.000 OA
ATOM     14  N   UNL     1       2.355   7.276  19.130  0.00  0.00    +0.000 N 
ATOM     15  H   UNL     1       2.657   6.973  20.052  0.00  0.00    +0.000 HD
BRANCH  14  16
ATOM     16  C   UNL     1       2.873   6.528  17.973  0.00  0.00    +0.000 C 
ATOM     17  C   UNL     1       4.401   6.459  18.020  0.00  0.00    +0.000 C 
ATOM     18  C   UNL     1       4.906   5.409  19.007  0.00  0.00    +0.000 C 
ATOM     19  C   UNL     1       4.356   4.030  18.668  0.00  0.00    +0.000 C 
ATOM     20  C   UNL     1       2.832   4.029  18.676  0.00  0.00    +0.000 C 
ATOM     21  C   UNL     1       2.241   5.132  17.797  0.00  0.00    +0.000 C 
ENDBRANCH  14  16
ENDBRANCH   5  12
BRANCH  11  22
ATOM     22  C   UNL     1      -0.786  12.209  22.416  0.00  0.00    +0.000 C 
ATOM     23  O   UNL     1      -0.021  13.066  22.847  0.00  0.00    +0.000 OA
ATOM     24  N   UNL     1      -2.115  12.062  22.821  0.00  0.00    +0.000 N 
ATOM     25  H   UNL     1      -2.581  11.196  22.607  0.00  0.00    +0.000 HD
BRANCH  24  26
ATOM     26  C   UNL     1      -2.784  12.974  23.725  0.00  0.00    +0.000 C 
ATOM     27  C   UNL     1      -3.161  14.296  23.056  0.00  0.00    +0.000 C 
ATOM     28  C   UNL     1      -4.312  14.810  23.904  0.00  0.00    +0.000 C 
ATOM     29  C   UNL     1      -5.129  13.563  24.199  0.00  0.00    +0.000 C 
ATOM     30  C   UNL     1      -4.123  12.410  24.233  0.00  0.00    +0.000 C 
ENDBRANCH  24  26
ENDBRANCH  11  22
BRANCH   1  31
ATOM     31  C   UNL     1      -0.995  12.595  19.293  0.00  0.00    +0.000 C 
BRANCH  31  33
ATOM     32  C   UNL     1      -3.426  12.877  19.722  0.00  0.00    +0.000 C 
ATOM     33  C   UNL     1      -2.222  13.411  19.479  0.00  0.00    +0.000 C 
ENDBRANCH  31  33
ENDBRANCH   1  31
TORSDOF 6
ENDMDL
MODEL 5
REMARK VINA RESULT:      -6.3      2.581      3.850
REMARK  Name = 
REMARK  6 active torsions:
REMARK  status: ('A' for Active; 'I' for Inactive)
REMARK    1  A    between atoms: C_2  and  C_3
REMARK    2  A    between atoms: C_3  and  N_4
REMARK    3  A    between atoms: C_8  and  C_9
REMARK    4  A    between atoms: N_11  and  C_12
REMARK    5  A    between atoms: C_23  and  C_24
REMARK    6  A    between atoms: N_26  and  C_27
REMARK                            x       y       z     vdW  Elec       q    Type
REMARK                         _______ _______ _______ _____ _____    ______ ____
ROOT
ATOM      1  N   UNL     1      -0.542  12.639  21.220  0.00  0.00    +0.000 N 
ATOM      2  C   UNL     1       0.706  12.228  20.862  0.00  0.00    +0.000 C 
ATOM      3  O   UNL     1       1.747  12.413  21.468  0.00  0.00    +0.000 OA
ATOM      4  C   UNL     1       0.571  11.410  19.640  0.00  0.00    +0.000 C 
ATOM      5  C   UNL     1       0.106   9.945  19.691  0.00  0.00    +0.000 C 
ATOM      6  C   UNL     1      -0.292   9.838  18.221  0.00  0.00    +0.000 C 
ATOM      7  C   UNL     1      -1.710  10.095  17.892  0.00  0.00    +0.000 C 
ATOM      8  C   UNL     1      -1.877  11.415  18.076  0.00  0.00    +0.000 C 
ATOM      9  C   UNL     1      -0.635  12.077  18.765  0.00  0.00    +0.000 C 
ATOM     10  O   UNL     1       0.089  11.187  17.786  0.00  0.00    +0.000 OA
ATOM     11  C   UNL     1      -1.493  12.195  20.205  0.00  0.00    +0.000 C 
ENDROOT
BRANCH   5  12
ATOM     12  C   UNL     1       1.079   8.904  20.224  0.00  0.00    +0.000 C 
ATOM     13  O   UNL     1       1.636   9.048  21.308  0.00  0.00    +0.000 OA
ATOM     14  N   UNL     1       1.413   7.926  19.289  0.00  0.00    +0.000 N 
ATOM     15  H   UNL     1       0.740   7.666  18.573  0.00  0.00    +0.000 HD
BRANCH  14  16
ATOM     16  C   UNL     1       2.491   6.967  19.579  0.00  0.00    +0.000 C 
ATOM     17  C   UNL     1       2.053   5.980  20.663  0.00  0.00    +0.000 C 
ATOM     18  C   UNL     1       1.137   4.886  20.120  0.00  0.00    +0.000 C 
ATOM     19  C   UNL     1       1.814   4.117  18.993  0.00  0.00    +0.000 C 
ATOM     20  C   UNL     1       2.210   5.048  17.853  0.00  0.00    +0.000 C 
ATOM     21  C   UNL     1       3.037   6.242  18.332  0.00  0.00    +0.000 C 
ENDBRANCH  14  16
ENDBRANCH   5  12
BRANCH  11  22
ATOM     22  C   UNL     1      -2.771  13.070  20.175  0.00  0.00    +0.000 C 
ATOM     23  O   UNL     1      -2.758  14.297  20.215  0.00  0.00    +0.000 OA
ATOM     24  N   UNL     1      -3.932  12.296  20.102  0.00  0.00    +0.000 N 
ATOM     25  H   UNL     1      -3.862  11.317  20.324  0.00  0.00    +0.000 HD
BRANCH  24  26
ATOM     26  C   UNL     1      -5.261  12.853  19.958  0.00  0.00    +0.000 C 
ATOM     27  C   UNL     1      -5.863  12.589  18.577  0.00  0.00    +0.000 C 
ATOM     28  C   UNL     1      -7.361  12.679  18.817  0.00  0.00    +0.000 C 
ATOM     29  C   UNL     1      -7.556  11.978  20.151  0.00  0.00    +0.000 C 
ATOM     30  C   UNL     1      -6.265  12.220  20.936  0.00  0.00    +0.000 C 
ENDBRANCH  24  26
ENDBRANCH  11  22
BRANCH   1  31
ATOM     31  C   UNL     1      -0.816  12.786  22.633  0.00  0.00    +0.000 C 
BRANCH  31  33
ATOM     32  C   UNL     1      -0.987  10.386  23.252  0.00  0.00    +0.000 C 
ATOM     33  C   UNL     1      -1.537  11.604  23.170  0.00  0.00    +0.000 C 
ENDBRANCH  31  33
ENDBRANCH   1  31
TORSDOF 6
ENDMDL
MODEL 6
REMARK VINA RESULT:      -6.3      1.700      2.311
REMARK  Name = 
REMARK  6 active torsions:
REMARK  status: ('A' for Active; 'I' for Inactive)
REMARK    1  A    between atoms: C_2  and  C_3
REMARK    2  A    between atoms: C_3  and  N_4
REMARK    3  A    between atoms: C_8  and  C_9
REMARK    4  A    between atoms: N_11  and  C_12
REMARK    5  A    between atoms: C_23  and  C_24
REMARK    6  A    between atoms: N_26  and  C_27
REMARK                            x       y       z     vdW  Elec       q    Type
REMARK                         _______ _______ _______ _____ _____    ______ ____
ROOT
ATOM      1  N   UNL     1       1.351  11.287  18.977  0.00  0.00    +0.000 N 
ATOM      2  C   UNL     1       1.027  10.081  18.432  0.00  0.00    +0.000 C 
ATOM      3  O   UNL     1       1.142   9.742  17.267  0.00  0.00    +0.000 OA
ATOM      4  C   UNL     1       0.604   9.195  19.535  0.00  0.00    +0.000 C 
ATOM      5  C   UNL     1       1.621   8.503  20.457  0.00  0.00    +0.000 C 
ATOM      6  C   UNL     1       0.644   8.191  21.588  0.00  0.00    +0.000 C 
ATOM      7  C   UNL     1       0.570   9.170  22.694  0.00  0.00    +0.000 C 
ATOM      8  C   UNL     1      -0.033  10.248  22.166  0.00  0.00    +0.000 C 
ATOM      9  C   UNL     1      -0.185  10.136  20.611  0.00  0.00    +0.000 C 
ATOM     10  O   UNL     1      -0.580   8.729  20.984  0.00  0.00    +0.000 OA
ATOM     11  C   UNL     1       1.055  11.252  20.406  0.00  0.00    +0.000 C 
ENDROOT
BRANCH   5  12
ATOM     12  C   UNL     1       2.422   7.339  19.892  0.00  0.00    +0.000 C 
ATOM     13  O   UNL     1       2.937   7.400  18.780  0.00  0.00    +0.000 OA
ATOM     14  N   UNL     1       2.324   6.176  20.654  0.00  0.00    +0.000 N 
ATOM     15  H   UNL     1       2.175   6.244  21.657  0.00  0.00    +0.000 HD
BRANCH  14  16
ATOM     16  C   UNL     1       2.872   4.910  20.140  0.00  0.00    +0.000 C 
ATOM     17  C   UNL     1       2.442   3.741  21.028  0.00  0.00    +0.000 C 
ATOM     18  C   UNL     1       1.004   3.302  20.758  0.00  0.00    +0.000 C 
ATOM     19  C   UNL     1       0.817   2.914  19.297  0.00  0.00    +0.000 C 
ATOM     20  C   UNL     1       1.168   4.071  18.370  0.00  0.00    +0.000 C 
ATOM     21  C   UNL     1       2.555   4.648  18.654  0.00  0.00    +0.000 C 
ENDBRANCH  14  16
ENDBRANCH   5  12
BRANCH  11  22
ATOM     22  C   UNL     1       0.811  12.667  20.989  0.00  0.00    +0.000 C 
ATOM     23  O   UNL     1       1.660  13.309  21.599  0.00  0.00    +0.000 OA
ATOM     24  N   UNL     1      -0.488  13.116  20.739  0.00  0.00    +0.000 N 
ATOM     25  H   UNL     1      -1.178  12.438  20.460  0.00  0.00    +0.000 HD
BRANCH  24  26
ATOM     26  C   UNL     1      -0.960  14.442  21.081  0.00  0.00    +0.000 C 
ATOM     27  C   UNL     1      -0.896  15.412  19.901  0.00  0.00    +0.000 C 
ATOM     28  C   UNL     1      -1.933  16.466  20.248  0.00  0.00    +0.000 C 
ATOM     29  C   UNL     1      -3.084  15.663  20.829  0.00  0.00    +0.000 C 
ATOM     30  C   UNL     1      -2.442  14.443  21.493  0.00  0.00    +0.000 C 
ENDBRANCH  24  26
ENDBRANCH  11  22
BRANCH   1  31
ATOM     31  C   UNL     1       2.416  12.038  18.349  0.00  0.00    +0.000 C 
BRANCH  31  33
ATOM     32  C   UNL     1       2.856  14.465  18.046  0.00  0.00    +0.000 C 
ATOM     33  C   UNL     1       1.999  13.436  18.068  0.00  0.00    +0.000 C 
ENDBRANCH  31  33
ENDBRANCH   1  31
TORSDOF 6
ENDMDL
MODEL 7
REMARK VINA RESULT:      -6.3      1.457      1.895
REMARK  Name = 
REMARK  6 active torsions:
REMARK  status: ('A' for Active; 'I' for Inactive)
REMARK    1  A    between atoms: C_2  and  C_3
REMARK    2  A    between atoms: C_3  and  N_4
REMARK    3  A    between atoms: C_8  and  C_9
REMARK    4  A    between atoms: N_11  and  C_12
REMARK    5  A    between atoms: C_23  and  C_24
REMARK    6  A    between atoms: N_26  and  C_27
REMARK                            x       y       z     vdW  Elec       q    Type
REMARK                         _______ _______ _______ _____ _____    ______ ____
ROOT
ATOM      1  N   UNL     1      -0.830  11.645  19.592  0.00  0.00    +0.000 N 
ATOM      2  C   UNL     1      -0.948  10.438  18.972  0.00  0.00    +0.000 C 
ATOM      3  O   UNL     1      -1.370  10.222  17.849  0.00  0.00    +0.000 OA
ATOM      4  C   UNL     1      -0.365   9.420  19.868  0.00  0.00    +0.000 C 
ATOM      5  C   UNL     1       1.154   9.211  19.982  0.00  0.00    +0.000 C 
ATOM      6  C   UNL     1       1.127   8.466  21.315  0.00  0.00    +0.000 C 
ATOM      7  C   UNL     1       1.322   9.277  22.536  0.00  0.00    +0.000 C 
ATOM      8  C   UNL     1       0.197  10.000  22.658  0.00  0.00    +0.000 C 
ATOM      9  C   UNL     1      -0.719   9.885  21.393  0.00  0.00    +0.000 C 
ATOM     10  O   UNL     1      -0.325   8.436  21.526  0.00  0.00    +0.000 OA
ATOM     11  C   UNL     1      -0.273  11.437  20.925  0.00  0.00    +0.000 C 
ENDROOT
BRANCH   5  12
ATOM     12  C   UNL     1       1.871   8.533  18.824  0.00  0.00    +0.000 C 
ATOM     13  O   UNL     1       1.898   9.040  17.707  0.00  0.00    +0.000 OA
ATOM     14  N   UNL     1       2.285   7.233  19.111  0.00  0.00    +0.000 N 
ATOM     15  H   UNL     1       2.524   6.983  20.067  0.00  0.00    +0.000 HD
BRANCH  14  16
ATOM     16  C   UNL     1       2.812   6.374  18.038  0.00  0.00    +0.000 C 
ATOM     17  C   UNL     1       4.332   6.244  18.155  0.00  0.00    +0.000 C 
ATOM     18  C   UNL     1       4.751   5.256  19.241  0.00  0.00    +0.000 C 
ATOM     19  C   UNL     1       4.152   3.879  18.987  0.00  0.00    +0.000 C 
ATOM     20  C   UNL     1       2.630   3.943  18.931  0.00  0.00    +0.000 C 
ATOM     21  C   UNL     1       2.124   4.996  17.946  0.00  0.00    +0.000 C 
ENDBRANCH  14  16
ENDBRANCH   5  12
BRANCH  11  22
ATOM     22  C   UNL     1      -0.642  12.582  21.901  0.00  0.00    +0.000 C 
ATOM     23  O   UNL     1      -1.559  12.516  22.714  0.00  0.00    +0.000 OA
ATOM     24  N   UNL     1       0.189  13.694  21.739  0.00  0.00    +0.000 N 
ATOM     25  H   UNL     1       0.738  13.755  20.898  0.00  0.00    +0.000 HD
BRANCH  24  26
ATOM     26  C   UNL     1       0.136  14.867  22.586  0.00  0.00    +0.000 C 
ATOM     27  C   UNL     1       1.360  15.769  22.420  0.00  0.00    +0.000 C 
ATOM     28  C   UNL     1       0.862  17.133  22.867  0.00  0.00    +0.000 C 
ATOM     29  C   UNL     1      -0.537  17.217  22.280  0.00  0.00    +0.000 C 
ATOM     30  C   UNL     1      -1.055  15.778  22.242  0.00  0.00    +0.000 C 
ENDBRANCH  24  26
ENDBRANCH  11  22
BRANCH   1  31
ATOM     31  C   UNL     1      -0.618  12.807  18.756  0.00  0.00    +0.000 C 
BRANCH  31  33
ATOM     32  C   UNL     1       1.488  14.120  18.643  0.00  0.00    +0.000 C 
ATOM     33  C   UNL     1       0.819  12.981  18.425  0.00  0.00    +0.000 C 
ENDBRANCH  31  33
ENDBRANCH   1  31
TORSDOF 6
ENDMDL
MODEL 8
REMARK VINA RESULT:      -6.3      3.058      7.935
REMARK  Name = 
REMARK  6 active torsions:
REMARK  status: ('A' for Active; 'I' for Inactive)
REMARK    1  A    between atoms: C_2  and  C_3
REMARK    2  A    between atoms: C_3  and  N_4
REMARK    3  A    between atoms: C_8  and  C_9
REMARK    4  A    between atoms: N_11  and  C_12
REMARK    5  A    between atoms: C_23  and  C_24
REMARK    6  A    between atoms: N_26  and  C_27
REMARK                            x       y       z     vdW  Elec       q    Type
REMARK                         _______ _______ _______ _____ _____    ______ ____
ROOT
ATOM      1  N   UNL     1      -0.747  12.811  19.480  0.00  0.00    +0.000 N 
ATOM      2  C   UNL     1      -1.427  13.706  20.248  0.00  0.00    +0.000 C 
ATOM      3  O   UNL     1      -1.936  14.753  19.886  0.00  0.00    +0.000 OA
ATOM      4  C   UNL     1      -1.542  13.132  21.603  0.00  0.00    +0.000 C 
ATOM      5  C   UNL     1      -2.583  12.053  21.943  0.00  0.00    +0.000 C 
ATOM      6  C   UNL     1      -1.907  11.556  23.219  0.00  0.00    +0.000 C 
ATOM      7  C   UNL     1      -1.002  10.395  23.087  0.00  0.00    +0.000 C 
ATOM      8  C   UNL     1       0.072  10.863  22.429  0.00  0.00    +0.000 C 
ATOM      9  C   UNL     1      -0.158  12.311  21.879  0.00  0.00    +0.000 C 
ATOM     10  O   UNL     1      -0.770  12.483  23.247  0.00  0.00    +0.000 OA
ATOM     11  C   UNL     1      -0.318  11.698  20.323  0.00  0.00    +0.000 C 
ENDROOT
BRANCH   5  12
ATOM     12  C   UNL     1      -4.041  12.474  22.049  0.00  0.00    +0.000 C 
ATOM     13  O   UNL     1      -4.598  12.571  23.138  0.00  0.00    +0.000 OA
ATOM     14  N   UNL     1      -4.696  12.523  20.820  0.00  0.00    +0.000 N 
ATOM     15  H   UNL     1      -4.170  12.742  19.979  0.00  0.00    +0.000 HD
BRANCH  14  16
ATOM     16  C   UNL     1      -6.155  12.716  20.770  0.00  0.00    +0.000 C 
ATOM     17  C   UNL     1      -6.503  13.953  19.939  0.00  0.00    +0.000 C 
ATOM     18  C   UNL     1      -6.421  13.688  18.437  0.00  0.00    +0.000 C 
ATOM     19  C   UNL     1      -7.340  12.542  18.034  0.00  0.00    +0.000 C 
ATOM     20  C   UNL     1      -6.989  11.264  18.785  0.00  0.00    +0.000 C 
ATOM     21  C   UNL     1      -6.935  11.471  20.300  0.00  0.00    +0.000 C 
ENDBRANCH  14  16
ENDBRANCH   5  12
BRANCH  11  22
ATOM     22  C   UNL     1       0.917  10.964  19.742  0.00  0.00    +0.000 C 
ATOM     23  O   UNL     1       1.838  11.532  19.164  0.00  0.00    +0.000 OA
ATOM     24  N   UNL     1       0.850   9.584  19.954  0.00  0.00    +0.000 N 
ATOM     25  H   UNL     1      -0.040   9.187  20.206  0.00  0.00    +0.000 HD
BRANCH  24  26
ATOM     26  C   UNL     1       1.915   8.666  19.607  0.00  0.00    +0.000 C 
ATOM     27  C   UNL     1       1.765   7.306  20.291  0.00  0.00    +0.000 C 
ATOM     28  C   UNL     1       2.542   6.364  19.387  0.00  0.00    +0.000 C 
ATOM     29  C   UNL     1       2.183   6.830  17.986  0.00  0.00    +0.000 C 
ATOM     30  C   UNL     1       1.929   8.334  18.105  0.00  0.00    +0.000 C 
ENDBRANCH  24  26
ENDBRANCH  11  22
BRANCH   1  31
ATOM     31  C   UNL     1      -1.101  12.727  18.080  0.00  0.00    +0.000 C 
BRANCH  31  33
ATOM     32  C   UNL     1      -3.245  11.569  17.596  0.00  0.00    +0.000 C 
ATOM     33  C   UNL     1      -1.923  11.522  17.801  0.00  0.00    +0.000 C 
ENDBRANCH  31  33
ENDBRANCH   1  31
TORSDOF 6
ENDMDL
MODEL 9
REMARK VINA RESULT:      -6.2      3.263      4.564
REMARK  Name = 
REMARK  6 active torsions:
REMARK  status: ('A' for Active; 'I' for Inactive)
REMARK    1  A    between atoms: C_2  and  C_3
REMARK    2  A    between atoms: C_3  and  N_4
REMARK    3  A    between atoms: C_8  and  C_9
REMARK    4  A    between atoms: N_11  and  C_12
REMARK    5  A    between atoms: C_23  and  C_24
REMARK    6  A    between atoms: N_26  and  C_27
REMARK                            x       y       z     vdW  Elec       q    Type
REMARK                         _______ _______ _______ _____ _____    ______ ____
ROOT
ATOM      1  N   UNL     1      -2.444  13.099  20.205  0.00  0.00    +0.000 N 
ATOM      2  C   UNL     1      -1.233  13.138  19.584  0.00  0.00    +0.000 C 
ATOM      3  O   UNL     1      -0.288  13.859  19.853  0.00  0.00    +0.000 OA
ATOM      4  C   UNL     1      -1.217  12.061  18.574  0.00  0.00    +0.000 C 
ATOM      5  C   UNL     1      -0.971  10.593  18.957  0.00  0.00    +0.000 C 
ATOM      6  C   UNL     1      -1.544   9.983  17.679  0.00  0.00    +0.000 C 
ATOM      7  C   UNL     1      -2.965   9.573  17.714  0.00  0.00    +0.000 C 
ATOM      8  C   UNL     1      -3.658  10.723  17.747  0.00  0.00    +0.000 C 
ATOM      9  C   UNL     1      -2.732  11.965  17.972  0.00  0.00    +0.000 C 
ATOM     10  O   UNL     1      -1.883  11.222  16.971  0.00  0.00    +0.000 OA
ATOM     11  C   UNL     1      -3.272  12.084  19.560  0.00  0.00    +0.000 C 
ENDROOT
BRANCH   5  12
ATOM     12  C   UNL     1       0.440  10.182  19.348  0.00  0.00    +0.000 C 
ATOM     13  O   UNL     1       1.329  11.016  19.494  0.00  0.00    +0.000 OA
ATOM     14  N   UNL     1       0.649   8.804  19.311  0.00  0.00    +0.000 N 
ATOM     15  H   UNL     1      -0.127   8.175  19.495  0.00  0.00    +0.000 HD
BRANCH  14  16
ATOM     16  C   UNL     1       2.008   8.260  19.466  0.00  0.00    +0.000 C 
ATOM     17  C   UNL     1       2.087   7.361  20.701  0.00  0.00    +0.000 C 
ATOM     18  C   UNL     1       1.491   5.977  20.454  0.00  0.00    +0.000 C 
ATOM     19  C   UNL     1       2.186   5.284  19.289  0.00  0.00    +0.000 C 
ATOM     20  C   UNL     1       2.075   6.110  18.013  0.00  0.00    +0.000 C 
ATOM     21  C   UNL     1       2.546   7.552  18.206  0.00  0.00    +0.000 C 
ENDBRANCH  14  16
ENDBRANCH   5  12
BRANCH  11  22
ATOM     22  C   UNL     1      -4.786  12.351  19.753  0.00  0.00    +0.000 C 
ATOM     23  O   UNL     1      -5.502  11.701  20.508  0.00  0.00    +0.000 OA
ATOM     24  N   UNL     1      -5.232  13.413  18.963  0.00  0.00    +0.000 N 
ATOM     25  H   UNL     1      -4.646  13.717  18.203  0.00  0.00    +0.000 HD
BRANCH  24  26
ATOM     26  C   UNL     1      -6.578  13.945  19.018  0.00  0.00    +0.000 C 
ATOM     27  C   UNL     1      -6.633  15.344  19.634  0.00  0.00    +0.000 C 
ATOM     28  C   UNL     1      -7.914  15.933  19.068  0.00  0.00    +0.000 C 
ATOM     29  C   UNL     1      -7.916  15.470  17.621  0.00  0.00    +0.000 C 
ATOM     30  C   UNL     1      -7.190  14.123  17.618  0.00  0.00    +0.000 C 
ENDBRANCH  24  26
ENDBRANCH  11  22
BRANCH   1  31
ATOM     31  C   UNL     1      -2.490  13.467  21.604  0.00  0.00    +0.000 C 
BRANCH  31  33
ATOM     32  C   UNL     1      -1.269  11.685  22.831  0.00  0.00    +0.000 C 
ATOM     33  C   UNL     1      -2.421  12.270  22.480  0.00  0.00    +0.000 C 
ENDBRANCH  31  33
ENDBRANCH   1  31
TORSDOF 6
ENDMDL
