MODEL 1
REMARK VINA RESULT:      -7.3      0.000      0.000
REMARK  Name = 
REMARK  5 active torsions:
REMARK  status: ('A' for Active; 'I' for Inactive)
REMARK    1  A    between atoms: C_5  and  N_6
REMARK    2  A    between atoms: N_6  and  C_7
REMARK    3  A    between atoms: C_7  and  C_8
REMARK    4  A    between atoms: C_8  and  C_9
REMARK    5  A    between atoms: C_9  and  N_10
REMARK                            x       y       z     vdW  Elec       q    Type
REMARK                         _______ _______ _______ _____ _____    ______ ____
ROOT
ATOM      1  O   UNL     1       2.339   9.647  17.405  0.00  0.00    +0.000 OA
ATOM      2  C   UNL     1       2.209   8.779  18.262  0.00  0.00    +0.000 C 
ATOM      3  C   UNL     1       2.851   7.442  18.157  0.00  0.00    +0.000 C 
ATOM      4 CL   UNL     1       3.826   7.192  16.734  0.00  0.00    +0.000 Cl
ATOM      5  C   UNL     1       2.707   6.453  19.062  0.00  0.00    +0.000 C 
ATOM      6  C   UNL     1       1.855   6.739  20.277  0.00  0.00    +0.000 C 
ATOM      7  O   UNL     1       1.681   5.918  21.174  0.00  0.00    +0.000 OA
ATOM      8  C   UNL     1       1.217   8.059  20.414  0.00  0.00    +0.000 A 
ATOM      9  C   UNL     1       0.434   8.320  21.549  0.00  0.00    +0.000 A 
ATOM     10  C   UNL     1      -0.167   9.565  21.716  0.00  0.00    +0.000 A 
ATOM     11  C   UNL     1       0.008  10.555  20.753  0.00  0.00    +0.000 A 
ATOM     12  C   UNL     1       0.781  10.296  19.618  0.00  0.00    +0.000 A 
ATOM     13  C   UNL     1       1.389   9.044  19.451  0.00  0.00    +0.000 A 
ENDROOT
BRANCH   5  14
ATOM     14  N   UNL     1       3.302   5.192  18.915  0.00  0.00    +0.000 N 
ATOM     15  H   UNL     1       4.093   5.041  19.542  0.00  0.00    +0.000 HD
BRANCH  14  16
ATOM     16  C   UNL     1       2.757   3.999  18.291  0.00  0.00    +0.000 C 
BRANCH  16  17
ATOM     17  C   UNL     1       3.735   3.495  17.232  0.00  0.00    +0.000 C 
BRANCH  17  18
ATOM     18  C   UNL     1       5.178   3.596  17.718  0.00  0.00    +0.000 C 
BRANCH  18  19
ATOM     19  N   UNL     1       6.017   4.313  16.772  0.00  0.00    +0.000 N 
ATOM     20  C   UNL     1       6.083   3.981  15.436  0.00  0.00    +0.000 A 
ATOM     21  C   UNL     1       6.959   4.877  14.873  0.00  0.00    +0.000 A 
ATOM     22  N   UNL     1       7.434   5.746  15.818  0.00  0.00    +0.000 NA
ATOM     23  C   UNL     1       6.850   5.389  16.948  0.00  0.00    +0.000 A 
ATOM     24  N   UNL     1       7.072   6.090  18.187  0.00  0.00    +0.000 N 
ATOM     25  O   UNL     1       6.410   5.740  19.173  0.00  0.00    +0.000 OA
ATOM     26  O   UNL     1       7.910   7.002  18.183  0.00  0.00    +0.000 OA
ENDBRANCH  18  19
ENDBRANCH  17  18
ENDBRANCH  16  17
ENDBRANCH  14  16
ENDBRANCH   5  14
TORSDOF 5
ENDMDL
MODEL 2
REMARK VINA RESULT:      -7.0      1.609      1.903
REMARK  Name = 
REMARK  5 active torsions:
REMARK  status: ('A' for Active; 'I' for Inactive)
REMARK    1  A    between atoms: C_5  and  N_6
REMARK    2  A    between atoms: N_6  and  C_7
REMARK    3  A    between atoms: C_7  and  C_8
REMARK    4  A    between atoms: C_8  and  C_9
REMARK    5  A    between atoms: C_9  and  N_10
REMARK                            x       y       z     vdW  Elec       q    Type
REMARK                         _______ _______ _______ _____ _____    ______ ____
ROOT
ATOM      1  O   UNL     1       2.223   9.765  17.439  0.00  0.00    +0.000 OA
ATOM      2  C   UNL     1       2.078   8.934  18.329  0.00  0.00    +0.000 C 
ATOM      3  C   UNL     1       2.718   7.592  18.290  0.00  0.00    +0.000 C 
ATOM      4 CL   UNL     1       3.714   7.282  16.894  0.00  0.00    +0.000 Cl
ATOM      5  C   UNL     1       2.557   6.642  19.233  0.00  0.00    +0.000 C 
ATOM      6  C   UNL     1       1.688   6.980  20.422  0.00  0.00    +0.000 C 
ATOM      7  O   UNL     1       1.497   6.199  21.349  0.00  0.00    +0.000 OA
ATOM      8  C   UNL     1       1.051   8.306  20.494  0.00  0.00    +0.000 A 
ATOM      9  C   UNL     1       0.251   8.617  21.605  0.00  0.00    +0.000 A 
ATOM     10  C   UNL     1      -0.349   9.868  21.711  0.00  0.00    +0.000 A 
ATOM     11  C   UNL     1      -0.156  10.817  20.709  0.00  0.00    +0.000 A 
ATOM     12  C   UNL     1       0.634  10.510  19.599  0.00  0.00    +0.000 A 
ATOM     13  C   UNL     1       1.240   9.250  19.494  0.00  0.00    +0.000 A 
ENDROOT
BRANCH   5  14
ATOM     14  N   UNL     1       3.151   5.375  19.148  0.00  0.00    +0.000 N 
ATOM     15  H   UNL     1       3.960   5.264  19.761  0.00  0.00    +0.000 HD
BRANCH  14  16
ATOM     16  C   UNL     1       2.592   4.145  18.615  0.00  0.00    +0.000 C 
BRANCH  16  17
ATOM     17  C   UNL     1       3.718   3.288  18.041  0.00  0.00    +0.000 C 
BRANCH  17  18
ATOM     18  C   UNL     1       4.270   3.891  16.752  0.00  0.00    +0.000 C 
BRANCH  18  19
ATOM     19  N   UNL     1       5.647   4.329  16.908  0.00  0.00    +0.000 N 
ATOM     20  C   UNL     1       6.263   4.421  18.138  0.00  0.00    +0.000 A 
ATOM     21  C   UNL     1       7.542   4.854  17.881  0.00  0.00    +0.000 A 
ATOM     22  N   UNL     1       7.731   5.031  16.537  0.00  0.00    +0.000 NA
ATOM     23  C   UNL     1       6.580   4.705  15.976  0.00  0.00    +0.000 A 
ATOM     24  N   UNL     1       6.381   4.734  14.548  0.00  0.00    +0.000 N 
ATOM     25  O   UNL     1       5.299   4.323  14.109  0.00  0.00    +0.000 OA
ATOM     26  O   UNL     1       7.311   5.164  13.853  0.00  0.00    +0.000 OA
ENDBRANCH  18  19
ENDBRANCH  17  18
ENDBRANCH  16  17
ENDBRANCH  14  16
ENDBRANCH   5  14
TORSDOF 5
ENDMDL
MODEL 3
REMARK VINA RESULT:      -6.8      1.471      2.442
REMARK  Name = 
REMARK  5 active torsions:
REMARK  status: ('A' for Active; 'I' for Inactive)
REMARK    1  A    between atoms: C_5  and  N_6
REMARK    2  A    between atoms: N_6  and  C_7
REMARK    3  A    between atoms: C_7  and  C_8
REMARK    4  A    between atoms: C_8  and  C_9
REMARK    5  A    between atoms: C_9  and  N_10
REMARK                            x       y       z     vdW  Elec       q    Type
REMARK                         _______ _______ _______ _____ _____    ______ ____
ROOT
ATOM      1  O   UNL     1       0.861   8.058  21.947  0.00  0.00    +0.000 OA
ATOM      2  C   UNL     1       1.301   8.083  20.803  0.00  0.00    +0.000 C 
ATOM      3  C   UNL     1       1.863   6.882  20.130  0.00  0.00    +0.000 C 
ATOM      4 CL   UNL     1       1.835   5.417  21.073  0.00  0.00    +0.000 Cl
ATOM      5  C   UNL     1       2.384   6.878  18.886  0.00  0.00    +0.000 C 
ATOM      6  C   UNL     1       2.368   8.180  18.119  0.00  0.00    +0.000 C 
ATOM      7  O   UNL     1       2.792   8.280  16.971  0.00  0.00    +0.000 OA
ATOM      8  C   UNL     1       1.806   9.383  18.755  0.00  0.00    +0.000 A 
ATOM      9  C   UNL     1       1.787  10.587  18.034  0.00  0.00    +0.000 A 
ATOM     10  C   UNL     1       1.246  11.737  18.602  0.00  0.00    +0.000 A 
ATOM     11  C   UNL     1       0.721  11.694  19.892  0.00  0.00    +0.000 A 
ATOM     12  C   UNL     1       0.745  10.499  20.615  0.00  0.00    +0.000 A 
ATOM     13  C   UNL     1       1.288   9.340  20.042  0.00  0.00    +0.000 A 
ENDROOT
BRANCH   5  14
ATOM     14  N   UNL     1       2.934   5.732  18.294  0.00  0.00    +0.000 N 
ATOM     15  H   UNL     1       3.912   5.578  18.543  0.00  0.00    +0.000 HD
BRANCH  14  16
ATOM     16  C   UNL     1       2.247   4.596  17.706  0.00  0.00    +0.000 C 
BRANCH  16  17
ATOM     17  C   UNL     1       3.279   3.632  17.123  0.00  0.00    +0.000 C 
BRANCH  17  18
ATOM     18  C   UNL     1       4.571   3.647  17.936  0.00  0.00    +0.000 C 
BRANCH  18  19
ATOM     19  N   UNL     1       5.693   4.138  17.154  0.00  0.00    +0.000 N 
ATOM     20  C   UNL     1       5.804   3.924  15.797  0.00  0.00    +0.000 A 
ATOM     21  C   UNL     1       6.975   4.537  15.420  0.00  0.00    +0.000 A 
ATOM     22  N   UNL     1       7.585   5.118  16.498  0.00  0.00    +0.000 NA
ATOM     23  C   UNL     1       6.793   4.868  17.526  0.00  0.00    +0.000 A 
ATOM     24  N   UNL     1       7.080   5.344  18.856  0.00  0.00    +0.000 N 
ATOM     25  O   UNL     1       6.233   5.139  19.736  0.00  0.00    +0.000 OA
ATOM     26  O   UNL     1       8.154   5.934  19.030  0.00  0.00    +0.000 OA
ENDBRANCH  18  19
ENDBRANCH  17  18
ENDBRANCH  16  17
ENDBRANCH  14  16
ENDBRANCH   5  14
TORSDOF 5
ENDMDL
MODEL 4
REMARK VINA RESULT:      -6.8      3.720      7.501
REMARK  Name = 
REMARK  5 active torsions:
REMARK  status: ('A' for Active; 'I' for Inactive)
REMARK    1  A    between atoms: C_5  and  N_6
REMARK    2  A    between atoms: N_6  and  C_7
REMARK    3  A    between atoms: C_7  and  C_8
REMARK    4  A    between atoms: C_8  and  C_9
REMARK    5  A    between atoms: C_9  and  N_10
REMARK                            x       y       z     vdW  Elec       q    Type
REMARK                         _______ _______ _______ _____ _____    ______ ____
ROOT
ATOM      1  O   UNL     1       5.078   4.039  17.460  0.00  0.00    +0.000 OA
ATOM      2  C   UNL     1       4.293   4.737  18.093  0.00  0.00    +0.000 C 
ATOM      3  C   UNL     1       3.972   6.138  17.710  0.00  0.00    +0.000 C 
ATOM      4 CL   UNL     1       4.773   6.721  16.276  0.00  0.00    +0.000 Cl
ATOM      5  C   UNL     1       3.140   6.946  18.398  0.00  0.00    +0.000 C 
ATOM      6  C   UNL     1       2.472   6.374  19.626  0.00  0.00    +0.000 C 
ATOM      7  O   UNL     1       1.677   7.015  20.309  0.00  0.00    +0.000 OA
ATOM      8  C   UNL     1       2.761   4.986  20.023  0.00  0.00    +0.000 A 
ATOM      9  C   UNL     1       2.130   4.459  21.161  0.00  0.00    +0.000 A 
ATOM     10  C   UNL     1       2.369   3.144  21.550  0.00  0.00    +0.000 A 
ATOM     11  C   UNL     1       3.239   2.348  20.809  0.00  0.00    +0.000 A 
ATOM     12  C   UNL     1       3.874   2.871  19.681  0.00  0.00    +0.000 A 
ATOM     13  C   UNL     1       3.631   4.194  19.287  0.00  0.00    +0.000 A 
ENDROOT
BRANCH   5  14
ATOM     14  N   UNL     1       2.885   8.273  18.024  0.00  0.00    +0.000 N 
ATOM     15  H   UNL     1       3.720   8.777  17.723  0.00  0.00    +0.000 HD
BRANCH  14  16
ATOM     16  C   UNL     1       1.616   8.889  17.674  0.00  0.00    +0.000 C 
BRANCH  16  17
ATOM     17  C   UNL     1       1.480  10.215  18.418  0.00  0.00    +0.000 C 
BRANCH  17  18
ATOM     18  C   UNL     1       0.777  10.027  19.760  0.00  0.00    +0.000 C 
BRANCH  18  19
ATOM     19  N   UNL     1      -0.370  10.908  19.896  0.00  0.00    +0.000 N 
ATOM     20  C   UNL     1      -1.116  11.330  18.816  0.00  0.00    +0.000 A 
ATOM     21  C   UNL     1      -2.104  12.130  19.337  0.00  0.00    +0.000 A 
ATOM     22  N   UNL     1      -1.989  12.214  20.698  0.00  0.00    +0.000 NA
ATOM     23  C   UNL     1      -0.943  11.469  21.009  0.00  0.00    +0.000 A 
ATOM     24  N   UNL     1      -0.507  11.278  22.369  0.00  0.00    +0.000 N 
ATOM     25  O   UNL     1       0.426  10.488  22.569  0.00  0.00    +0.000 OA
ATOM     26  O   UNL     1      -1.099  11.913  23.251  0.00  0.00    +0.000 OA
ENDBRANCH  18  19
ENDBRANCH  17  18
ENDBRANCH  16  17
ENDBRANCH  14  16
ENDBRANCH   5  14
TORSDOF 5
ENDMDL
MODEL 5
REMARK VINA RESULT:      -6.8      2.827      4.377
REMARK  Name = 
REMARK  5 active torsions:
REMARK  status: ('A' for Active; 'I' for Inactive)
REMARK    1  A    between atoms: C_5  and  N_6
REMARK    2  A    between atoms: N_6  and  C_7
REMARK    3  A    between atoms: C_7  and  C_8
REMARK    4  A    between atoms: C_8  and  C_9
REMARK    5  A    between atoms: C_9  and  N_10
REMARK                            x       y       z     vdW  Elec       q    Type
REMARK                         _______ _______ _______ _____ _____    ______ ____
ROOT
ATOM      1  O   UNL     1       0.686   8.124  22.088  0.00  0.00    +0.000 OA
ATOM      2  C   UNL     1       1.025   8.483  20.966  0.00  0.00    +0.000 C 
ATOM      3  C   UNL     1       1.765   7.598  20.027  0.00  0.00    +0.000 C 
ATOM      4 CL   UNL     1       2.103   5.996  20.621  0.00  0.00    +0.000 Cl
ATOM      5  C   UNL     1       2.181   7.967  18.798  0.00  0.00    +0.000 C 
ATOM      6  C   UNL     1       1.847   9.368  18.341  0.00  0.00    +0.000 C 
ATOM      7  O   UNL     1       2.154   9.796  17.231  0.00  0.00    +0.000 OA
ATOM      8  C   UNL     1       1.104  10.263  19.244  0.00  0.00    +0.000 A 
ATOM      9  C   UNL     1       0.790  11.560  18.810  0.00  0.00    +0.000 A 
ATOM     10  C   UNL     1       0.073  12.422  19.634  0.00  0.00    +0.000 A 
ATOM     11  C   UNL     1      -0.334  11.997  20.897  0.00  0.00    +0.000 A 
ATOM     12  C   UNL     1      -0.017  10.710  21.336  0.00  0.00    +0.000 A 
ATOM     13  C   UNL     1       0.703   9.840  20.504  0.00  0.00    +0.000 A 
ENDROOT
BRANCH   5  14
ATOM     14  N   UNL     1       2.904   7.116  17.951  0.00  0.00    +0.000 N 
ATOM     15  H   UNL     1       2.315   6.601  17.295  0.00  0.00    +0.000 HD
BRANCH  14  16
ATOM     16  C   UNL     1       4.323   7.136  17.641  0.00  0.00    +0.000 C 
BRANCH  16  17
ATOM     17  C   UNL     1       4.842   5.701  17.571  0.00  0.00    +0.000 C 
BRANCH  17  18
ATOM     18  C   UNL     1       3.705   4.713  17.321  0.00  0.00    +0.000 C 
BRANCH  18  19
ATOM     19  N   UNL     1       3.608   3.725  18.382  0.00  0.00    +0.000 N 
ATOM     20  C   UNL     1       4.681   3.373  19.172  0.00  0.00    +0.000 A 
ATOM     21  C   UNL     1       4.202   2.433  20.051  0.00  0.00    +0.000 A 
ATOM     22  N   UNL     1       2.873   2.194  19.827  0.00  0.00    +0.000 NA
ATOM     23  C   UNL     1       2.540   2.985  18.822  0.00  0.00    +0.000 A 
ATOM     24  N   UNL     1       1.198   3.047  18.301  0.00  0.00    +0.000 N 
ATOM     25  O   UNL     1       0.961   3.886  17.421  0.00  0.00    +0.000 OA
ATOM     26  O   UNL     1       0.366   2.261  18.773  0.00  0.00    +0.000 OA
ENDBRANCH  18  19
ENDBRANCH  17  18
ENDBRANCH  16  17
ENDBRANCH  14  16
ENDBRANCH   5  14
TORSDOF 5
ENDMDL
MODEL 6
REMARK VINA RESULT:      -6.8      2.972      4.264
REMARK  Name = 
REMARK  5 active torsions:
REMARK  status: ('A' for Active; 'I' for Inactive)
REMARK    1  A    between atoms: C_5  and  N_6
REMARK    2  A    between atoms: N_6  and  C_7
REMARK    3  A    between atoms: C_7  and  C_8
REMARK    4  A    between atoms: C_8  and  C_9
REMARK    5  A    between atoms: C_9  and  N_10
REMARK                            x       y       z     vdW  Elec       q    Type
REMARK                         _______ _______ _______ _____ _____    ______ ____
ROOT
ATOM      1  O   UNL     1      -0.656  11.531  18.364  0.00  0.00    +0.000 OA
ATOM      2  C   UNL     1      -0.335  10.947  19.394  0.00  0.00    +0.000 C 
ATOM      3  C   UNL     1       0.674   9.855  19.419  0.00  0.00    +0.000 C 
ATOM      4 CL   UNL     1       1.393   9.468  17.879  0.00  0.00    +0.000 Cl
ATOM      5  C   UNL     1       1.030   9.170  20.525  0.00  0.00    +0.000 C 
ATOM      6  C   UNL     1       0.375   9.562  21.828  0.00  0.00    +0.000 C 
ATOM      7  O   UNL     1       0.646   9.023  22.897  0.00  0.00    +0.000 OA
ATOM      8  C   UNL     1      -0.619  10.650  21.836  0.00  0.00    +0.000 A 
ATOM      9  C   UNL     1      -1.217  11.014  23.052  0.00  0.00    +0.000 A 
ATOM     10  C   UNL     1      -2.147  12.050  23.095  0.00  0.00    +0.000 A 
ATOM     11  C   UNL     1      -2.485  12.727  21.926  0.00  0.00    +0.000 A 
ATOM     12  C   UNL     1      -1.897  12.362  20.712  0.00  0.00    +0.000 A 
ATOM     13  C   UNL     1      -0.959  11.321  20.670  0.00  0.00    +0.000 A 
ENDROOT
BRANCH   5  14
ATOM     14  N   UNL     1       1.963   8.124  20.506  0.00  0.00    +0.000 N 
ATOM     15  H   UNL     1       2.742   8.264  21.149  0.00  0.00    +0.000 HD
BRANCH  14  16
ATOM     16  C   UNL     1       1.799   6.772  20.000  0.00  0.00    +0.000 C 
BRANCH  16  17
ATOM     17  C   UNL     1       3.172   6.189  19.673  0.00  0.00    +0.000 C 
BRANCH  17  18
ATOM     18  C   UNL     1       3.122   5.323  18.418  0.00  0.00    +0.000 C 
BRANCH  18  19
ATOM     19  N   UNL     1       2.589   4.000  18.697  0.00  0.00    +0.000 N 
ATOM     20  C   UNL     1       1.281   3.654  18.435  0.00  0.00    +0.000 A 
ATOM     21  C   UNL     1       1.159   2.341  18.819  0.00  0.00    +0.000 A 
ATOM     22  N   UNL     1       2.347   1.869  19.308  0.00  0.00    +0.000 NA
ATOM     23  C   UNL     1       3.190   2.884  19.220  0.00  0.00    +0.000 A 
ATOM     24  N   UNL     1       4.572   2.776  19.617  0.00  0.00    +0.000 N 
ATOM     25  O   UNL     1       5.306   3.752  19.411  0.00  0.00    +0.000 OA
ATOM     26  O   UNL     1       4.935   1.711  20.133  0.00  0.00    +0.000 OA
ENDBRANCH  18  19
ENDBRANCH  17  18
ENDBRANCH  16  17
ENDBRANCH  14  16
ENDBRANCH   5  14
TORSDOF 5
ENDMDL
MODEL 7
REMARK VINA RESULT:      -6.7      1.992      3.021
REMARK  Name = 
REMARK  5 active torsions:
REMARK  status: ('A' for Active; 'I' for Inactive)
REMARK    1  A    between atoms: C_5  and  N_6
REMARK    2  A    between atoms: N_6  and  C_7
REMARK    3  A    between atoms: C_7  and  C_8
REMARK    4  A    between atoms: C_8  and  C_9
REMARK    5  A    between atoms: C_9  and  N_10
REMARK                            x       y       z     vdW  Elec       q    Type
REMARK                         _______ _______ _______ _____ _____    ______ ____
ROOT
ATOM      1  O   UNL     1       0.655   8.060  22.164  0.00  0.00    +0.000 OA
ATOM      2  C   UNL     1       1.062   8.243  21.022  0.00  0.00    +0.000 C 
ATOM      3  C   UNL     1       1.776   7.196  20.245  0.00  0.00    +0.000 C 
ATOM      4 CL   UNL     1       1.980   5.670  21.061  0.00  0.00    +0.000 Cl
ATOM      5  C   UNL     1       2.266   7.369  19.000  0.00  0.00    +0.000 C 
ATOM      6  C   UNL     1       2.047   8.714  18.347  0.00  0.00    +0.000 C 
ATOM      7  O   UNL     1       2.427   8.969  17.207  0.00  0.00    +0.000 OA
ATOM      8  C   UNL     1       1.331   9.767  19.087  0.00  0.00    +0.000 A 
ATOM      9  C   UNL     1       1.124  11.010  18.471  0.00  0.00    +0.000 A 
ATOM     10  C   UNL     1       0.435  12.019  19.139  0.00  0.00    +0.000 A 
ATOM     11  C   UNL     1      -0.050  11.794  20.425  0.00  0.00    +0.000 A 
ATOM     12  C   UNL     1       0.161  10.560  21.045  0.00  0.00    +0.000 A 
ATOM     13  C   UNL     1       0.852   9.543  20.371  0.00  0.00    +0.000 A 
ENDROOT
BRANCH   5  14
ATOM     14  N   UNL     1       2.963   6.369  18.309  0.00  0.00    +0.000 N 
ATOM     15  H   UNL     1       3.971   6.396  18.464  0.00  0.00    +0.000 HD
BRANCH  14  16
ATOM     16  C   UNL     1       2.448   5.140  17.728  0.00  0.00    +0.000 C 
BRANCH  16  17
ATOM     17  C   UNL     1       3.374   3.984  18.098  0.00  0.00    +0.000 C 
BRANCH  17  18
ATOM     18  C   UNL     1       4.409   3.733  17.006  0.00  0.00    +0.000 C 
BRANCH  18  19
ATOM     19  N   UNL     1       5.665   4.408  17.288  0.00  0.00    +0.000 N 
ATOM     20  C   UNL     1       6.090   4.681  18.570  0.00  0.00    +0.000 A 
ATOM     21  C   UNL     1       7.305   5.308  18.433  0.00  0.00    +0.000 A 
ATOM     22  N   UNL     1       7.638   5.430  17.111  0.00  0.00    +0.000 NA
ATOM     23  C   UNL     1       6.639   4.878  16.445  0.00  0.00    +0.000 A 
ATOM     24  N   UNL     1       6.629   4.783  15.007  0.00  0.00    +0.000 N 
ATOM     25  O   UNL     1       5.694   4.167  14.478  0.00  0.00    +0.000 OA
ATOM     26  O   UNL     1       7.561   5.320  14.394  0.00  0.00    +0.000 OA
ENDBRANCH  18  19
ENDBRANCH  17  18
ENDBRANCH  16  17
ENDBRANCH  14  16
ENDBRANCH   5  14
TORSDOF 5
ENDMDL
MODEL 8
REMARK VINA RESULT:      -6.6      3.368      7.891
REMARK  Name = 
REMARK  5 active torsions:
REMARK  status: ('A' for Active; 'I' for Inactive)
REMARK    1  A    between atoms: C_5  and  N_6
REMARK    2  A    between atoms: N_6  and  C_7
REMARK    3  A    between atoms: C_7  and  C_8
REMARK    4  A    between atoms: C_8  and  C_9
REMARK    5  A    between atoms: C_9  and  N_10
REMARK                            x       y       z     vdW  Elec       q    Type
REMARK                         _______ _______ _______ _____ _____    ______ ____
ROOT
ATOM      1  O   UNL     1       3.040   3.302  19.088  0.00  0.00    +0.000 OA
ATOM      2  C   UNL     1       3.138   4.475  18.743  0.00  0.00    +0.000 C 
ATOM      3  C   UNL     1       2.403   5.576  19.420  0.00  0.00    +0.000 C 
ATOM      4 CL   UNL     1       1.400   5.091  20.760  0.00  0.00    +0.000 Cl
ATOM      5  C   UNL     1       2.460   6.872  19.050  0.00  0.00    +0.000 C 
ATOM      6  C   UNL     1       3.356   7.225  17.886  0.00  0.00    +0.000 C 
ATOM      7  O   UNL     1       3.502   8.377  17.486  0.00  0.00    +0.000 OA
ATOM      8  C   UNL     1       4.107   6.157  17.205  0.00  0.00    +0.000 A 
ATOM      9  C   UNL     1       4.943   6.493  16.129  0.00  0.00    +0.000 A 
ATOM     10  C   UNL     1       5.680   5.508  15.477  0.00  0.00    +0.000 A 
ATOM     11  C   UNL     1       5.586   4.182  15.893  0.00  0.00    +0.000 A 
ATOM     12  C   UNL     1       4.748   3.842  16.958  0.00  0.00    +0.000 A 
ATOM     13  C   UNL     1       4.009   4.835  17.617  0.00  0.00    +0.000 A 
ENDROOT
BRANCH   5  14
ATOM     14  N   UNL     1       1.728   7.880  19.692  0.00  0.00    +0.000 N 
ATOM     15  H   UNL     1       1.077   8.365  19.072  0.00  0.00    +0.000 HD
BRANCH  14  16
ATOM     16  C   UNL     1       1.509   8.077  21.114  0.00  0.00    +0.000 C 
BRANCH  16  17
ATOM     17  C   UNL     1       0.401   9.110  21.313  0.00  0.00    +0.000 C 
BRANCH  17  18
ATOM     18  C   UNL     1       0.698  10.395  20.545  0.00  0.00    +0.000 C 
BRANCH  18  19
ATOM     19  N   UNL     1      -0.521  11.089  20.164  0.00  0.00    +0.000 N 
ATOM     20  C   UNL     1      -1.141  12.006  20.984  0.00  0.00    +0.000 A 
ATOM     21  C   UNL     1      -2.239  12.446  20.286  0.00  0.00    +0.000 A 
ATOM     22  N   UNL     1      -2.314  11.829  19.066  0.00  0.00    +0.000 NA
ATOM     23  C   UNL     1      -1.269  11.023  19.017  0.00  0.00    +0.000 A 
ATOM     24  N   UNL     1      -0.976  10.207  17.865  0.00  0.00    +0.000 N 
ATOM     25  O   UNL     1       0.075   9.554  17.874  0.00  0.00    +0.000 OA
ATOM     26  O   UNL     1      -1.796  10.219  16.936  0.00  0.00    +0.000 OA
ENDBRANCH  18  19
ENDBRANCH  17  18
ENDBRANCH  16  17
ENDBRANCH  14  16
ENDBRANCH   5  14
TORSDOF 5
ENDMDL
MODEL 9
REMARK VINA RESULT:      -6.6      3.456      7.341
REMARK  Name = 
REMARK  5 active torsions:
REMARK  status: ('A' for Active; 'I' for Inactive)
REMARK    1  A    between atoms: C_5  and  N_6
REMARK    2  A    between atoms: N_6  and  C_7
REMARK    3  A    between atoms: C_7  and  C_8
REMARK    4  A    between atoms: C_8  and  C_9
REMARK    5  A    between atoms: C_9  and  N_10
REMARK                            x       y       z     vdW  Elec       q    Type
REMARK                         _______ _______ _______ _____ _____    ______ ____
ROOT
ATOM      1  O   UNL     1       4.466   3.762  16.969  0.00  0.00    +0.000 OA
ATOM      2  C   UNL     1       3.823   4.516  17.692  0.00  0.00    +0.000 C 
ATOM      3  C   UNL     1       3.788   5.989  17.491  0.00  0.00    +0.000 C 
ATOM      4 CL   UNL     1       4.711   6.579  16.137  0.00  0.00    +0.000 Cl
ATOM      5  C   UNL     1       3.118   6.851  18.283  0.00  0.00    +0.000 C 
ATOM      6  C   UNL     1       2.330   6.272  19.435  0.00  0.00    +0.000 C 
ATOM      7  O   UNL     1       1.664   6.965  20.199  0.00  0.00    +0.000 OA
ATOM      8  C   UNL     1       2.336   4.815  19.651  0.00  0.00    +0.000 A 
ATOM      9  C   UNL     1       1.595   4.283  20.718  0.00  0.00    +0.000 A 
ATOM     10  C   UNL     1       1.566   2.909  20.936  0.00  0.00    +0.000 A 
ATOM     11  C   UNL     1       2.276   2.057  20.093  0.00  0.00    +0.000 A 
ATOM     12  C   UNL     1       3.021   2.583  19.035  0.00  0.00    +0.000 A 
ATOM     13  C   UNL     1       3.047   3.967  18.813  0.00  0.00    +0.000 A 
ENDROOT
BRANCH   5  14
ATOM     14  N   UNL     1       3.133   8.238  18.083  0.00  0.00    +0.000 N 
ATOM     15  H   UNL     1       4.073   8.637  18.079  0.00  0.00    +0.000 HD
BRANCH  14  16
ATOM     16  C   UNL     1       2.086   9.088  17.542  0.00  0.00    +0.000 C 
BRANCH  16  17
ATOM     17  C   UNL     1       1.912  10.307  18.446  0.00  0.00    +0.000 C 
BRANCH  17  18
ATOM     18  C   UNL     1       0.700  10.148  19.361  0.00  0.00    +0.000 C 
BRANCH  18  19
ATOM     19  N   UNL     1       0.533  11.296  20.237  0.00  0.00    +0.000 N 
ATOM     20  C   UNL     1       0.824  12.583  19.839  0.00  0.00    +0.000 A 
ATOM     21  C   UNL     1       0.533  13.380  20.920  0.00  0.00    +0.000 A 
ATOM     22  N   UNL     1       0.076  12.627  21.966  0.00  0.00    +0.000 NA
ATOM     23  C   UNL     1       0.081  11.380  21.529  0.00  0.00    +0.000 A 
ATOM     24  N   UNL     1      -0.365  10.275  22.340  0.00  0.00    +0.000 N 
ATOM     25  O   UNL     1      -0.411   9.155  21.812  0.00  0.00    +0.000 OA
ATOM     26  O   UNL     1      -0.680  10.519  23.512  0.00  0.00    +0.000 OA
ENDBRANCH  18  19
ENDBRANCH  17  18
ENDBRANCH  16  17
ENDBRANCH  14  16
ENDBRANCH   5  14
TORSDOF 5
ENDMDL
