MODEL 1
REMARK VINA RESULT:      -6.9      0.000      0.000
REMARK  Name = 
REMARK  9 active torsions:
REMARK  status: ('A' for Active; 'I' for Inactive)
REMARK    1  A    between atoms: C_1  and  O_2
REMARK    2  A    between atoms: O_2  and  C_3
REMARK    3  A    between atoms: C_6  and  C_7
REMARK    4  A    between atoms: C_7  and  N_8
REMARK    5  A    between atoms: N_8  and  C_9
REMARK    6  A    between atoms: C_9  and  C_10
REMARK    7  A    between atoms: C_10  and  N_11
REMARK    8  A    between atoms: N_11  and  C_12
REMARK    9  A    between atoms: N_11  and  C_13
REMARK                            x       y       z     vdW  Elec       q    Type
REMARK                         _______ _______ _______ _____ _____    ______ ____
ROOT
ATOM      1  N   UNL     1       3.971   4.858  18.765  0.00  0.00    +0.000 N 
ATOM      2  C   UNL     1       5.239   5.390  18.424  0.00  0.00    +0.000 A 
ATOM      3  C   UNL     1       6.276   5.340  19.359  0.00  0.00    +0.000 A 
ATOM      4  C   UNL     1       7.514   5.897  19.038  0.00  0.00    +0.000 A 
ATOM      5  C   UNL     1       7.698   6.483  17.796  0.00  0.00    +0.000 A 
ATOM      6  C   UNL     1       6.627   6.501  16.923  0.00  0.00    +0.000 A 
ATOM      7  N   UNL     1       5.418   5.977  17.220  0.00  0.00    +0.000 NA
ENDROOT
BRANCH   1   8
ATOM      8  C   UNL     1       2.934   5.624  18.039  0.00  0.00    +0.000 C 
BRANCH   8  12
ATOM      9  C   UNL     1       1.185   9.162  19.673  0.00  0.00    +0.000 A 
ATOM     10  C   UNL     1       1.538   8.139  20.560  0.00  0.00    +0.000 A 
ATOM     11  C   UNL     1       2.181   6.992  20.071  0.00  0.00    +0.000 A 
ATOM     12  C   UNL     1       2.507   6.904  18.713  0.00  0.00    +0.000 A 
ATOM     13  C   UNL     1       2.366   8.040  17.909  0.00  0.00    +0.000 A 
ATOM     14  C   UNL     1       1.642   9.125  18.365  0.00  0.00    +0.000 A 
BRANCH   9  16
ATOM     15  C   UNL     1      -0.664  10.502  19.022  0.00  0.00    +0.000 C 
ATOM     16  O   UNL     1       0.390  10.242  19.924  0.00  0.00    +0.000 OA
ENDBRANCH   9  16
ENDBRANCH   8  12
ENDBRANCH   1   8
BRANCH   1  17
ATOM     17  C   UNL     1       3.993   3.361  18.759  0.00  0.00    +0.000 C 
BRANCH  17  18
ATOM     18  C   UNL     1       3.373   2.668  20.001  0.00  0.00    +0.000 C 
BRANCH  18  19
ATOM     19  N   UNL     1       1.907   2.426  20.044  0.00  0.00    +0.000 NA
ATOM     20  C   UNL     1       1.145   3.497  20.692  0.00  0.00    +0.000 C 
ATOM     21  C   UNL     1       1.415   2.275  18.663  0.00  0.00    +0.000 C 
ENDBRANCH  18  19
ENDBRANCH  17  18
ENDBRANCH   1  17
TORSDOF 6
ENDMDL
MODEL 2
REMARK VINA RESULT:      -6.8      1.341      4.478
REMARK  Name = 
REMARK  9 active torsions:
REMARK  status: ('A' for Active; 'I' for Inactive)
REMARK    1  A    between atoms: C_1  and  O_2
REMARK    2  A    between atoms: O_2  and  C_3
REMARK    3  A    between atoms: C_6  and  C_7
REMARK    4  A    between atoms: C_7  and  N_8
REMARK    5  A    between atoms: N_8  and  C_9
REMARK    6  A    between atoms: C_9  and  C_10
REMARK    7  A    between atoms: C_10  and  N_11
REMARK    8  A    between atoms: N_11  and  C_12
REMARK    9  A    between atoms: N_11  and  C_13
REMARK                            x       y       z     vdW  Elec       q    Type
REMARK                         _______ _______ _______ _____ _____    ______ ____
ROOT
ATOM      1  N   UNL     1       3.296   5.474  17.809  0.00  0.00    +0.000 N 
ATOM      2  C   UNL     1       2.688   4.426  18.542  0.00  0.00    +0.000 A 
ATOM      3  C   UNL     1       1.784   3.576  17.901  0.00  0.00    +0.000 A 
ATOM      4  C   UNL     1       1.156   2.567  18.631  0.00  0.00    +0.000 A 
ATOM      5  C   UNL     1       1.445   2.418  19.979  0.00  0.00    +0.000 A 
ATOM      6  C   UNL     1       2.345   3.298  20.548  0.00  0.00    +0.000 A 
ATOM      7  N   UNL     1       2.954   4.288  19.860  0.00  0.00    +0.000 NA
ENDROOT
BRANCH   1   8
ATOM      8  C   UNL     1       3.566   6.596  18.735  0.00  0.00    +0.000 C 
BRANCH   8  12
ATOM      9  C   UNL     1       0.811   9.802  19.352  0.00  0.00    +0.000 A 
ATOM     10  C   UNL     1       1.196   9.515  18.037  0.00  0.00    +0.000 A 
ATOM     11  C   UNL     1       2.041   8.424  17.787  0.00  0.00    +0.000 A 
ATOM     12  C   UNL     1       2.451   7.606  18.845  0.00  0.00    +0.000 A 
ATOM     13  C   UNL     1       1.853   7.771  20.099  0.00  0.00    +0.000 A 
ATOM     14  C   UNL     1       1.104   8.902  20.365  0.00  0.00    +0.000 A 
BRANCH   9  16
ATOM     15  C   UNL     1      -0.285  11.847  18.847  0.00  0.00    +0.000 C 
ATOM     16  O   UNL     1       0.171  10.917  19.806  0.00  0.00    +0.000 OA
ENDBRANCH   9  16
ENDBRANCH   8  12
ENDBRANCH   1   8
BRANCH   1  17
ATOM     17  C   UNL     1       4.348   4.948  16.883  0.00  0.00    +0.000 C 
BRANCH  17  18
ATOM     18  C   UNL     1       5.195   6.015  16.141  0.00  0.00    +0.000 C 
BRANCH  18  19
ATOM     19  N   UNL     1       6.674   6.009  16.301  0.00  0.00    +0.000 NA
ATOM     20  C   UNL     1       7.159   6.876  17.378  0.00  0.00    +0.000 C 
ATOM     21  C   UNL     1       7.112   4.631  16.580  0.00  0.00    +0.000 C 
ENDBRANCH  18  19
ENDBRANCH  17  18
ENDBRANCH   1  17
TORSDOF 6
ENDMDL
MODEL 3
REMARK VINA RESULT:      -6.7      1.210      1.289
REMARK  Name = 
REMARK  9 active torsions:
REMARK  status: ('A' for Active; 'I' for Inactive)
REMARK    1  A    between atoms: C_1  and  O_2
REMARK    2  A    between atoms: O_2  and  C_3
REMARK    3  A    between atoms: C_6  and  C_7
REMARK    4  A    between atoms: C_7  and  N_8
REMARK    5  A    between atoms: N_8  and  C_9
REMARK    6  A    between atoms: C_9  and  C_10
REMARK    7  A    between atoms: C_10  and  N_11
REMARK    8  A    between atoms: N_11  and  C_12
REMARK    9  A    between atoms: N_11  and  C_13
REMARK                            x       y       z     vdW  Elec       q    Type
REMARK                         _______ _______ _______ _____ _____    ______ ____
ROOT
ATOM      1  N   UNL     1       4.069   5.027  18.771  0.00  0.00    +0.000 N 
ATOM      2  C   UNL     1       5.058   4.794  17.783  0.00  0.00    +0.000 A 
ATOM      3  C   UNL     1       6.407   4.823  18.145  0.00  0.00    +0.000 A 
ATOM      4  C   UNL     1       7.382   4.631  17.166  0.00  0.00    +0.000 A 
ATOM      5  C   UNL     1       6.998   4.407  15.853  0.00  0.00    +0.000 A 
ATOM      6  C   UNL     1       5.647   4.397  15.568  0.00  0.00    +0.000 A 
ATOM      7  N   UNL     1       4.688   4.592  16.500  0.00  0.00    +0.000 NA
ENDROOT
BRANCH   1   8
ATOM      8  C   UNL     1       2.902   5.662  18.121  0.00  0.00    +0.000 C 
BRANCH   8  12
ATOM      9  C   UNL     1       1.166   9.292  19.557  0.00  0.00    +0.000 A 
ATOM     10  C   UNL     1       1.470   8.298  20.494  0.00  0.00    +0.000 A 
ATOM     11  C   UNL     1       2.108   7.122  20.072  0.00  0.00    +0.000 A 
ATOM     12  C   UNL     1       2.477   6.975  18.730  0.00  0.00    +0.000 A 
ATOM     13  C   UNL     1       2.384   8.080  17.878  0.00  0.00    +0.000 A 
ATOM     14  C   UNL     1       1.667   9.196  18.267  0.00  0.00    +0.000 A 
BRANCH   9  16
ATOM     15  C   UNL     1       0.946  11.488  20.432  0.00  0.00    +0.000 C 
ATOM     16  O   UNL     1       0.384  10.394  19.738  0.00  0.00    +0.000 OA
ENDBRANCH   9  16
ENDBRANCH   8  12
ENDBRANCH   1   8
BRANCH   1  17
ATOM     17  C   UNL     1       3.920   3.844  19.676  0.00  0.00    +0.000 C 
BRANCH  17  18
ATOM     18  C   UNL     1       3.023   2.693  19.147  0.00  0.00    +0.000 C 
BRANCH  18  19
ATOM     19  N   UNL     1       1.726   2.414  19.819  0.00  0.00    +0.000 NA
ATOM     20  C   UNL     1       1.344   3.417  20.817  0.00  0.00    +0.000 C 
ATOM     21  C   UNL     1       0.670   2.351  18.794  0.00  0.00    +0.000 C 
ENDBRANCH  18  19
ENDBRANCH  17  18
ENDBRANCH   1  17
TORSDOF 6
ENDMDL
MODEL 4
REMARK VINA RESULT:      -6.7      1.296      4.360
REMARK  Name = 
REMARK  9 active torsions:
REMARK  status: ('A' for Active; 'I' for Inactive)
REMARK    1  A    between atoms: C_1  and  O_2
REMARK    2  A    between atoms: O_2  and  C_3
REMARK    3  A    between atoms: C_6  and  C_7
REMARK    4  A    between atoms: C_7  and  N_8
REMARK    5  A    between atoms: N_8  and  C_9
REMARK    6  A    between atoms: C_9  and  C_10
REMARK    7  A    between atoms: C_10  and  N_11
REMARK    8  A    between atoms: N_11  and  C_12
REMARK    9  A    between atoms: N_11  and  C_13
REMARK                            x       y       z     vdW  Elec       q    Type
REMARK                         _______ _______ _______ _____ _____    ______ ____
ROOT
ATOM      1  N   UNL     1       3.003   5.424  18.222  0.00  0.00    +0.000 N 
ATOM      2  C   UNL     1       2.406   4.541  19.156  0.00  0.00    +0.000 A 
ATOM      3  C   UNL     1       1.431   3.642  18.720  0.00  0.00    +0.000 A 
ATOM      4  C   UNL     1       0.816   2.797  19.645  0.00  0.00    +0.000 A 
ATOM      5  C   UNL     1       1.187   2.860  20.979  0.00  0.00    +0.000 A 
ATOM      6  C   UNL     1       2.155   3.777  21.339  0.00  0.00    +0.000 A 
ATOM      7  N   UNL     1       2.753   4.611  20.460  0.00  0.00    +0.000 NA
ENDROOT
BRANCH   1   8
ATOM      8  C   UNL     1       3.375   6.669  18.930  0.00  0.00    +0.000 C 
BRANCH   8  12
ATOM      9  C   UNL     1       0.735  10.006  19.304  0.00  0.00    +0.000 A 
ATOM     10  C   UNL     1       1.122   9.621  18.015  0.00  0.00    +0.000 A 
ATOM     11  C   UNL     1       1.929   8.486  17.847  0.00  0.00    +0.000 A 
ATOM     12  C   UNL     1       2.297   7.724  18.960  0.00  0.00    +0.000 A 
ATOM     13  C   UNL     1       1.692   7.991  20.193  0.00  0.00    +0.000 A 
ATOM     14  C   UNL     1       0.983   9.164  20.376  0.00  0.00    +0.000 A 
BRANCH   9  16
ATOM     15  C   UNL     1       0.551  11.768  20.885  0.00  0.00    +0.000 C 
ATOM     16  O   UNL     1       0.131  11.171  19.677  0.00  0.00    +0.000 OA
ENDBRANCH   9  16
ENDBRANCH   8  12
ENDBRANCH   1   8
BRANCH   1  17
ATOM     17  C   UNL     1       3.971   4.703  17.337  0.00  0.00    +0.000 C 
BRANCH  17  18
ATOM     18  C   UNL     1       5.227   4.119  18.038  0.00  0.00    +0.000 C 
BRANCH  18  19
ATOM     19  N   UNL     1       6.553   4.747  17.795  0.00  0.00    +0.000 NA
ATOM     20  C   UNL     1       6.592   5.621  16.619  0.00  0.00    +0.000 C 
ATOM     21  C   UNL     1       6.919   5.544  18.979  0.00  0.00    +0.000 C 
ENDBRANCH  18  19
ENDBRANCH  17  18
ENDBRANCH   1  17
TORSDOF 6
ENDMDL
MODEL 5
REMARK VINA RESULT:      -6.6      1.152      1.416
REMARK  Name = 
REMARK  9 active torsions:
REMARK  status: ('A' for Active; 'I' for Inactive)
REMARK    1  A    between atoms: C_1  and  O_2
REMARK    2  A    between atoms: O_2  and  C_3
REMARK    3  A    between atoms: C_6  and  C_7
REMARK    4  A    between atoms: C_7  and  N_8
REMARK    5  A    between atoms: N_8  and  C_9
REMARK    6  A    between atoms: C_9  and  C_10
REMARK    7  A    between atoms: C_10  and  N_11
REMARK    8  A    between atoms: N_11  and  C_12
REMARK    9  A    between atoms: N_11  and  C_13
REMARK                            x       y       z     vdW  Elec       q    Type
REMARK                         _______ _______ _______ _____ _____    ______ ____
ROOT
ATOM      1  N   UNL     1       4.008   4.478  18.347  0.00  0.00    +0.000 N 
ATOM      2  C   UNL     1       5.089   4.576  17.437  0.00  0.00    +0.000 A 
ATOM      3  C   UNL     1       6.398   4.538  17.923  0.00  0.00    +0.000 A 
ATOM      4  C   UNL     1       7.463   4.672  17.032  0.00  0.00    +0.000 A 
ATOM      5  C   UNL     1       7.207   4.832  15.680  0.00  0.00    +0.000 A 
ATOM      6  C   UNL     1       5.888   4.866  15.271  0.00  0.00    +0.000 A 
ATOM      7  N   UNL     1       4.843   4.750  16.120  0.00  0.00    +0.000 NA
ENDROOT
BRANCH   1   8
ATOM      8  C   UNL     1       2.866   5.242  17.798  0.00  0.00    +0.000 C 
BRANCH   8  12
ATOM      9  C   UNL     1       1.488   8.892  19.537  0.00  0.00    +0.000 A 
ATOM     10  C   UNL     1       1.736   7.813  20.394  0.00  0.00    +0.000 A 
ATOM     11  C   UNL     1       2.258   6.621  19.870  0.00  0.00    +0.000 A 
ATOM     12  C   UNL     1       2.572   6.539  18.509  0.00  0.00    +0.000 A 
ATOM     13  C   UNL     1       2.547   7.706  17.738  0.00  0.00    +0.000 A 
ATOM     14  C   UNL     1       1.938   8.846  18.227  0.00  0.00    +0.000 A 
BRANCH   9  16
ATOM     15  C   UNL     1       0.121  10.672  18.763  0.00  0.00    +0.000 C 
ATOM     16  O   UNL     1       0.808  10.039  19.822  0.00  0.00    +0.000 OA
ENDBRANCH   9  16
ENDBRANCH   8  12
ENDBRANCH   1   8
BRANCH   1  17
ATOM     17  C   UNL     1       3.849   3.078  18.851  0.00  0.00    +0.000 C 
BRANCH  17  18
ATOM     18  C   UNL     1       3.224   2.931  20.263  0.00  0.00    +0.000 C 
BRANCH  18  19
ATOM     19  N   UNL     1       1.767   3.166  20.442  0.00  0.00    +0.000 NA
ATOM     20  C   UNL     1       0.933   2.559  19.401  0.00  0.00    +0.000 C 
ATOM     21  C   UNL     1       1.358   2.615  21.745  0.00  0.00    +0.000 C 
ENDBRANCH  18  19
ENDBRANCH  17  18
ENDBRANCH   1  17
TORSDOF 6
ENDMDL
MODEL 6
REMARK VINA RESULT:      -6.6      3.012      6.346
REMARK  Name = 
REMARK  9 active torsions:
REMARK  status: ('A' for Active; 'I' for Inactive)
REMARK    1  A    between atoms: C_1  and  O_2
REMARK    2  A    between atoms: O_2  and  C_3
REMARK    3  A    between atoms: C_6  and  C_7
REMARK    4  A    between atoms: C_7  and  N_8
REMARK    5  A    between atoms: N_8  and  C_9
REMARK    6  A    between atoms: C_9  and  C_10
REMARK    7  A    between atoms: C_10  and  N_11
REMARK    8  A    between atoms: N_11  and  C_12
REMARK    9  A    between atoms: N_11  and  C_13
REMARK                            x       y       z     vdW  Elec       q    Type
REMARK                         _______ _______ _______ _____ _____    ______ ____
ROOT
ATOM      1  N   UNL     1       2.688   6.260  19.390  0.00  0.00    +0.000 N 
ATOM      2  C   UNL     1       2.175   5.034  19.883  0.00  0.00    +0.000 A 
ATOM      3  C   UNL     1       2.511   4.622  21.174  0.00  0.00    +0.000 A 
ATOM      4  C   UNL     1       2.037   3.398  21.647  0.00  0.00    +0.000 A 
ATOM      5  C   UNL     1       1.234   2.616  20.832  0.00  0.00    +0.000 A 
ATOM      6  C   UNL     1       0.946   3.085  19.565  0.00  0.00    +0.000 A 
ATOM      7  N   UNL     1       1.406   4.261  19.085  0.00  0.00    +0.000 NA
ENDROOT
BRANCH   1   8
ATOM      8  C   UNL     1       2.848   6.142  17.924  0.00  0.00    +0.000 C 
BRANCH   8  12
ATOM      9  C   UNL     1       6.587   5.249  16.062  0.00  0.00    +0.000 A 
ATOM     10  C   UNL     1       6.531   6.355  16.918  0.00  0.00    +0.000 A 
ATOM     11  C   UNL     1       5.341   6.638  17.605  0.00  0.00    +0.000 A 
ATOM     12  C   UNL     1       4.240   5.786  17.466  0.00  0.00    +0.000 A 
ATOM     13  C   UNL     1       4.409   4.564  16.806  0.00  0.00    +0.000 A 
ATOM     14  C   UNL     1       5.543   4.337  16.049  0.00  0.00    +0.000 A 
BRANCH   9  16
ATOM     15  C   UNL     1       7.209   4.799  13.816  0.00  0.00    +0.000 C 
ATOM     16  O   UNL     1       7.572   4.935  15.173  0.00  0.00    +0.000 OA
ENDBRANCH   9  16
ENDBRANCH   8  12
ENDBRANCH   1   8
BRANCH   1  17
ATOM     17  C   UNL     1       1.993   7.429  20.015  0.00  0.00    +0.000 C 
BRANCH  17  18
ATOM     18  C   UNL     1       1.713   8.633  19.078  0.00  0.00    +0.000 C 
BRANCH  18  19
ATOM     19  N   UNL     1       0.883   9.763  19.573  0.00  0.00    +0.000 NA
ATOM     20  C   UNL     1      -0.144  10.208  18.627  0.00  0.00    +0.000 C 
ATOM     21  C   UNL     1       0.217   9.346  20.819  0.00  0.00    +0.000 C 
ENDBRANCH  18  19
ENDBRANCH  17  18
ENDBRANCH   1  17
TORSDOF 6
ENDMDL
MODEL 7
REMARK VINA RESULT:      -6.6      1.113      1.765
REMARK  Name = 
REMARK  9 active torsions:
REMARK  status: ('A' for Active; 'I' for Inactive)
REMARK    1  A    between atoms: C_1  and  O_2
REMARK    2  A    between atoms: O_2  and  C_3
REMARK    3  A    between atoms: C_6  and  C_7
REMARK    4  A    between atoms: C_7  and  N_8
REMARK    5  A    between atoms: N_8  and  C_9
REMARK    6  A    between atoms: C_9  and  C_10
REMARK    7  A    between atoms: C_10  and  N_11
REMARK    8  A    between atoms: N_11  and  C_12
REMARK    9  A    between atoms: N_11  and  C_13
REMARK                            x       y       z     vdW  Elec       q    Type
REMARK                         _______ _______ _______ _____ _____    ______ ____
ROOT
ATOM      1  N   UNL     1       4.102   5.690  17.888  0.00  0.00    +0.000 N 
ATOM      2  C   UNL     1       5.470   5.973  18.129  0.00  0.00    +0.000 A 
ATOM      3  C   UNL     1       6.123   5.341  19.189  0.00  0.00    +0.000 A 
ATOM      4  C   UNL     1       7.459   5.647  19.450  0.00  0.00    +0.000 A 
ATOM      5  C   UNL     1       8.118   6.566  18.649  0.00  0.00    +0.000 A 
ATOM      6  C   UNL     1       7.408   7.156  17.622  0.00  0.00    +0.000 A 
ATOM      7  N   UNL     1       6.111   6.881  17.361  0.00  0.00    +0.000 NA
ENDROOT
BRANCH   1   8
ATOM      8  C   UNL     1       3.472   6.896  17.305  0.00  0.00    +0.000 C 
BRANCH   8  12
ATOM      9  C   UNL     1       1.167   9.063  20.175  0.00  0.00    +0.000 A 
ATOM     10  C   UNL     1       1.131   9.498  18.845  0.00  0.00    +0.000 A 
ATOM     11  C   UNL     1       1.815   8.769  17.862  0.00  0.00    +0.000 A 
ATOM     12  C   UNL     1       2.485   7.592  18.209  0.00  0.00    +0.000 A 
ATOM     13  C   UNL     1       2.294   7.057  19.487  0.00  0.00    +0.000 A 
ATOM     14  C   UNL     1       1.708   7.823  20.478  0.00  0.00    +0.000 A 
BRANCH   9  16
ATOM     15  C   UNL     1      -0.186   9.085  22.126  0.00  0.00    +0.000 C 
ATOM     16  O   UNL     1       0.739   9.736  21.282  0.00  0.00    +0.000 OA
ENDBRANCH   9  16
ENDBRANCH   8  12
ENDBRANCH   1   8
BRANCH   1  17
ATOM     17  C   UNL     1       3.930   4.337  17.273  0.00  0.00    +0.000 C 
BRANCH  17  18
ATOM     18  C   UNL     1       3.369   3.232  18.208  0.00  0.00    +0.000 C 
BRANCH  18  19
ATOM     19  N   UNL     1       2.175   3.525  19.045  0.00  0.00    +0.000 NA
ATOM     20  C   UNL     1       1.041   2.631  18.797  0.00  0.00    +0.000 C 
ATOM     21  C   UNL     1       2.556   3.411  20.463  0.00  0.00    +0.000 C 
ENDBRANCH  18  19
ENDBRANCH  17  18
ENDBRANCH   1  17
TORSDOF 6
ENDMDL
MODEL 8
REMARK VINA RESULT:      -6.5      1.569      4.273
REMARK  Name = 
REMARK  9 active torsions:
REMARK  status: ('A' for Active; 'I' for Inactive)
REMARK    1  A    between atoms: C_1  and  O_2
REMARK    2  A    between atoms: O_2  and  C_3
REMARK    3  A    between atoms: C_6  and  C_7
REMARK    4  A    between atoms: C_7  and  N_8
REMARK    5  A    between atoms: N_8  and  C_9
REMARK    6  A    between atoms: C_9  and  C_10
REMARK    7  A    between atoms: C_10  and  N_11
REMARK    8  A    between atoms: N_11  and  C_12
REMARK    9  A    between atoms: N_11  and  C_13
REMARK                            x       y       z     vdW  Elec       q    Type
REMARK                         _______ _______ _______ _____ _____    ______ ____
ROOT
ATOM      1  N   UNL     1       3.677   5.618  17.461  0.00  0.00    +0.000 N 
ATOM      2  C   UNL     1       3.555   4.286  17.928  0.00  0.00    +0.000 A 
ATOM      3  C   UNL     1       2.817   3.365  17.182  0.00  0.00    +0.000 A 
ATOM      4  C   UNL     1       2.665   2.063  17.660  0.00  0.00    +0.000 A 
ATOM      5  C   UNL     1       3.253   1.703  18.862  0.00  0.00    +0.000 A 
ATOM      6  C   UNL     1       3.964   2.668  19.548  0.00  0.00    +0.000 A 
ATOM      7  N   UNL     1       4.113   3.937  19.108  0.00  0.00    +0.000 NA
ENDROOT
BRANCH   1   8
ATOM      8  C   UNL     1       3.802   6.514  18.632  0.00  0.00    +0.000 C 
BRANCH   8  12
ATOM      9  C   UNL     1       0.918   9.537  19.522  0.00  0.00    +0.000 A 
ATOM     10  C   UNL     1       1.322   9.391  18.190  0.00  0.00    +0.000 A 
ATOM     11  C   UNL     1       2.211   8.363  17.846  0.00  0.00    +0.000 A 
ATOM     12  C   UNL     1       2.647   7.465  18.826  0.00  0.00    +0.000 A 
ATOM     13  C   UNL     1       2.035   7.486  20.084  0.00  0.00    +0.000 A 
ATOM     14  C   UNL     1       1.240   8.557  20.448  0.00  0.00    +0.000 A 
BRANCH   9  16
ATOM     15  C   UNL     1      -0.325  10.388  21.357  0.00  0.00    +0.000 C 
ATOM     16  O   UNL     1       0.231  10.578  20.074  0.00  0.00    +0.000 OA
ENDBRANCH   9  16
ENDBRANCH   8  12
ENDBRANCH   1   8
BRANCH   1  17
ATOM     17  C   UNL     1       4.622   5.701  16.303  0.00  0.00    +0.000 C 
BRANCH  17  18
ATOM     18  C   UNL     1       5.990   6.376  16.589  0.00  0.00    +0.000 C 
BRANCH  18  19
ATOM     19  N   UNL     1       7.242   5.607  16.363  0.00  0.00    +0.000 NA
ATOM     20  C   UNL     1       7.511   4.593  17.387  0.00  0.00    +0.000 C 
ATOM     21  C   UNL     1       7.152   4.935  15.055  0.00  0.00    +0.000 C 
ENDBRANCH  18  19
ENDBRANCH  17  18
ENDBRANCH   1  17
TORSDOF 6
ENDMDL
MODEL 9
REMARK VINA RESULT:      -6.5      1.175      1.462
REMARK  Name = 
REMARK  9 active torsions:
REMARK  status: ('A' for Active; 'I' for Inactive)
REMARK    1  A    between atoms: C_1  and  O_2
REMARK    2  A    between atoms: O_2  and  C_3
REMARK    3  A    between atoms: C_6  and  C_7
REMARK    4  A    between atoms: C_7  and  N_8
REMARK    5  A    between atoms: N_8  and  C_9
REMARK    6  A    between atoms: C_9  and  C_10
REMARK    7  A    between atoms: C_10  and  N_11
REMARK    8  A    between atoms: N_11  and  C_12
REMARK    9  A    between atoms: N_11  and  C_13
REMARK                            x       y       z     vdW  Elec       q    Type
REMARK                         _______ _______ _______ _____ _____    ______ ____
ROOT
ATOM      1  N   UNL     1       4.116   5.402  18.042  0.00  0.00    +0.000 N 
ATOM      2  C   UNL     1       5.452   5.852  18.178  0.00  0.00    +0.000 A 
ATOM      3  C   UNL     1       6.232   5.371  19.231  0.00  0.00    +0.000 A 
ATOM      4  C   UNL     1       7.536   5.842  19.388  0.00  0.00    +0.000 A 
ATOM      5  C   UNL     1       8.039   6.773  18.493  0.00  0.00    +0.000 A 
ATOM      6  C   UNL     1       7.209   7.208  17.478  0.00  0.00    +0.000 A 
ATOM      7  N   UNL     1       5.939   6.772  17.317  0.00  0.00    +0.000 NA
ENDROOT
BRANCH   1   8
ATOM      8  C   UNL     1       3.318   6.486  17.428  0.00  0.00    +0.000 C 
BRANCH   8  12
ATOM      9  C   UNL     1       1.004   9.074  19.916  0.00  0.00    +0.000 A 
ATOM     10  C   UNL     1       1.576   7.941  20.505  0.00  0.00    +0.000 A 
ATOM     11  C   UNL     1       2.403   7.106  19.739  0.00  0.00    +0.000 A 
ATOM     12  C   UNL     1       2.686   7.440  18.411  0.00  0.00    +0.000 A 
ATOM     13  C   UNL     1       2.304   8.698  17.933  0.00  0.00    +0.000 A 
ATOM     14  C   UNL     1       1.409   9.469  18.651  0.00  0.00    +0.000 A 
BRANCH   9  16
ATOM     15  C   UNL     1       0.213  10.362  21.747  0.00  0.00    +0.000 C 
ATOM     16  O   UNL     1       0.032   9.879  20.434  0.00  0.00    +0.000 OA
ENDBRANCH   9  16
ENDBRANCH   8  12
ENDBRANCH   1   8
BRANCH   1  17
ATOM     17  C   UNL     1       4.068   3.999  17.523  0.00  0.00    +0.000 C 
BRANCH  17  18
ATOM     18  C   UNL     1       2.668   3.478  17.100  0.00  0.00    +0.000 C 
BRANCH  18  19
ATOM     19  N   UNL     1       2.092   2.295  17.793  0.00  0.00    +0.000 NA
ATOM     20  C   UNL     1       3.078   1.498  18.529  0.00  0.00    +0.000 C 
ATOM     21  C   UNL     1       1.066   2.760  18.743  0.00  0.00    +0.000 C 
ENDBRANCH  18  19
ENDBRANCH  17  18
ENDBRANCH   1  17
TORSDOF 6
ENDMDL
