MODEL 1
REMARK VINA RESULT:      -7.4      0.000      0.000
REMARK  Name = 
REMARK  3 active torsions:
REMARK  status: ('A' for Active; 'I' for Inactive)
REMARK    1  A    between atoms: C_4  and  C_5
REMARK    2  A    between atoms: C_7  and  C_8
REMARK    3  A    between atoms: N_19  and  C_20
REMARK                            x       y       z     vdW  Elec       q    Type
REMARK                         _______ _______ _______ _____ _____    ______ ____
ROOT
ATOM      1  C   UNL     1       7.762  13.736  21.672  0.00  0.00    +0.000 A 
ATOM      2  C   UNL     1       8.816  13.465  20.828  0.00  0.00    +0.000 A 
ATOM      3  C   UNL     1       8.707  13.902  19.529  0.00  0.00    +0.000 A 
ATOM      4  N   UNL     1       7.620  14.571  19.096  0.00  0.00    +0.000 NA
ATOM      5  C   UNL     1       6.631  14.817  19.970  0.00  0.00    +0.000 A 
ATOM      6  N   UNL     1       5.502  15.444  19.527  0.00  0.00    +0.000 N 
ATOM      7  C   UNL     1       5.363  15.888  18.139  0.00  0.00    +0.000 C 
ATOM      8  C   UNL     1       3.917  15.624  17.644  0.00  0.00    +0.000 C 
ATOM      9  N   UNL     1       2.954  16.211  18.592  0.00  0.00    +0.000 N 
ATOM     10  C   UNL     1       3.104  15.739  19.984  0.00  0.00    +0.000 C 
ATOM     11  C   UNL     1       4.540  16.010  20.478  0.00  0.00    +0.000 C 
ATOM     12  N   UNL     1       6.686  14.422  21.250  0.00  0.00    +0.000 NA
ENDROOT
BRANCH   1  16
ATOM     13  C   UNL     1       7.822  12.439  25.772  0.00  0.00    +0.000 A 
ATOM     14  C   UNL     1       8.237  13.727  25.440  0.00  0.00    +0.000 A 
ATOM     15  C   UNL     1       8.205  14.151  24.107  0.00  0.00    +0.000 A 
ATOM     16  C   UNL     1       7.763  13.299  23.080  0.00  0.00    +0.000 A 
ATOM     17  C   UNL     1       7.332  12.008  23.451  0.00  0.00    +0.000 A 
ATOM     18  C   UNL     1       7.366  11.581  24.779  0.00  0.00    +0.000 A 
ENDBRANCH   1  16
BRANCH   3  19
ATOM     19  C   UNL     1       9.791  13.710  18.548  0.00  0.00    +0.000 A 
ATOM     20  C   UNL     1      10.332  12.446  18.274  0.00  0.00    +0.000 A 
ATOM     21  C   UNL     1      11.411  12.341  17.411  0.00  0.00    +0.000 A 
ATOM     22  N   UNL     1      11.977  13.394  16.790  0.00  0.00    +0.000 NA
ATOM     23  C   UNL     1      11.429  14.602  17.032  0.00  0.00    +0.000 A 
ATOM     24  C   UNL     1      10.354  14.806  17.880  0.00  0.00    +0.000 A 
ENDBRANCH   3  19
BRANCH   9  25
ATOM     25  C   UNL     1       1.811  16.865  18.188  0.00  0.00    +0.000 A 
ATOM     26  C   UNL     1       0.559  16.626  18.768  0.00  0.00    +0.000 A 
ATOM     27  C   UNL     1      -0.597  17.266  18.304  0.00  0.00    +0.000 A 
ATOM     28  C   UNL     1      -0.522  18.157  17.240  0.00  0.00    +0.000 A 
ATOM     29  C   UNL     1       0.708  18.413  16.645  0.00  0.00    +0.000 A 
ATOM     30  C   UNL     1       1.855  17.774  17.120  0.00  0.00    +0.000 A 
ENDBRANCH   9  25
TORSDOF 3
ENDMDL
MODEL 2
REMARK VINA RESULT:      -7.3      6.686     10.977
REMARK  Name = 
REMARK  3 active torsions:
REMARK  status: ('A' for Active; 'I' for Inactive)
REMARK    1  A    between atoms: C_4  and  C_5
REMARK    2  A    between atoms: C_7  and  C_8
REMARK    3  A    between atoms: N_19  and  C_20
REMARK                            x       y       z     vdW  Elec       q    Type
REMARK                         _______ _______ _______ _____ _____    ______ ____
ROOT
ATOM      1  C   UNL     1      -0.232  15.795  19.559  0.00  0.00    +0.000 A 
ATOM      2  C   UNL     1      -1.065  16.104  20.611  0.00  0.00    +0.000 A 
ATOM      3  C   UNL     1      -1.322  15.105  21.520  0.00  0.00    +0.000 A 
ATOM      4  N   UNL     1      -0.781  13.877  21.395  0.00  0.00    +0.000 NA
ATOM      5  C   UNL     1       0.034  13.641  20.355  0.00  0.00    +0.000 A 
ATOM      6  N   UNL     1       0.541  12.384  20.189  0.00  0.00    +0.000 N 
ATOM      7  C   UNL     1       0.251  11.306  21.135  0.00  0.00    +0.000 C 
ATOM      8  C   UNL     1       0.030   9.976  20.367  0.00  0.00    +0.000 C 
ATOM      9  N   UNL     1       1.168   9.732  19.464  0.00  0.00    +0.000 N 
ATOM     10  C   UNL     1       1.434  10.827  18.508  0.00  0.00    +0.000 C 
ATOM     11  C   UNL     1       1.662  12.147  19.274  0.00  0.00    +0.000 C 
ATOM     12  N   UNL     1       0.327  14.577  19.442  0.00  0.00    +0.000 NA
ENDROOT
BRANCH   1  16
ATOM     13  C   UNL     1       0.720  18.630  16.468  0.00  0.00    +0.000 A 
ATOM     14  C   UNL     1      -0.590  18.506  16.924  0.00  0.00    +0.000 A 
ATOM     15  C   UNL     1      -0.896  17.593  17.938  0.00  0.00    +0.000 A 
ATOM     16  C   UNL     1       0.098  16.782  18.514  0.00  0.00    +0.000 A 
ATOM     17  C   UNL     1       1.417  16.943  18.045  0.00  0.00    +0.000 A 
ATOM     18  C   UNL     1       1.725  17.851  17.030  0.00  0.00    +0.000 A 
ENDBRANCH   1  16
BRANCH   3  19
ATOM     19  C   UNL     1      -2.161  15.332  22.712  0.00  0.00    +0.000 A 
ATOM     20  C   UNL     1      -3.015  16.439  22.820  0.00  0.00    +0.000 A 
ATOM     21  C   UNL     1      -3.709  16.649  24.001  0.00  0.00    +0.000 A 
ATOM     22  N   UNL     1      -3.630  15.832  25.070  0.00  0.00    +0.000 NA
ATOM     23  C   UNL     1      -2.834  14.751  24.945  0.00  0.00    +0.000 A 
ATOM     24  C   UNL     1      -2.099  14.461  23.807  0.00  0.00    +0.000 A 
ENDBRANCH   3  19
BRANCH   9  25
ATOM     25  C   UNL     1       1.720   8.484  19.277  0.00  0.00    +0.000 A 
ATOM     26  C   UNL     1       1.724   7.502  20.275  0.00  0.00    +0.000 A 
ATOM     27  C   UNL     1       2.339   6.259  20.077  0.00  0.00    +0.000 A 
ATOM     28  C   UNL     1       2.972   5.977  18.873  0.00  0.00    +0.000 A 
ATOM     29  C   UNL     1       2.983   6.934  17.864  0.00  0.00    +0.000 A 
ATOM     30  C   UNL     1       2.361   8.166  18.070  0.00  0.00    +0.000 A 
ENDBRANCH   9  25
TORSDOF 3
ENDMDL
MODEL 3
REMARK VINA RESULT:      -7.3      6.707     11.133
REMARK  Name = 
REMARK  3 active torsions:
REMARK  status: ('A' for Active; 'I' for Inactive)
REMARK    1  A    between atoms: C_4  and  C_5
REMARK    2  A    between atoms: C_7  and  C_8
REMARK    3  A    between atoms: N_19  and  C_20
REMARK                            x       y       z     vdW  Elec       q    Type
REMARK                         _______ _______ _______ _____ _____    ______ ____
ROOT
ATOM      1  C   UNL     1      -0.403  15.690  19.386  0.00  0.00    +0.000 A 
ATOM      2  C   UNL     1      -1.383  15.951  20.317  0.00  0.00    +0.000 A 
ATOM      3  C   UNL     1      -1.738  14.922  21.158  0.00  0.00    +0.000 A 
ATOM      4  N   UNL     1      -1.150  13.711  21.082  0.00  0.00    +0.000 NA
ATOM      5  C   UNL     1      -0.191  13.523  20.162  0.00  0.00    +0.000 A 
ATOM      6  N   UNL     1       0.370  12.284  20.041  0.00  0.00    +0.000 N 
ATOM      7  C   UNL     1      -0.021  11.174  20.911  0.00  0.00    +0.000 C 
ATOM      8  C   UNL     1      -0.094   9.860  20.090  0.00  0.00    +0.000 C 
ATOM      9  N   UNL     1       1.165   9.668  19.351  0.00  0.00    +0.000 N 
ATOM     10  C   UNL     1       1.533  10.794  18.468  0.00  0.00    +0.000 C 
ATOM     11  C   UNL     1       1.614  12.098  19.288  0.00  0.00    +0.000 C 
ATOM     12  N   UNL     1       0.201  14.490  19.322  0.00  0.00    +0.000 NA
ENDROOT
BRANCH   1  16
ATOM     13  C   UNL     1       0.889  18.631  16.525  0.00  0.00    +0.000 A 
ATOM     14  C   UNL     1      -0.455  18.544  16.881  0.00  0.00    +0.000 A 
ATOM     15  C   UNL     1      -0.872  17.596  17.821  0.00  0.00    +0.000 A 
ATOM     16  C   UNL     1       0.043  16.712  18.421  0.00  0.00    +0.000 A 
ATOM     17  C   UNL     1       1.399  16.837  18.054  0.00  0.00    +0.000 A 
ATOM     18  C   UNL     1       1.817  17.779  17.114  0.00  0.00    +0.000 A 
ENDBRANCH   1  16
BRANCH   3  19
ATOM     19  C   UNL     1      -2.742  15.097  22.224  0.00  0.00    +0.000 A 
ATOM     20  C   UNL     1      -2.589  14.517  23.491  0.00  0.00    +0.000 A 
ATOM     21  C   UNL     1      -3.609  14.640  24.421  0.00  0.00    +0.000 A 
ATOM     22  N   UNL     1      -4.756  15.308  24.190  0.00  0.00    +0.000 NA
ATOM     23  C   UNL     1      -4.880  15.891  22.981  0.00  0.00    +0.000 A 
ATOM     24  C   UNL     1      -3.918  15.821  21.987  0.00  0.00    +0.000 A 
ENDBRANCH   3  19
BRANCH   9  25
ATOM     25  C   UNL     1       1.773   8.439  19.216  0.00  0.00    +0.000 A 
ATOM     26  C   UNL     1       1.731   7.460  20.216  0.00  0.00    +0.000 A 
ATOM     27  C   UNL     1       2.402   6.239  20.075  0.00  0.00    +0.000 A 
ATOM     28  C   UNL     1       3.138   5.976  18.926  0.00  0.00    +0.000 A 
ATOM     29  C   UNL     1       3.197   6.930  17.916  0.00  0.00    +0.000 A 
ATOM     30  C   UNL     1       2.519   8.140  18.065  0.00  0.00    +0.000 A 
ENDBRANCH   9  25
TORSDOF 3
ENDMDL
MODEL 4
REMARK VINA RESULT:      -7.3      6.746     11.211
REMARK  Name = 
REMARK  3 active torsions:
REMARK  status: ('A' for Active; 'I' for Inactive)
REMARK    1  A    between atoms: C_4  and  C_5
REMARK    2  A    between atoms: C_7  and  C_8
REMARK    3  A    between atoms: N_19  and  C_20
REMARK                            x       y       z     vdW  Elec       q    Type
REMARK                         _______ _______ _______ _____ _____    ______ ____
ROOT
ATOM      1  C   UNL     1      -0.457  15.738  19.410  0.00  0.00    +0.000 A 
ATOM      2  C   UNL     1      -1.444  16.019  20.328  0.00  0.00    +0.000 A 
ATOM      3  C   UNL     1      -1.813  15.004  21.180  0.00  0.00    +0.000 A 
ATOM      4  N   UNL     1      -1.233  13.789  21.127  0.00  0.00    +0.000 NA
ATOM      5  C   UNL     1      -0.266  13.581  20.219  0.00  0.00    +0.000 A 
ATOM      6  N   UNL     1       0.287  12.337  20.120  0.00  0.00    +0.000 N 
ATOM      7  C   UNL     1      -0.119  11.242  21.002  0.00  0.00    +0.000 C 
ATOM      8  C   UNL     1      -0.193   9.917  20.199  0.00  0.00    +0.000 C 
ATOM      9  N   UNL     1       1.071   9.706  19.474  0.00  0.00    +0.000 N 
ATOM     10  C   UNL     1       1.454  10.817  18.579  0.00  0.00    +0.000 C 
ATOM     11  C   UNL     1       1.537  12.132  19.381  0.00  0.00    +0.000 C 
ATOM     12  N   UNL     1       0.139  14.534  19.368  0.00  0.00    +0.000 NA
ENDROOT
BRANCH   1  16
ATOM     13  C   UNL     1       0.881  18.629  16.520  0.00  0.00    +0.000 A 
ATOM     14  C   UNL     1      -0.471  18.536  16.841  0.00  0.00    +0.000 A 
ATOM     15  C   UNL     1      -0.903  17.603  17.791  0.00  0.00    +0.000 A 
ATOM     16  C   UNL     1       0.004  16.744  18.435  0.00  0.00    +0.000 A 
ATOM     17  C   UNL     1       1.368  16.876  18.103  0.00  0.00    +0.000 A 
ATOM     18  C   UNL     1       1.802  17.802  17.153  0.00  0.00    +0.000 A 
ENDBRANCH   1  16
BRANCH   3  19
ATOM     19  C   UNL     1      -2.825  15.201  22.235  0.00  0.00    +0.000 A 
ATOM     20  C   UNL     1      -3.762  14.209  22.561  0.00  0.00    +0.000 A 
ATOM     21  C   UNL     1      -4.746  14.485  23.496  0.00  0.00    +0.000 A 
ATOM     22  N   UNL     1      -4.857  15.664  24.140  0.00  0.00    +0.000 NA
ATOM     23  C   UNL     1      -3.932  16.600  23.845  0.00  0.00    +0.000 A 
ATOM     24  C   UNL     1      -2.914  16.417  22.924  0.00  0.00    +0.000 A 
ENDBRANCH   3  19
BRANCH   9  25
ATOM     25  C   UNL     1       1.672   8.471  19.362  0.00  0.00    +0.000 A 
ATOM     26  C   UNL     1       2.341   8.059  18.203  0.00  0.00    +0.000 A 
ATOM     27  C   UNL     1       2.898   6.778  18.096  0.00  0.00    +0.000 A 
ATOM     28  C   UNL     1       2.789   5.879  19.149  0.00  0.00    +0.000 A 
ATOM     29  C   UNL     1       2.129   6.262  20.312  0.00  0.00    +0.000 A 
ATOM     30  C   UNL     1       1.584   7.543  20.410  0.00  0.00    +0.000 A 
ENDBRANCH   9  25
TORSDOF 3
ENDMDL
MODEL 5
REMARK VINA RESULT:      -7.3      6.710     11.192
REMARK  Name = 
REMARK  3 active torsions:
REMARK  status: ('A' for Active; 'I' for Inactive)
REMARK    1  A    between atoms: C_4  and  C_5
REMARK    2  A    between atoms: C_7  and  C_8
REMARK    3  A    between atoms: N_19  and  C_20
REMARK                            x       y       z     vdW  Elec       q    Type
REMARK                         _______ _______ _______ _____ _____    ______ ____
ROOT
ATOM      1  C   UNL     1      -0.425  15.588  19.348  0.00  0.00    +0.000 A 
ATOM      2  C   UNL     1      -1.419  15.835  20.268  0.00  0.00    +0.000 A 
ATOM      3  C   UNL     1      -1.768  14.801  21.105  0.00  0.00    +0.000 A 
ATOM      4  N   UNL     1      -1.164  13.598  21.035  0.00  0.00    +0.000 NA
ATOM      5  C   UNL     1      -0.192  13.423  20.126  0.00  0.00    +0.000 A 
ATOM      6  N   UNL     1       0.386  12.192  20.010  0.00  0.00    +0.000 N 
ATOM      7  C   UNL     1       0.002  11.076  20.876  0.00  0.00    +0.000 C 
ATOM      8  C   UNL     1      -0.045   9.762  20.053  0.00  0.00    +0.000 C 
ATOM      9  N   UNL     1       1.224   9.587  19.328  0.00  0.00    +0.000 N 
ATOM     10  C   UNL     1       1.585  10.718  18.449  0.00  0.00    +0.000 C 
ATOM     11  C   UNL     1       1.640  12.023  19.270  0.00  0.00    +0.000 C 
ATOM     12  N   UNL     1       0.195  14.396  19.289  0.00  0.00    +0.000 NA
ENDROOT
BRANCH   1  16
ATOM     13  C   UNL     1       0.875  18.626  16.595  0.00  0.00    +0.000 A 
ATOM     14  C   UNL     1       1.794  17.725  17.127  0.00  0.00    +0.000 A 
ATOM     15  C   UNL     1       1.367  16.729  18.012  0.00  0.00    +0.000 A 
ATOM     16  C   UNL     1       0.017  16.616  18.387  0.00  0.00    +0.000 A 
ATOM     17  C   UNL     1      -0.892  17.531  17.818  0.00  0.00    +0.000 A 
ATOM     18  C   UNL     1      -0.469  18.527  16.937  0.00  0.00    +0.000 A 
ENDBRANCH   1  16
BRANCH   3  19
ATOM     19  C   UNL     1      -2.786  14.962  22.161  0.00  0.00    +0.000 A 
ATOM     20  C   UNL     1      -2.540  14.597  23.492  0.00  0.00    +0.000 A 
ATOM     21  C   UNL     1      -3.565  14.686  24.421  0.00  0.00    +0.000 A 
ATOM     22  N   UNL     1      -4.805  15.125  24.127  0.00  0.00    +0.000 NA
ATOM     23  C   UNL     1      -5.022  15.505  22.852  0.00  0.00    +0.000 A 
ATOM     24  C   UNL     1      -4.063  15.450  21.855  0.00  0.00    +0.000 A 
ENDBRANCH   3  19
BRANCH   9  25
ATOM     25  C   UNL     1       1.850   8.366  19.199  0.00  0.00    +0.000 A 
ATOM     26  C   UNL     1       2.528   7.984  18.035  0.00  0.00    +0.000 A 
ATOM     27  C   UNL     1       3.110   6.716  17.910  0.00  0.00    +0.000 A 
ATOM     28  C   UNL     1       3.018   5.800  18.951  0.00  0.00    +0.000 A 
ATOM     29  C   UNL     1       2.351   6.153  20.118  0.00  0.00    +0.000 A 
ATOM     30  C   UNL     1       1.780   7.421  20.234  0.00  0.00    +0.000 A 
ENDBRANCH   9  25
TORSDOF 3
ENDMDL
MODEL 6
REMARK VINA RESULT:      -7.2      6.577     10.870
REMARK  Name = 
REMARK  3 active torsions:
REMARK  status: ('A' for Active; 'I' for Inactive)
REMARK    1  A    between atoms: C_4  and  C_5
REMARK    2  A    between atoms: C_7  and  C_8
REMARK    3  A    between atoms: N_19  and  C_20
REMARK                            x       y       z     vdW  Elec       q    Type
REMARK                         _______ _______ _______ _____ _____    ______ ____
ROOT
ATOM      1  C   UNL     1      -0.038  15.515  19.772  0.00  0.00    +0.000 A 
ATOM      2  C   UNL     1      -0.774  15.803  20.899  0.00  0.00    +0.000 A 
ATOM      3  C   UNL     1      -0.944  14.788  21.812  0.00  0.00    +0.000 A 
ATOM      4  N   UNL     1      -0.410  13.565  21.619  0.00  0.00    +0.000 NA
ATOM      5  C   UNL     1       0.309  13.351  20.506  0.00  0.00    +0.000 A 
ATOM      6  N   UNL     1       0.805  12.100  20.274  0.00  0.00    +0.000 N 
ATOM      7  C   UNL     1       0.606  11.005  21.225  0.00  0.00    +0.000 C 
ATOM      8  C   UNL     1       0.324   9.686  20.458  0.00  0.00    +0.000 C 
ATOM      9  N   UNL     1       1.377   9.463  19.453  0.00  0.00    +0.000 N 
ATOM     10  C   UNL     1       1.551  10.575  18.495  0.00  0.00    +0.000 C 
ATOM     11  C   UNL     1       1.840  11.884  19.259  0.00  0.00    +0.000 C 
ATOM     12  N   UNL     1       0.514  14.303  19.586  0.00  0.00    +0.000 NA
ENDROOT
BRANCH   1  16
ATOM     13  C   UNL     1       0.642  18.491  16.742  0.00  0.00    +0.000 A 
ATOM     14  C   UNL     1       1.709  17.753  17.249  0.00  0.00    +0.000 A 
ATOM     15  C   UNL     1       1.485  16.777  18.225  0.00  0.00    +0.000 A 
ATOM     16  C   UNL     1       0.192  16.521  18.718  0.00  0.00    +0.000 A 
ATOM     17  C   UNL     1      -0.869  17.271  18.172  0.00  0.00    +0.000 A 
ATOM     18  C   UNL     1      -0.647  18.248  17.200  0.00  0.00    +0.000 A 
ENDBRANCH   1  16
BRANCH   3  19
ATOM     19  C   UNL     1      -1.673  14.991  23.077  0.00  0.00    +0.000 A 
ATOM     20  C   UNL     1      -1.045  15.496  24.225  0.00  0.00    +0.000 A 
ATOM     21  C   UNL     1      -1.760  15.578  25.410  0.00  0.00    +0.000 A 
ATOM     22  N   UNL     1      -3.051  15.213  25.531  0.00  0.00    +0.000 NA
ATOM     23  C   UNL     1      -3.657  14.761  24.414  0.00  0.00    +0.000 A 
ATOM     24  C   UNL     1      -3.025  14.640  23.188  0.00  0.00    +0.000 A 
ENDBRANCH   3  19
BRANCH   9  25
ATOM     25  C   UNL     1       1.916   8.222  19.197  0.00  0.00    +0.000 A 
ATOM     26  C   UNL     1       2.499   7.890  17.968  0.00  0.00    +0.000 A 
ATOM     27  C   UNL     1       2.993   6.603  17.716  0.00  0.00    +0.000 A 
ATOM     28  C   UNL     1       2.905   5.618  18.692  0.00  0.00    +0.000 A 
ATOM     29  C   UNL     1       2.330   5.920  19.922  0.00  0.00    +0.000 A 
ATOM     30  C   UNL     1       1.848   7.207  20.164  0.00  0.00    +0.000 A 
ENDBRANCH   9  25
TORSDOF 3
ENDMDL
MODEL 7
REMARK VINA RESULT:      -7.1      6.684     11.181
REMARK  Name = 
REMARK  3 active torsions:
REMARK  status: ('A' for Active; 'I' for Inactive)
REMARK    1  A    between atoms: C_4  and  C_5
REMARK    2  A    between atoms: C_7  and  C_8
REMARK    3  A    between atoms: N_19  and  C_20
REMARK                            x       y       z     vdW  Elec       q    Type
REMARK                         _______ _______ _______ _____ _____    ______ ____
ROOT
ATOM      1  C   UNL     1      -0.476  15.383  19.364  0.00  0.00    +0.000 A 
ATOM      2  C   UNL     1      -1.502  15.541  20.268  0.00  0.00    +0.000 A 
ATOM      3  C   UNL     1      -1.833  14.450  21.038  0.00  0.00    +0.000 A 
ATOM      4  N   UNL     1      -1.180  13.277  20.921  0.00  0.00    +0.000 NA
ATOM      5  C   UNL     1      -0.179  13.189  20.031  0.00  0.00    +0.000 A 
ATOM      6  N   UNL     1       0.450  11.989  19.865  0.00  0.00    +0.000 N 
ATOM      7  C   UNL     1       0.087  10.813  20.658  0.00  0.00    +0.000 C 
ATOM      8  C   UNL     1       0.113   9.546  19.765  0.00  0.00    +0.000 C 
ATOM      9  N   UNL     1       1.407   9.459  19.067  0.00  0.00    +0.000 N 
ATOM     10  C   UNL     1       1.747  10.650  18.261  0.00  0.00    +0.000 C 
ATOM     11  C   UNL     1       1.729  11.908  19.153  0.00  0.00    +0.000 C 
ATOM     12  N   UNL     1       0.192  14.220  19.260  0.00  0.00    +0.000 NA
ENDROOT
BRANCH   1  16
ATOM     13  C   UNL     1       0.775  18.616  16.818  0.00  0.00    +0.000 A 
ATOM     14  C   UNL     1       1.717  17.733  17.341  0.00  0.00    +0.000 A 
ATOM     15  C   UNL     1       1.307  16.674  18.159  0.00  0.00    +0.000 A 
ATOM     16  C   UNL     1      -0.049  16.479  18.474  0.00  0.00    +0.000 A 
ATOM     17  C   UNL     1      -0.980  17.378  17.915  0.00  0.00    +0.000 A 
ATOM     18  C   UNL     1      -0.574  18.437  17.102  0.00  0.00    +0.000 A 
ENDBRANCH   1  16
BRANCH   3  19
ATOM     19  C   UNL     1      -2.883  14.514  22.072  0.00  0.00    +0.000 A 
ATOM     20  C   UNL     1      -3.574  15.701  22.358  0.00  0.00    +0.000 A 
ATOM     21  C   UNL     1      -4.485  15.722  23.402  0.00  0.00    +0.000 A 
ATOM     22  N   UNL     1      -4.770  14.650  24.167  0.00  0.00    +0.000 NA
ATOM     23  C   UNL     1      -4.126  13.504  23.863  0.00  0.00    +0.000 A 
ATOM     24  C   UNL     1      -3.198  13.388  22.842  0.00  0.00    +0.000 A 
ENDBRANCH   3  19
BRANCH   9  25
ATOM     25  C   UNL     1       2.083   8.272  18.889  0.00  0.00    +0.000 A 
ATOM     26  C   UNL     1       2.069   7.244  19.841  0.00  0.00    +0.000 A 
ATOM     27  C   UNL     1       2.809   6.069  19.660  0.00  0.00    +0.000 A 
ATOM     28  C   UNL     1       3.585   5.901  18.519  0.00  0.00    +0.000 A 
ATOM     29  C   UNL     1       3.617   6.905  17.558  0.00  0.00    +0.000 A 
ATOM     30  C   UNL     1       2.871   8.069  17.746  0.00  0.00    +0.000 A 
ENDBRANCH   9  25
TORSDOF 3
ENDMDL
MODEL 8
REMARK VINA RESULT:      -7.1      0.725      1.583
REMARK  Name = 
REMARK  3 active torsions:
REMARK  status: ('A' for Active; 'I' for Inactive)
REMARK    1  A    between atoms: C_4  and  C_5
REMARK    2  A    between atoms: C_7  and  C_8
REMARK    3  A    between atoms: N_19  and  C_20
REMARK                            x       y       z     vdW  Elec       q    Type
REMARK                         _______ _______ _______ _____ _____    ______ ____
ROOT
ATOM      1  C   UNL     1       7.808  13.869  22.215  0.00  0.00    +0.000 A 
ATOM      2  C   UNL     1       8.877  13.454  21.454  0.00  0.00    +0.000 A 
ATOM      3  C   UNL     1       8.824  13.715  20.105  0.00  0.00    +0.000 A 
ATOM      4  N   UNL     1       7.776  14.353  19.548  0.00  0.00    +0.000 NA
ATOM      5  C   UNL     1       6.770  14.746  20.346  0.00  0.00    +0.000 A 
ATOM      6  N   UNL     1       5.678  15.343  19.782  0.00  0.00    +0.000 N 
ATOM      7  C   UNL     1       5.598  15.599  18.344  0.00  0.00    +0.000 C 
ATOM      8  C   UNL     1       4.159  15.317  17.838  0.00  0.00    +0.000 C 
ATOM      9  N   UNL     1       3.190  16.057  18.664  0.00  0.00    +0.000 N 
ATOM     10  C   UNL     1       3.279  15.773  20.111  0.00  0.00    +0.000 C 
ATOM     11  C   UNL     1       4.709  16.062  20.614  0.00  0.00    +0.000 C 
ATOM     12  N   UNL     1       6.771  14.526  21.667  0.00  0.00    +0.000 NA
ENDROOT
BRANCH   1  16
ATOM     13  C   UNL     1       7.575  13.155  26.450  0.00  0.00    +0.000 A 
ATOM     14  C   UNL     1       7.753  12.090  25.570  0.00  0.00    +0.000 A 
ATOM     15  C   UNL     1       7.841  12.325  24.194  0.00  0.00    +0.000 A 
ATOM     16  C   UNL     1       7.750  13.626  23.669  0.00  0.00    +0.000 A 
ATOM     17  C   UNL     1       7.589  14.685  24.586  0.00  0.00    +0.000 A 
ATOM     18  C   UNL     1       7.496  14.453  25.959  0.00  0.00    +0.000 A 
ENDBRANCH   1  16
BRANCH   3  19
ATOM     19  C   UNL     1       9.930  13.358  19.197  0.00  0.00    +0.000 A 
ATOM     20  C   UNL     1       9.971  13.799  17.866  0.00  0.00    +0.000 A 
ATOM     21  C   UNL     1      10.988  13.356  17.035  0.00  0.00    +0.000 A 
ATOM     22  N   UNL     1      11.972  12.525  17.434  0.00  0.00    +0.000 NA
ATOM     23  C   UNL     1      11.943  12.134  18.724  0.00  0.00    +0.000 A 
ATOM     24  C   UNL     1      10.967  12.520  19.627  0.00  0.00    +0.000 A 
ENDBRANCH   3  19
BRANCH   9  25
ATOM     25  C   UNL     1       2.084  16.686  18.136  0.00  0.00    +0.000 A 
ATOM     26  C   UNL     1       2.171  17.632  17.107  0.00  0.00    +0.000 A 
ATOM     27  C   UNL     1       1.036  18.296  16.625  0.00  0.00    +0.000 A 
ATOM     28  C   UNL     1      -0.213  18.030  17.172  0.00  0.00    +0.000 A 
ATOM     29  C   UNL     1      -0.329  17.096  18.195  0.00  0.00    +0.000 A 
ATOM     30  C   UNL     1       0.808  16.435  18.663  0.00  0.00    +0.000 A 
ENDBRANCH   9  25
TORSDOF 3
ENDMDL
MODEL 9
REMARK VINA RESULT:      -7.0      0.995      1.434
REMARK  Name = 
REMARK  3 active torsions:
REMARK  status: ('A' for Active; 'I' for Inactive)
REMARK    1  A    between atoms: C_4  and  C_5
REMARK    2  A    between atoms: C_7  and  C_8
REMARK    3  A    between atoms: N_19  and  C_20
REMARK                            x       y       z     vdW  Elec       q    Type
REMARK                         _______ _______ _______ _____ _____    ______ ____
ROOT
ATOM      1  C   UNL     1       7.248  13.902  22.307  0.00  0.00    +0.000 A 
ATOM      2  C   UNL     1       8.371  13.558  21.588  0.00  0.00    +0.000 A 
ATOM      3  C   UNL     1       8.400  13.920  20.262  0.00  0.00    +0.000 A 
ATOM      4  N   UNL     1       7.379  14.586  19.687  0.00  0.00    +0.000 NA
ATOM      5  C   UNL     1       6.317  14.905  20.444  0.00  0.00    +0.000 A 
ATOM      6  N   UNL     1       5.255  15.529  19.857  0.00  0.00    +0.000 N 
ATOM      7  C   UNL     1       5.262  15.892  18.439  0.00  0.00    +0.000 C 
ATOM      8  C   UNL     1       3.864  15.631  17.820  0.00  0.00    +0.000 C 
ATOM      9  N   UNL     1       2.831  16.295  18.634  0.00  0.00    +0.000 N 
ATOM     10  C   UNL     1       2.832  15.903  20.059  0.00  0.00    +0.000 C 
ATOM     11  C   UNL     1       4.221  16.171  20.675  0.00  0.00    +0.000 C 
ATOM     12  N   UNL     1       6.237  14.586  21.743  0.00  0.00    +0.000 NA
ENDROOT
BRANCH   1  16
ATOM     13  C   UNL     1       6.829  12.934  26.477  0.00  0.00    +0.000 A 
ATOM     14  C   UNL     1       5.716  13.321  25.733  0.00  0.00    +0.000 A 
ATOM     15  C   UNL     1       5.852  13.623  24.374  0.00  0.00    +0.000 A 
ATOM     16  C   UNL     1       7.101  13.549  23.732  0.00  0.00    +0.000 A 
ATOM     17  C   UNL     1       8.204  13.137  24.506  0.00  0.00    +0.000 A 
ATOM     18  C   UNL     1       8.072  12.838  25.863  0.00  0.00    +0.000 A 
ENDBRANCH   1  16
BRANCH   3  19
ATOM     19  C   UNL     1       9.568  13.646  19.404  0.00  0.00    +0.000 A 
ATOM     20  C   UNL     1       9.463  12.904  18.219  0.00  0.00    +0.000 A 
ATOM     21  C   UNL     1      10.611  12.602  17.503  0.00  0.00    +0.000 A 
ATOM     22  N   UNL     1      11.847  12.996  17.869  0.00  0.00    +0.000 NA
ATOM     23  C   UNL     1      11.934  13.738  18.992  0.00  0.00    +0.000 A 
ATOM     24  C   UNL     1      10.846  14.087  19.773  0.00  0.00    +0.000 A 
ENDBRANCH   3  19
BRANCH   9  25
ATOM     25  C   UNL     1       1.751  16.949  18.084  0.00  0.00    +0.000 A 
ATOM     26  C   UNL     1       1.868  17.814  16.989  0.00  0.00    +0.000 A 
ATOM     27  C   UNL     1       0.762  18.507  16.482  0.00  0.00    +0.000 A 
ATOM     28  C   UNL     1      -0.489  18.352  17.069  0.00  0.00    +0.000 A 
ATOM     29  C   UNL     1      -0.634  17.499  18.157  0.00  0.00    +0.000 A 
ATOM     30  C   UNL     1       0.474  16.808  18.650  0.00  0.00    +0.000 A 
ENDBRANCH   9  25
TORSDOF 3
ENDMDL
