MODEL 1
REMARK VINA RESULT:      -7.7      0.000      0.000
REMARK  Name = 
REMARK  9 active torsions:
REMARK  status: ('A' for Active; 'I' for Inactive)
REMARK    1  A    between atoms: C_2  and  C_3
REMARK    2  A    between atoms: C_3  and  N_4
REMARK    3  A    between atoms: C_14  and  S_15
REMARK    4  A    between atoms: S_15  and  C_16
REMARK    5  A    between atoms: C_16  and  C_17
REMARK    6  A    between atoms: C_17  and  O_18
REMARK    7  A    between atoms: C_19  and  C_20
REMARK    8  A    between atoms: C_19  and  C_22
REMARK    9  A    between atoms: C_22  and  C_23
REMARK                            x       y       z     vdW  Elec       q    Type
REMARK                         _______ _______ _______ _____ _____    ______ ____
ROOT
ATOM      1  N   UNL     1       3.070   4.207  19.969  0.00  0.00    +0.000 N 
ATOM      2  C   UNL     1       3.931   3.696  19.003  0.00  0.00    +0.000 A 
ATOM      3  O   UNL     1       4.346   2.538  19.014  0.00  0.00    +0.000 OA
ATOM      4  C   UNL     1       4.362   4.598  17.900  0.00  0.00    +0.000 A 
ATOM      5  C   UNL     1       5.240   4.086  16.931  0.00  0.00    +0.000 A 
ATOM      6  C   UNL     1       5.671   4.887  15.879  0.00  0.00    +0.000 A 
ATOM      7  C   UNL     1       5.227   6.202  15.791  0.00  0.00    +0.000 A 
ATOM      8  C   UNL     1       4.351   6.721  16.750  0.00  0.00    +0.000 A 
ATOM      9  C   UNL     1       3.913   5.925  17.812  0.00  0.00    +0.000 A 
ATOM     10  N   UNL     1       3.026   6.366  18.820  0.00  0.00    +0.000 N 
ATOM     11  C   UNL     1       2.358   7.557  19.076  0.00  0.00    +0.000 A 
ATOM     12  N   UNL     1       1.622   7.427  20.159  0.00  0.00    +0.000 NA
ATOM     13  N   UNL     1       1.791   6.153  20.643  0.00  0.00    +0.000 NA
ATOM     14  C   UNL     1       2.630   5.522  19.852  0.00  0.00    +0.000 A 
ENDROOT
BRANCH   1  15
ATOM     15  C   UNL     1       2.622   3.321  21.038  0.00  0.00    +0.000 C 
BRANCH  15  17
ATOM     16  C   UNL     1       0.749   2.722  19.479  0.00  0.00    +0.000 C 
ATOM     17  C   UNL     1       1.281   2.729  20.709  0.00  0.00    +0.000 C 
ENDBRANCH  15  17
ENDBRANCH   1  15
BRANCH  11  18
ATOM     18  S   UNL     1       2.428   9.029  18.143  0.00  0.00    +0.000 S 
BRANCH  18  19
ATOM     19  C   UNL     1       0.658   9.398  17.857  0.00  0.00    +0.000 C 
BRANCH  19  20
ATOM     20  C   UNL     1       0.042  10.319  18.912  0.00  0.00    +0.000 C 
ATOM     21  C   UNL     1      -1.140  10.978  18.806  0.00  0.00    +0.000 C 
BRANCH  21  22
ATOM     22  C   UNL     1      -2.052  10.917  17.604  0.00  0.00    +0.000 C 
ATOM     23  C   UNL     1      -3.060   9.780  17.472  0.00  0.00    +0.000 C 
ATOM     24  N   UNL     1      -2.040  11.731  16.601  0.00  0.00    +0.000 NA
ATOM     25  H   UNL     1      -1.314  12.439  16.639  0.00  0.00    +0.000 HD
ENDBRANCH  21  22
BRANCH  20  26
ATOM     26  O   UNL     1       0.785  10.487  20.087  0.00  0.00    +0.000 OA
ATOM     27  H   UNL     1       1.666  10.843  19.857  0.00  0.00    +0.000 HD
ENDBRANCH  20  26
BRANCH  21  28
ATOM     28  C   UNL     1      -1.570  11.831  19.883  0.00  0.00    +0.000 C 
ATOM     29  N   UNL     1      -1.950  12.516  20.736  0.00  0.00    +0.000 NA
ENDBRANCH  21  28
ENDBRANCH  19  20
ENDBRANCH  18  19
ENDBRANCH  11  18
TORSDOF 8
ENDMDL
MODEL 2
REMARK VINA RESULT:      -7.4      1.959      2.298
REMARK  Name = 
REMARK  9 active torsions:
REMARK  status: ('A' for Active; 'I' for Inactive)
REMARK    1  A    between atoms: C_2  and  C_3
REMARK    2  A    between atoms: C_3  and  N_4
REMARK    3  A    between atoms: C_14  and  S_15
REMARK    4  A    between atoms: S_15  and  C_16
REMARK    5  A    between atoms: C_16  and  C_17
REMARK    6  A    between atoms: C_17  and  O_18
REMARK    7  A    between atoms: C_19  and  C_20
REMARK    8  A    between atoms: C_19  and  C_22
REMARK    9  A    between atoms: C_22  and  C_23
REMARK                            x       y       z     vdW  Elec       q    Type
REMARK                         _______ _______ _______ _____ _____    ______ ____
ROOT
ATOM      1  N   UNL     1       3.075   4.384  20.106  0.00  0.00    +0.000 N 
ATOM      2  C   UNL     1       3.965   3.847  19.182  0.00  0.00    +0.000 A 
ATOM      3  O   UNL     1       4.418   2.707  19.265  0.00  0.00    +0.000 OA
ATOM      4  C   UNL     1       4.382   4.700  18.034  0.00  0.00    +0.000 A 
ATOM      5  C   UNL     1       5.289   4.163  17.107  0.00  0.00    +0.000 A 
ATOM      6  C   UNL     1       5.708   4.917  16.016  0.00  0.00    +0.000 A 
ATOM      7  C   UNL     1       5.222   6.209  15.848  0.00  0.00    +0.000 A 
ATOM      8  C   UNL     1       4.316   6.752  16.765  0.00  0.00    +0.000 A 
ATOM      9  C   UNL     1       3.890   6.004  17.865  0.00  0.00    +0.000 A 
ATOM     10  N   UNL     1       2.976   6.471  18.836  0.00  0.00    +0.000 N 
ATOM     11  C   UNL     1       2.264   7.651  19.015  0.00  0.00    +0.000 A 
ATOM     12  N   UNL     1       1.518   7.558  20.094  0.00  0.00    +0.000 NA
ATOM     13  N   UNL     1       1.722   6.321  20.652  0.00  0.00    +0.000 NA
ATOM     14  C   UNL     1       2.593   5.674  19.909  0.00  0.00    +0.000 A 
ENDROOT
BRANCH   1  15
ATOM     15  C   UNL     1       2.641   3.545  21.220  0.00  0.00    +0.000 C 
BRANCH  15  17
ATOM     16  C   UNL     1       0.840   2.597  19.751  0.00  0.00    +0.000 C 
ATOM     17  C   UNL     1       1.271   2.985  20.959  0.00  0.00    +0.000 C 
ENDBRANCH  15  17
ENDBRANCH   1  15
BRANCH  11  18
ATOM     18  S   UNL     1       2.299   9.070  17.999  0.00  0.00    +0.000 S 
BRANCH  18  19
ATOM     19  C   UNL     1       0.815   9.986  18.554  0.00  0.00    +0.000 C 
BRANCH  19  20
ATOM     20  C   UNL     1       1.130  11.336  19.201  0.00  0.00    +0.000 C 
ATOM     21  C   UNL     1       1.045  11.628  20.524  0.00  0.00    +0.000 C 
BRANCH  21  22
ATOM     22  C   UNL     1       0.607  10.654  21.592  0.00  0.00    +0.000 C 
ATOM     23  C   UNL     1      -0.809  10.730  22.155  0.00  0.00    +0.000 C 
ATOM     24  N   UNL     1       1.348   9.752  22.145  0.00  0.00    +0.000 NA
ATOM     25  H   UNL     1       2.315   9.752  21.838  0.00  0.00    +0.000 HD
ENDBRANCH  21  22
BRANCH  20  26
ATOM     26  O   UNL     1       1.540  12.351  18.329  0.00  0.00    +0.000 OA
ATOM     27  H   UNL     1       1.977  11.947  17.554  0.00  0.00    +0.000 HD
ENDBRANCH  20  26
BRANCH  21  28
ATOM     28  C   UNL     1       1.354  12.960  20.972  0.00  0.00    +0.000 C 
ATOM     29  N   UNL     1       1.598  14.045  21.299  0.00  0.00    +0.000 NA
ENDBRANCH  21  28
ENDBRANCH  19  20
ENDBRANCH  18  19
ENDBRANCH  11  18
TORSDOF 8
ENDMDL
MODEL 3
REMARK VINA RESULT:      -7.2      1.371      3.621
REMARK  Name = 
REMARK  9 active torsions:
REMARK  status: ('A' for Active; 'I' for Inactive)
REMARK    1  A    between atoms: C_2  and  C_3
REMARK    2  A    between atoms: C_3  and  N_4
REMARK    3  A    between atoms: C_14  and  S_15
REMARK    4  A    between atoms: S_15  and  C_16
REMARK    5  A    between atoms: C_16  and  C_17
REMARK    6  A    between atoms: C_17  and  O_18
REMARK    7  A    between atoms: C_19  and  C_20
REMARK    8  A    between atoms: C_19  and  C_22
REMARK    9  A    between atoms: C_22  and  C_23
REMARK                            x       y       z     vdW  Elec       q    Type
REMARK                         _______ _______ _______ _____ _____    ______ ____
ROOT
ATOM      1  N   UNL     1       4.217   5.035  17.107  0.00  0.00    +0.000 N 
ATOM      2  C   UNL     1       3.901   3.816  17.698  0.00  0.00    +0.000 A 
ATOM      3  O   UNL     1       4.378   2.744  17.331  0.00  0.00    +0.000 OA
ATOM      4  C   UNL     1       2.940   3.817  18.836  0.00  0.00    +0.000 A 
ATOM      5  C   UNL     1       2.613   2.586  19.426  0.00  0.00    +0.000 A 
ATOM      6  C   UNL     1       1.722   2.533  20.493  0.00  0.00    +0.000 A 
ATOM      7  C   UNL     1       1.157   3.709  20.975  0.00  0.00    +0.000 A 
ATOM      8  C   UNL     1       1.479   4.940  20.396  0.00  0.00    +0.000 A 
ATOM      9  C   UNL     1       2.371   5.005  19.322  0.00  0.00    +0.000 A 
ATOM     10  N   UNL     1       2.756   6.204  18.681  0.00  0.00    +0.000 N 
ATOM     11  C   UNL     1       2.450   7.548  18.865  0.00  0.00    +0.000 A 
ATOM     12  N   UNL     1       3.112   8.275  17.991  0.00  0.00    +0.000 NA
ATOM     13  N   UNL     1       3.863   7.432  17.211  0.00  0.00    +0.000 NA
ATOM     14  C   UNL     1       3.649   6.199  17.615  0.00  0.00    +0.000 A 
ENDROOT
BRANCH   1  15
ATOM     15  C   UNL     1       5.178   5.045  16.009  0.00  0.00    +0.000 C 
BRANCH  15  17
ATOM     16  C   UNL     1       7.213   6.176  16.947  0.00  0.00    +0.000 C 
ATOM     17  C   UNL     1       6.585   5.066  16.535  0.00  0.00    +0.000 C 
ENDBRANCH  15  17
ENDBRANCH   1  15
BRANCH  11  18
ATOM     18  S   UNL     1       1.375   8.232  20.057  0.00  0.00    +0.000 S 
BRANCH  18  19
ATOM     19  C   UNL     1       1.043   9.898  19.374  0.00  0.00    +0.000 C 
BRANCH  19  20
ATOM     20  C   UNL     1       0.152  10.764  20.267  0.00  0.00    +0.000 C 
ATOM     21  C   UNL     1      -0.973  11.418  19.880  0.00  0.00    +0.000 C 
BRANCH  21  22
ATOM     22  C   UNL     1      -1.533  11.407  18.477  0.00  0.00    +0.000 C 
ATOM     23  C   UNL     1      -2.295  10.187  17.972  0.00  0.00    +0.000 C 
ATOM     24  N   UNL     1      -1.389  12.342  17.597  0.00  0.00    +0.000 NA
ATOM     25  H   UNL     1      -0.809  13.120  17.895  0.00  0.00    +0.000 HD
ENDBRANCH  21  22
BRANCH  20  26
ATOM     26  O   UNL     1       0.553  10.880  21.603  0.00  0.00    +0.000 OA
ATOM     27  H   UNL     1       1.503  10.662  21.669  0.00  0.00    +0.000 HD
ENDBRANCH  20  26
BRANCH  21  28
ATOM     28  C   UNL     1      -1.690  12.215  20.840  0.00  0.00    +0.000 C 
ATOM     29  N   UNL     1      -2.238  12.879  21.615  0.00  0.00    +0.000 NA
ENDBRANCH  21  28
ENDBRANCH  19  20
ENDBRANCH  18  19
ENDBRANCH  11  18
TORSDOF 8
ENDMDL
MODEL 4
REMARK VINA RESULT:      -7.1      2.106      4.125
REMARK  Name = 
REMARK  9 active torsions:
REMARK  status: ('A' for Active; 'I' for Inactive)
REMARK    1  A    between atoms: C_2  and  C_3
REMARK    2  A    between atoms: C_3  and  N_4
REMARK    3  A    between atoms: C_14  and  S_15
REMARK    4  A    between atoms: S_15  and  C_16
REMARK    5  A    between atoms: C_16  and  C_17
REMARK    6  A    between atoms: C_17  and  O_18
REMARK    7  A    between atoms: C_19  and  C_20
REMARK    8  A    between atoms: C_19  and  C_22
REMARK    9  A    between atoms: C_22  and  C_23
REMARK                            x       y       z     vdW  Elec       q    Type
REMARK                         _______ _______ _______ _____ _____    ______ ____
ROOT
ATOM      1  N   UNL     1       4.260   5.889  17.711  0.00  0.00    +0.000 N 
ATOM      2  C   UNL     1       4.459   4.597  18.186  0.00  0.00    +0.000 A 
ATOM      3  O   UNL     1       5.259   3.809  17.684  0.00  0.00    +0.000 OA
ATOM      4  C   UNL     1       3.666   4.154  19.366  0.00  0.00    +0.000 A 
ATOM      5  C   UNL     1       3.860   2.846  19.839  0.00  0.00    +0.000 A 
ATOM      6  C   UNL     1       3.145   2.385  20.940  0.00  0.00    +0.000 A 
ATOM      7  C   UNL     1       2.236   3.228  21.571  0.00  0.00    +0.000 A 
ATOM      8  C   UNL     1       2.039   4.533  21.108  0.00  0.00    +0.000 A 
ATOM      9  C   UNL     1       2.750   5.006  20.003  0.00  0.00    +0.000 A 
ATOM     10  N   UNL     1       2.617   6.309  19.472  0.00  0.00    +0.000 N 
ATOM     11  C   UNL     1       1.862   7.426  19.811  0.00  0.00    +0.000 A 
ATOM     12  N   UNL     1       2.137   8.412  18.986  0.00  0.00    +0.000 NA
ATOM     13  N   UNL     1       3.072   7.969  18.083  0.00  0.00    +0.000 NA
ATOM     14  C   UNL     1       3.355   6.717  18.367  0.00  0.00    +0.000 A 
ENDROOT
BRANCH   1  15
ATOM     15  C   UNL     1       5.053   6.339  16.571  0.00  0.00    +0.000 C 
BRANCH  15  17
ATOM     16  C   UNL     1       7.376   6.641  17.471  0.00  0.00    +0.000 C 
ATOM     17  C   UNL     1       6.223   7.162  17.031  0.00  0.00    +0.000 C 
ENDBRANCH  15  17
ENDBRANCH   1  15
BRANCH  11  18
ATOM     18  S   UNL     1       0.720   7.570  21.122  0.00  0.00    +0.000 S 
BRANCH  18  19
ATOM     19  C   UNL     1       1.296   9.080  21.980  0.00  0.00    +0.000 C 
BRANCH  19  20
ATOM     20  C   UNL     1       0.167   9.905  22.601  0.00  0.00    +0.000 C 
ATOM     21  C   UNL     1      -0.530  10.896  21.989  0.00  0.00    +0.000 C 
BRANCH  21  22
ATOM     22  C   UNL     1      -0.293  11.363  20.572  0.00  0.00    +0.000 C 
ATOM     23  C   UNL     1      -0.988  10.656  19.413  0.00  0.00    +0.000 C 
ATOM     24  N   UNL     1       0.510  12.308  20.210  0.00  0.00    +0.000 NA
ATOM     25  H   UNL     1       1.043  12.725  20.967  0.00  0.00    +0.000 HD
ENDBRANCH  21  22
BRANCH  20  26
ATOM     26  O   UNL     1      -0.161   9.594  23.927  0.00  0.00    +0.000 OA
ATOM     27  H   UNL     1      -1.092   9.841  24.089  0.00  0.00    +0.000 HD
ENDBRANCH  20  26
BRANCH  21  28
ATOM     28  C   UNL     1      -1.551  11.596  22.722  0.00  0.00    +0.000 C 
ATOM     29  N   UNL     1      -2.348  12.169  23.338  0.00  0.00    +0.000 NA
ENDBRANCH  21  28
ENDBRANCH  19  20
ENDBRANCH  18  19
ENDBRANCH  11  18
TORSDOF 8
ENDMDL
MODEL 5
REMARK VINA RESULT:      -7.1      1.822      4.122
REMARK  Name = 
REMARK  9 active torsions:
REMARK  status: ('A' for Active; 'I' for Inactive)
REMARK    1  A    between atoms: C_2  and  C_3
REMARK    2  A    between atoms: C_3  and  N_4
REMARK    3  A    between atoms: C_14  and  S_15
REMARK    4  A    between atoms: S_15  and  C_16
REMARK    5  A    between atoms: C_16  and  C_17
REMARK    6  A    between atoms: C_17  and  O_18
REMARK    7  A    between atoms: C_19  and  C_20
REMARK    8  A    between atoms: C_19  and  C_22
REMARK    9  A    between atoms: C_22  and  C_23
REMARK                            x       y       z     vdW  Elec       q    Type
REMARK                         _______ _______ _______ _____ _____    ______ ____
ROOT
ATOM      1  N   UNL     1       4.638   4.317  17.046  0.00  0.00    +0.000 N 
ATOM      2  C   UNL     1       4.067   3.209  17.661  0.00  0.00    +0.000 A 
ATOM      3  O   UNL     1       4.442   2.056  17.457  0.00  0.00    +0.000 OA
ATOM      4  C   UNL     1       2.950   3.437  18.620  0.00  0.00    +0.000 A 
ATOM      5  C   UNL     1       2.366   2.317  19.233  0.00  0.00    +0.000 A 
ATOM      6  C   UNL     1       1.321   2.476  20.138  0.00  0.00    +0.000 A 
ATOM      7  C   UNL     1       0.858   3.754  20.433  0.00  0.00    +0.000 A 
ATOM      8  C   UNL     1       1.435   4.876  19.829  0.00  0.00    +0.000 A 
ATOM      9  C   UNL     1       2.484   4.727  18.917  0.00  0.00    +0.000 A 
ATOM     10  N   UNL     1       3.126   5.803  18.265  0.00  0.00    +0.000 N 
ATOM     11  C   UNL     1       2.986   7.186  18.299  0.00  0.00    +0.000 A 
ATOM     12  N   UNL     1       3.871   7.739  17.498  0.00  0.00    +0.000 NA
ATOM     13  N   UNL     1       4.609   6.739  16.917  0.00  0.00    +0.000 NA
ATOM     14  C   UNL     1       4.165   5.586  17.367  0.00  0.00    +0.000 A 
ENDROOT
BRANCH   1  15
ATOM     15  C   UNL     1       5.750   4.104  16.125  0.00  0.00    +0.000 C 
BRANCH  15  17
ATOM     16  C   UNL     1       5.966   3.862  13.636  0.00  0.00    +0.000 C 
ATOM     17  C   UNL     1       5.318   4.343  14.706  0.00  0.00    +0.000 C 
ENDBRANCH  15  17
ENDBRANCH   1  15
BRANCH  11  18
ATOM     18  S   UNL     1       1.844   8.109  19.242  0.00  0.00    +0.000 S 
BRANCH  18  19
ATOM     19  C   UNL     1       1.638   9.623  18.235  0.00  0.00    +0.000 C 
BRANCH  19  20
ATOM     20  C   UNL     1       0.274  10.294  18.403  0.00  0.00    +0.000 C 
ATOM     21  C   UNL     1      -0.085  11.137  19.406  0.00  0.00    +0.000 C 
BRANCH  21  22
ATOM     22  C   UNL     1       0.817  11.547  20.546  0.00  0.00    +0.000 C 
ATOM     23  C   UNL     1       1.693  12.788  20.413  0.00  0.00    +0.000 C 
ATOM     24  N   UNL     1       0.973  10.906  21.657  0.00  0.00    +0.000 NA
ATOM     25  H   UNL     1       0.460  10.032  21.718  0.00  0.00    +0.000 HD
ENDBRANCH  21  22
BRANCH  20  26
ATOM     26  O   UNL     1      -0.680   9.997  17.422  0.00  0.00    +0.000 OA
ATOM     27  H   UNL     1      -0.243   9.521  16.690  0.00  0.00    +0.000 HD
ENDBRANCH  20  26
BRANCH  21  28
ATOM     28  C   UNL     1      -1.422  11.668  19.435  0.00  0.00    +0.000 C 
ATOM     29  N   UNL     1      -2.511  12.063  19.466  0.00  0.00    +0.000 NA
ENDBRANCH  21  28
ENDBRANCH  19  20
ENDBRANCH  18  19
ENDBRANCH  11  18
TORSDOF 8
ENDMDL
MODEL 6
REMARK VINA RESULT:      -7.1      2.000      3.999
REMARK  Name = 
REMARK  9 active torsions:
REMARK  status: ('A' for Active; 'I' for Inactive)
REMARK    1  A    between atoms: C_2  and  C_3
REMARK    2  A    between atoms: C_3  and  N_4
REMARK    3  A    between atoms: C_14  and  S_15
REMARK    4  A    between atoms: S_15  and  C_16
REMARK    5  A    between atoms: C_16  and  C_17
REMARK    6  A    between atoms: C_17  and  O_18
REMARK    7  A    between atoms: C_19  and  C_20
REMARK    8  A    between atoms: C_19  and  C_22
REMARK    9  A    between atoms: C_22  and  C_23
REMARK                            x       y       z     vdW  Elec       q    Type
REMARK                         _______ _______ _______ _____ _____    ______ ____
ROOT
ATOM      1  N   UNL     1       4.149   4.936  17.123  0.00  0.00    +0.000 N 
ATOM      2  C   UNL     1       3.855   3.712  17.715  0.00  0.00    +0.000 A 
ATOM      3  O   UNL     1       4.308   2.642  17.313  0.00  0.00    +0.000 OA
ATOM      4  C   UNL     1       2.951   3.705  18.899  0.00  0.00    +0.000 A 
ATOM      5  C   UNL     1       2.646   2.468  19.491  0.00  0.00    +0.000 A 
ATOM      6  C   UNL     1       1.809   2.407  20.599  0.00  0.00    +0.000 A 
ATOM      7  C   UNL     1       1.274   3.580  21.121  0.00  0.00    +0.000 A 
ATOM      8  C   UNL     1       1.574   4.817  20.540  0.00  0.00    +0.000 A 
ATOM      9  C   UNL     1       2.413   4.889  19.425  0.00  0.00    +0.000 A 
ATOM     10  N   UNL     1       2.772   6.094  18.780  0.00  0.00    +0.000 N 
ATOM     11  C   UNL     1       2.483   7.437  18.993  0.00  0.00    +0.000 A 
ATOM     12  N   UNL     1       3.105   8.171  18.096  0.00  0.00    +0.000 NA
ATOM     13  N   UNL     1       3.813   7.333  17.271  0.00  0.00    +0.000 NA
ATOM     14  C   UNL     1       3.612   6.096  17.671  0.00  0.00    +0.000 A 
ENDROOT
BRANCH   1  15
ATOM     15  C   UNL     1       5.055   4.954  15.979  0.00  0.00    +0.000 C 
BRANCH  15  17
ATOM     16  C   UNL     1       7.236   4.647  17.182  0.00  0.00    +0.000 C 
ATOM     17  C   UNL     1       6.432   5.382  16.400  0.00  0.00    +0.000 C 
ENDBRANCH  15  17
ENDBRANCH   1  15
BRANCH  11  18
ATOM     18  S   UNL     1       1.471   8.113  20.243  0.00  0.00    +0.000 S 
BRANCH  18  19
ATOM     19  C   UNL     1       0.924   9.691  19.494  0.00  0.00    +0.000 C 
BRANCH  19  20
ATOM     20  C   UNL     1       0.900  10.864  20.476  0.00  0.00    +0.000 C 
ATOM     21  C   UNL     1       0.889  12.181  20.148  0.00  0.00    +0.000 C 
BRANCH  21  22
ATOM     22  C   UNL     1       0.910  12.715  18.735  0.00  0.00    +0.000 C 
ATOM     23  C   UNL     1       2.237  13.097  18.087  0.00  0.00    +0.000 C 
ATOM     24  N   UNL     1      -0.124  12.941  17.995  0.00  0.00    +0.000 NA
ATOM     25  H   UNL     1      -1.016  12.772  18.449  0.00  0.00    +0.000 HD
ENDBRANCH  21  22
BRANCH  20  26
ATOM     26  O   UNL     1       0.891  10.525  21.834  0.00  0.00    +0.000 OA
ATOM     27  H   UNL     1       1.664   9.958  22.025  0.00  0.00    +0.000 HD
ENDBRANCH  20  26
BRANCH  21  28
ATOM     28  C   UNL     1       0.891  13.168  21.196  0.00  0.00    +0.000 C 
ATOM     29  N   UNL     1       0.925  13.974  22.028  0.00  0.00    +0.000 NA
ENDBRANCH  21  28
ENDBRANCH  19  20
ENDBRANCH  18  19
ENDBRANCH  11  18
TORSDOF 8
ENDMDL
MODEL 7
REMARK VINA RESULT:      -7.1      1.783      2.175
REMARK  Name = 
REMARK  9 active torsions:
REMARK  status: ('A' for Active; 'I' for Inactive)
REMARK    1  A    between atoms: C_2  and  C_3
REMARK    2  A    between atoms: C_3  and  N_4
REMARK    3  A    between atoms: C_14  and  S_15
REMARK    4  A    between atoms: S_15  and  C_16
REMARK    5  A    between atoms: C_16  and  C_17
REMARK    6  A    between atoms: C_17  and  O_18
REMARK    7  A    between atoms: C_19  and  C_20
REMARK    8  A    between atoms: C_19  and  C_22
REMARK    9  A    between atoms: C_22  and  C_23
REMARK                            x       y       z     vdW  Elec       q    Type
REMARK                         _______ _______ _______ _____ _____    ______ ____
ROOT
ATOM      1  N   UNL     1       3.070   4.276  19.877  0.00  0.00    +0.000 N 
ATOM      2  C   UNL     1       3.931   3.728  18.932  0.00  0.00    +0.000 A 
ATOM      3  O   UNL     1       4.326   2.564  18.973  0.00  0.00    +0.000 OA
ATOM      4  C   UNL     1       4.388   4.598  17.813  0.00  0.00    +0.000 A 
ATOM      5  C   UNL     1       5.266   4.048  16.865  0.00  0.00    +0.000 A 
ATOM      6  C   UNL     1       5.721   4.818  15.800  0.00  0.00    +0.000 A 
ATOM      7  C   UNL     1       5.300   6.138  15.678  0.00  0.00    +0.000 A 
ATOM      8  C   UNL     1       4.425   6.694  16.616  0.00  0.00    +0.000 A 
ATOM      9  C   UNL     1       3.963   5.930  17.691  0.00  0.00    +0.000 A 
ATOM     10  N   UNL     1       3.075   6.408  18.680  0.00  0.00    +0.000 N 
ATOM     11  C   UNL     1       2.424   7.616  18.903  0.00  0.00    +0.000 A 
ATOM     12  N   UNL     1       1.676   7.523  19.981  0.00  0.00    +0.000 NA
ATOM     13  N   UNL     1       1.818   6.258  20.495  0.00  0.00    +0.000 NA
ATOM     14  C   UNL     1       2.654   5.595  19.727  0.00  0.00    +0.000 A 
ENDROOT
BRANCH   1  15
ATOM     15  C   UNL     1       2.597   3.422  20.962  0.00  0.00    +0.000 C 
BRANCH  15  17
ATOM     16  C   UNL     1       0.736   2.478  19.566  0.00  0.00    +0.000 C 
ATOM     17  C   UNL     1       1.175   2.998  20.721  0.00  0.00    +0.000 C 
ENDBRANCH  15  17
ENDBRANCH   1  15
BRANCH  11  18
ATOM     18  S   UNL     1       2.529   9.066  17.937  0.00  0.00    +0.000 S 
BRANCH  18  19
ATOM     19  C   UNL     1       1.252  10.135  18.695  0.00  0.00    +0.000 C 
BRANCH  19  20
ATOM     20  C   UNL     1       1.550  11.631  18.575  0.00  0.00    +0.000 C 
ATOM     21  C   UNL     1       1.036  12.614  19.358  0.00  0.00    +0.000 C 
BRANCH  21  22
ATOM     22  C   UNL     1       0.060  12.389  20.489  0.00  0.00    +0.000 C 
ATOM     23  C   UNL     1      -1.433  12.596  20.256  0.00  0.00    +0.000 C 
ATOM     24  N   UNL     1       0.367  12.074  21.703  0.00  0.00    +0.000 NA
ATOM     25  H   UNL     1       1.363  12.020  21.888  0.00  0.00    +0.000 HD
ENDBRANCH  21  22
BRANCH  20  26
ATOM     26  O   UNL     1       2.435  11.999  17.555  0.00  0.00    +0.000 OA
ATOM     27  H   UNL     1       3.028  11.246  17.363  0.00  0.00    +0.000 HD
ENDBRANCH  20  26
BRANCH  21  28
ATOM     28  C   UNL     1       1.399  13.982  19.099  0.00  0.00    +0.000 C 
ATOM     29  N   UNL     1       1.660  15.089  18.874  0.00  0.00    +0.000 NA
ENDBRANCH  21  28
ENDBRANCH  19  20
ENDBRANCH  18  19
ENDBRANCH  11  18
TORSDOF 8
ENDMDL
MODEL 8
REMARK VINA RESULT:      -7.1      2.100      4.018
REMARK  Name = 
REMARK  9 active torsions:
REMARK  status: ('A' for Active; 'I' for Inactive)
REMARK    1  A    between atoms: C_2  and  C_3
REMARK    2  A    between atoms: C_3  and  N_4
REMARK    3  A    between atoms: C_14  and  S_15
REMARK    4  A    between atoms: S_15  and  C_16
REMARK    5  A    between atoms: C_16  and  C_17
REMARK    6  A    between atoms: C_17  and  O_18
REMARK    7  A    between atoms: C_19  and  C_20
REMARK    8  A    between atoms: C_19  and  C_22
REMARK    9  A    between atoms: C_22  and  C_23
REMARK                            x       y       z     vdW  Elec       q    Type
REMARK                         _______ _______ _______ _____ _____    ______ ____
ROOT
ATOM      1  N   UNL     1       4.041   5.953  17.649  0.00  0.00    +0.000 N 
ATOM      2  C   UNL     1       4.174   4.665  18.157  0.00  0.00    +0.000 A 
ATOM      3  O   UNL     1       4.894   3.809  17.645  0.00  0.00    +0.000 OA
ATOM      4  C   UNL     1       3.409   4.313  19.385  0.00  0.00    +0.000 A 
ATOM      5  C   UNL     1       3.535   3.010  19.892  0.00  0.00    +0.000 A 
ATOM      6  C   UNL     1       2.842   2.632  21.038  0.00  0.00    +0.000 A 
ATOM      7  C   UNL     1       2.024   3.554  21.681  0.00  0.00    +0.000 A 
ATOM      8  C   UNL     1       1.894   4.855  21.185  0.00  0.00    +0.000 A 
ATOM      9  C   UNL     1       2.584   5.245  20.034  0.00  0.00    +0.000 A 
ATOM     10  N   UNL     1       2.514   6.538  19.468  0.00  0.00    +0.000 N 
ATOM     11  C   UNL     1       1.855   7.714  19.804  0.00  0.00    +0.000 A 
ATOM     12  N   UNL     1       2.157   8.654  18.934  0.00  0.00    +0.000 NA
ATOM     13  N   UNL     1       3.016   8.121  18.006  0.00  0.00    +0.000 NA
ATOM     14  C   UNL     1       3.226   6.861  18.317  0.00  0.00    +0.000 A 
ENDROOT
BRANCH   1  15
ATOM     15  C   UNL     1       4.808   6.313  16.461  0.00  0.00    +0.000 C 
BRANCH  15  17
ATOM     16  C   UNL     1       7.261   6.367  16.993  0.00  0.00    +0.000 C 
ATOM     17  C   UNL     1       6.089   7.000  16.844  0.00  0.00    +0.000 C 
ENDBRANCH  15  17
ENDBRANCH   1  15
BRANCH  11  18
ATOM     18  S   UNL     1       0.787   7.976  21.159  0.00  0.00    +0.000 S 
BRANCH  18  19
ATOM     19  C   UNL     1      -0.208   9.408  20.604  0.00  0.00    +0.000 C 
BRANCH  19  20
ATOM     20  C   UNL     1       0.224  10.737  21.226  0.00  0.00    +0.000 C 
ATOM     21  C   UNL     1       0.540  11.872  20.550  0.00  0.00    +0.000 C 
BRANCH  21  22
ATOM     22  C   UNL     1       0.528  12.006  19.046  0.00  0.00    +0.000 C 
ATOM     23  C   UNL     1      -0.733  12.488  18.336  0.00  0.00    +0.000 C 
ATOM     24  N   UNL     1       1.497  11.697  18.250  0.00  0.00    +0.000 NA
ATOM     25  H   UNL     1       2.308  11.293  18.706  0.00  0.00    +0.000 HD
ENDBRANCH  21  22
BRANCH  20  26
ATOM     26  O   UNL     1       0.296  10.764  22.624  0.00  0.00    +0.000 OA
ATOM     27  H   UNL     1       0.490   9.863  22.949  0.00  0.00    +0.000 HD
ENDBRANCH  20  26
BRANCH  21  28
ATOM     28  C   UNL     1       0.953  13.038  21.286  0.00  0.00    +0.000 C 
ATOM     29  N   UNL     1       1.273  13.961  21.909  0.00  0.00    +0.000 NA
ENDBRANCH  21  28
ENDBRANCH  19  20
ENDBRANCH  18  19
ENDBRANCH  11  18
TORSDOF 8
ENDMDL
MODEL 9
REMARK VINA RESULT:      -7.1      2.171      4.217
REMARK  Name = 
REMARK  9 active torsions:
REMARK  status: ('A' for Active; 'I' for Inactive)
REMARK    1  A    between atoms: C_2  and  C_3
REMARK    2  A    between atoms: C_3  and  N_4
REMARK    3  A    between atoms: C_14  and  S_15
REMARK    4  A    between atoms: S_15  and  C_16
REMARK    5  A    between atoms: C_16  and  C_17
REMARK    6  A    between atoms: C_17  and  O_18
REMARK    7  A    between atoms: C_19  and  C_20
REMARK    8  A    between atoms: C_19  and  C_22
REMARK    9  A    between atoms: C_22  and  C_23
REMARK                            x       y       z     vdW  Elec       q    Type
REMARK                         _______ _______ _______ _____ _____    ______ ____
ROOT
ATOM      1  N   UNL     1       4.138   4.513  17.065  0.00  0.00    +0.000 N 
ATOM      2  C   UNL     1       3.735   3.366  17.742  0.00  0.00    +0.000 A 
ATOM      3  O   UNL     1       4.092   2.234  17.423  0.00  0.00    +0.000 OA
ATOM      4  C   UNL     1       2.831   3.526  18.914  0.00  0.00    +0.000 A 
ATOM      5  C   UNL     1       2.415   2.369  19.591  0.00  0.00    +0.000 A 
ATOM      6  C   UNL     1       1.572   2.464  20.693  0.00  0.00    +0.000 A 
ATOM      7  C   UNL     1       1.143   3.715  21.123  0.00  0.00    +0.000 A 
ATOM      8  C   UNL     1       1.553   4.874  20.457  0.00  0.00    +0.000 A 
ATOM      9  C   UNL     1       2.399   4.790  19.347  0.00  0.00    +0.000 A 
ATOM     10  N   UNL     1       2.865   5.907  18.619  0.00  0.00    +0.000 N 
ATOM     11  C   UNL     1       2.696   7.282  18.731  0.00  0.00    +0.000 A 
ATOM     12  N   UNL     1       3.384   7.890  17.789  0.00  0.00    +0.000 NA
ATOM     13  N   UNL     1       4.016   6.934  17.034  0.00  0.00    +0.000 NA
ATOM     14  C   UNL     1       3.705   5.753  17.522  0.00  0.00    +0.000 A 
ENDROOT
BRANCH   1  15
ATOM     15  C   UNL     1       5.046   4.366  15.931  0.00  0.00    +0.000 C 
BRANCH  15  17
ATOM     16  C   UNL     1       7.232   5.501  16.412  0.00  0.00    +0.000 C 
ATOM     17  C   UNL     1       6.476   4.394  16.390  0.00  0.00    +0.000 C 
ENDBRANCH  15  17
ENDBRANCH   1  15
BRANCH  11  18
ATOM     18  S   UNL     1       1.744   8.136  19.919  0.00  0.00    +0.000 S 
BRANCH  18  19
ATOM     19  C   UNL     1       0.723   9.243  18.880  0.00  0.00    +0.000 C 
BRANCH  19  20
ATOM     20  C   UNL     1       1.403  10.571  18.541  0.00  0.00    +0.000 C 
ATOM     21  C   UNL     1       1.319  11.719  19.260  0.00  0.00    +0.000 C 
BRANCH  21  22
ATOM     22  C   UNL     1       0.517  11.881  20.529  0.00  0.00    +0.000 C 
ATOM     23  C   UNL     1      -0.748  12.732  20.525  0.00  0.00    +0.000 C 
ATOM     24  N   UNL     1       0.824  11.397  21.686  0.00  0.00    +0.000 NA
ATOM     25  H   UNL     1       1.710  10.902  21.717  0.00  0.00    +0.000 HD
ENDBRANCH  21  22
BRANCH  20  26
ATOM     26  O   UNL     1       2.178  10.581  17.374  0.00  0.00    +0.000 OA
ATOM     27  H   UNL     1       3.120  10.498  17.619  0.00  0.00    +0.000 HD
ENDBRANCH  20  26
BRANCH  21  28
ATOM     28  C   UNL     1       2.003  12.896  18.790  0.00  0.00    +0.000 C 
ATOM     29  N   UNL     1       2.584  13.823  18.407  0.00  0.00    +0.000 NA
ENDBRANCH  21  28
ENDBRANCH  19  20
ENDBRANCH  18  19
ENDBRANCH  11  18
TORSDOF 8
ENDMDL
