MODEL 1
REMARK VINA RESULT:      -8.1      0.000      0.000
REMARK  Name = 
REMARK  8 active torsions:
REMARK  status: ('A' for Active; 'I' for Inactive)
REMARK    1  A    between atoms: C_4  and  O_5
REMARK    2  A    between atoms: O_5  and  C_6
REMARK    3  A    between atoms: C_6  and  C_7
REMARK    4  A    between atoms: C_7  and  N_8
REMARK    5  A    between atoms: N_8  and  C_9
REMARK    6  A    between atoms: N_8  and  C_13
REMARK    7  A    between atoms: C_9  and  C_10
REMARK    8  A    between atoms: C_15  and  C_16
REMARK                            x       y       z     vdW  Elec       q    Type
REMARK                         _______ _______ _______ _____ _____    ______ ____
ROOT
ATOM      1  C   UNL     1       2.709   5.863  19.668  0.00  0.00    +0.000 A 
ATOM      2  N   UNL     1       4.006   6.118  19.439  0.00  0.00    +0.000 NA
ATOM      3  C   UNL     1       4.721   5.116  18.961  0.00  0.00    +0.000 A 
ATOM      4  N   UNL     1       4.536   3.907  19.466  0.00  0.00    +0.000 NA
ATOM      5  C   UNL     1       3.280   3.536  19.394  0.00  0.00    +0.000 A 
ATOM      6  C   UNL     1       3.153   2.194  18.995  0.00  0.00    +0.000 A 
ATOM      7  C   UNL     1       1.948   1.634  18.643  0.00  0.00    +0.000 A 
ATOM      8  C   UNL     1       0.817   2.415  18.827  0.00  0.00    +0.000 A 
ATOM      9  C   UNL     1       0.925   3.783  19.260  0.00  0.00    +0.000 A 
ATOM     10  C   UNL     1       2.216   4.459  19.481  0.00  0.00    +0.000 A 
ENDROOT
BRANCH   3  11
ATOM     11  C   UNL     1       4.767   5.020  17.470  0.00  0.00    +0.000 A 
ATOM     12  C   UNL     1       4.678   6.195  16.717  0.00  0.00    +0.000 A 
ATOM     13  C   UNL     1       5.228   6.238  15.439  0.00  0.00    +0.000 A 
ATOM     14  C   UNL     1       5.823   5.100  14.932  0.00  0.00    +0.000 A 
ATOM     15  N   UNL     1       5.849   3.917  15.574  0.00  0.00    +0.000 NA
ATOM     16  C   UNL     1       5.315   3.900  16.820  0.00  0.00    +0.000 A 
ENDBRANCH   3  11
BRANCH   1  17
ATOM     17  N   UNL     1       2.030   7.097  19.803  0.00  0.00    +0.000 N 
BRANCH  17  18
ATOM     18  C   UNL     1       2.356   8.188  18.736  0.00  0.00    +0.000 C 
BRANCH  18  19
ATOM     19  C   UNL     1       1.296   8.906  17.806  0.00  0.00    +0.000 C 
BRANCH  19  20
ATOM     20  O   UNL     1       0.739  10.201  18.164  0.00  0.00    +0.000 OA
BRANCH  20  24
ATOM     21  C   UNL     1      -3.333  11.173  17.985  0.00  0.00    +0.000 A 
ATOM     22  C   UNL     1      -2.538  11.789  18.932  0.00  0.00    +0.000 A 
ATOM     23  C   UNL     1      -1.172  11.386  19.080  0.00  0.00    +0.000 A 
ATOM     24  C   UNL     1      -0.624  10.363  18.276  0.00  0.00    +0.000 A 
ATOM     25  C   UNL     1      -1.470   9.734  17.363  0.00  0.00    +0.000 A 
ATOM     26  C   UNL     1      -2.806  10.137  17.215  0.00  0.00    +0.000 A 
ENDBRANCH  20  24
ENDBRANCH  19  20
ENDBRANCH  18  19
ENDBRANCH  17  18
BRANCH  17  27
ATOM     27  C   UNL     1       1.840   7.676  21.138  0.00  0.00    +0.000 C 
BRANCH  27  28
ATOM     28  C   UNL     1       0.776   8.742  21.148  0.00  0.00    +0.000 C 
ATOM     29  C   UNL     1      -0.553   8.492  21.825  0.00  0.00    +0.000 C 
ATOM     30  C   UNL     1       0.424   9.464  22.422  0.00  0.00    +0.000 C 
ENDBRANCH  27  28
ENDBRANCH  17  27
ENDBRANCH   1  17
TORSDOF 8
ENDMDL
MODEL 2
REMARK VINA RESULT:      -8.1      0.871      1.444
REMARK  Name = 
REMARK  8 active torsions:
REMARK  status: ('A' for Active; 'I' for Inactive)
REMARK    1  A    between atoms: C_4  and  O_5
REMARK    2  A    between atoms: O_5  and  C_6
REMARK    3  A    between atoms: C_6  and  C_7
REMARK    4  A    between atoms: C_7  and  N_8
REMARK    5  A    between atoms: N_8  and  C_9
REMARK    6  A    between atoms: N_8  and  C_13
REMARK    7  A    between atoms: C_9  and  C_10
REMARK    8  A    between atoms: C_15  and  C_16
REMARK                            x       y       z     vdW  Elec       q    Type
REMARK                         _______ _______ _______ _____ _____    ______ ____
ROOT
ATOM      1  C   UNL     1       2.759   5.603  19.678  0.00  0.00    +0.000 A 
ATOM      2  N   UNL     1       4.038   5.943  19.467  0.00  0.00    +0.000 NA
ATOM      3  C   UNL     1       4.816   5.001  18.964  0.00  0.00    +0.000 A 
ATOM      4  N   UNL     1       4.703   3.769  19.432  0.00  0.00    +0.000 NA
ATOM      5  C   UNL     1       3.472   3.324  19.340  0.00  0.00    +0.000 A 
ATOM      6  C   UNL     1       3.430   1.990  18.901  0.00  0.00    +0.000 A 
ATOM      7  C   UNL     1       2.263   1.368  18.523  0.00  0.00    +0.000 A 
ATOM      8  C   UNL     1       1.085   2.072  18.723  0.00  0.00    +0.000 A 
ATOM      9  C   UNL     1       1.107   3.431  19.197  0.00  0.00    +0.000 A 
ATOM     10  C   UNL     1       2.353   4.178  19.446  0.00  0.00    +0.000 A 
ENDROOT
BRANCH   3  11
ATOM     11  C   UNL     1       4.876   4.953  17.471  0.00  0.00    +0.000 A 
ATOM     12  C   UNL     1       4.683   6.136  16.751  0.00  0.00    +0.000 A 
ATOM     13  C   UNL     1       5.230   6.267  15.479  0.00  0.00    +0.000 A 
ATOM     14  C   UNL     1       5.929   5.202  14.943  0.00  0.00    +0.000 A 
ATOM     15  N   UNL     1       6.060   4.009  15.551  0.00  0.00    +0.000 NA
ATOM     16  C   UNL     1       5.525   3.907  16.793  0.00  0.00    +0.000 A 
ENDBRANCH   3  11
BRANCH   1  17
ATOM     17  N   UNL     1       2.004   6.789  19.846  0.00  0.00    +0.000 N 
BRANCH  17  18
ATOM     18  C   UNL     1       2.550   8.063  19.129  0.00  0.00    +0.000 C 
BRANCH  18  19
ATOM     19  C   UNL     1       1.999   8.657  17.769  0.00  0.00    +0.000 C 
BRANCH  19  20
ATOM     20  O   UNL     1       1.887  10.092  17.568  0.00  0.00    +0.000 OA
BRANCH  20  24
ATOM     21  C   UNL     1      -0.870  11.851  20.188  0.00  0.00    +0.000 A 
ATOM     22  C   UNL     1      -1.318  10.923  19.270  0.00  0.00    +0.000 A 
ATOM     23  C   UNL     1      -0.411  10.397  18.295  0.00  0.00    +0.000 A 
ATOM     24  C   UNL     1       0.936  10.817  18.254  0.00  0.00    +0.000 A 
ATOM     25  C   UNL     1       1.339  11.790  19.168  0.00  0.00    +0.000 A 
ATOM     26  C   UNL     1       0.450  12.297  20.127  0.00  0.00    +0.000 A 
ENDBRANCH  20  24
ENDBRANCH  19  20
ENDBRANCH  18  19
ENDBRANCH  17  18
BRANCH  17  27
ATOM     27  C   UNL     1       1.430   7.102  21.159  0.00  0.00    +0.000 C 
BRANCH  27  28
ATOM     28  C   UNL     1       0.820   8.479  21.197  0.00  0.00    +0.000 C 
ATOM     29  C   UNL     1      -0.326   8.784  22.137  0.00  0.00    +0.000 C 
ATOM     30  C   UNL     1       1.030   9.380  22.386  0.00  0.00    +0.000 C 
ENDBRANCH  27  28
ENDBRANCH  17  27
ENDBRANCH   1  17
TORSDOF 8
ENDMDL
MODEL 3
REMARK VINA RESULT:      -7.9      0.508      1.004
REMARK  Name = 
REMARK  8 active torsions:
REMARK  status: ('A' for Active; 'I' for Inactive)
REMARK    1  A    between atoms: C_4  and  O_5
REMARK    2  A    between atoms: O_5  and  C_6
REMARK    3  A    between atoms: C_6  and  C_7
REMARK    4  A    between atoms: C_7  and  N_8
REMARK    5  A    between atoms: N_8  and  C_9
REMARK    6  A    between atoms: N_8  and  C_13
REMARK    7  A    between atoms: C_9  and  C_10
REMARK    8  A    between atoms: C_15  and  C_16
REMARK                            x       y       z     vdW  Elec       q    Type
REMARK                         _______ _______ _______ _____ _____    ______ ____
ROOT
ATOM      1  C   UNL     1       2.637   6.287  19.685  0.00  0.00    +0.000 A 
ATOM      2  N   UNL     1       3.926   6.543  19.420  0.00  0.00    +0.000 NA
ATOM      3  C   UNL     1       4.663   5.509  19.055  0.00  0.00    +0.000 A 
ATOM      4  N   UNL     1       4.509   4.363  19.697  0.00  0.00    +0.000 NA
ATOM      5  C   UNL     1       3.261   3.957  19.677  0.00  0.00    +0.000 A 
ATOM      6  C   UNL     1       3.164   2.576  19.435  0.00  0.00    +0.000 A 
ATOM      7  C   UNL     1       1.972   1.951  19.157  0.00  0.00    +0.000 A 
ATOM      8  C   UNL     1       0.823   2.722  19.258  0.00  0.00    +0.000 A 
ATOM      9  C   UNL     1       0.901   4.133  19.530  0.00  0.00    +0.000 A 
ATOM     10  C   UNL     1       2.176   4.859  19.663  0.00  0.00    +0.000 A 
ENDROOT
BRANCH   3  11
ATOM     11  C   UNL     1       4.706   5.244  17.585  0.00  0.00    +0.000 A 
ATOM     12  C   UNL     1       4.732   6.330  16.705  0.00  0.00    +0.000 A 
ATOM     13  C   UNL     1       5.288   6.180  15.439  0.00  0.00    +0.000 A 
ATOM     14  C   UNL     1       5.774   4.941  15.070  0.00  0.00    +0.000 A 
ATOM     15  N   UNL     1       5.686   3.840  15.839  0.00  0.00    +0.000 NA
ATOM     16  C   UNL     1       5.147   4.011  17.071  0.00  0.00    +0.000 A 
ENDBRANCH   3  11
BRANCH   1  17
ATOM     17  N   UNL     1       1.929   7.512  19.682  0.00  0.00    +0.000 N 
BRANCH  17  18
ATOM     18  C   UNL     1       2.240   8.488  18.505  0.00  0.00    +0.000 C 
BRANCH  18  19
ATOM     19  C   UNL     1       1.172   9.372  17.742  0.00  0.00    +0.000 C 
BRANCH  19  20
ATOM     20  O   UNL     1       0.386  10.373  18.444  0.00  0.00    +0.000 OA
BRANCH  20  24
ATOM     21  C   UNL     1      -3.726  10.851  17.797  0.00  0.00    +0.000 A 
ATOM     22  C   UNL     1      -3.058   9.841  17.135  0.00  0.00    +0.000 A 
ATOM     23  C   UNL     1      -1.635   9.734  17.258  0.00  0.00    +0.000 A 
ATOM     24  C   UNL     1      -0.903  10.651  18.043  0.00  0.00    +0.000 A 
ATOM     25  C   UNL     1      -1.607  11.685  18.658  0.00  0.00    +0.000 A 
ATOM     26  C   UNL     1      -3.003  11.781  18.542  0.00  0.00    +0.000 A 
ENDBRANCH  20  24
ENDBRANCH  19  20
ENDBRANCH  18  19
ENDBRANCH  17  18
BRANCH  17  27
ATOM     27  C   UNL     1       1.716   8.227  20.945  0.00  0.00    +0.000 C 
BRANCH  27  28
ATOM     28  C   UNL     1       0.258   8.507  21.200  0.00  0.00    +0.000 C 
ATOM     29  C   UNL     1      -0.246   8.722  22.610  0.00  0.00    +0.000 C 
ATOM     30  C   UNL     1      -0.196   9.872  21.646  0.00  0.00    +0.000 C 
ENDBRANCH  27  28
ENDBRANCH  17  27
ENDBRANCH   1  17
TORSDOF 8
ENDMDL
MODEL 4
REMARK VINA RESULT:      -7.8      1.638      2.795
REMARK  Name = 
REMARK  8 active torsions:
REMARK  status: ('A' for Active; 'I' for Inactive)
REMARK    1  A    between atoms: C_4  and  O_5
REMARK    2  A    between atoms: O_5  and  C_6
REMARK    3  A    between atoms: C_6  and  C_7
REMARK    4  A    between atoms: C_7  and  N_8
REMARK    5  A    between atoms: N_8  and  C_9
REMARK    6  A    between atoms: N_8  and  C_13
REMARK    7  A    between atoms: C_9  and  C_10
REMARK    8  A    between atoms: C_15  and  C_16
REMARK                            x       y       z     vdW  Elec       q    Type
REMARK                         _______ _______ _______ _____ _____    ______ ____
ROOT
ATOM      1  C   UNL     1       3.113   5.840  19.561  0.00  0.00    +0.000 A 
ATOM      2  N   UNL     1       4.420   5.968  19.294  0.00  0.00    +0.000 NA
ATOM      3  C   UNL     1       5.029   4.892  18.828  0.00  0.00    +0.000 A 
ATOM      4  N   UNL     1       4.748   3.720  19.373  0.00  0.00    +0.000 NA
ATOM      5  C   UNL     1       3.462   3.463  19.343  0.00  0.00    +0.000 A 
ATOM      6  C   UNL     1       3.203   2.128  18.987  0.00  0.00    +0.000 A 
ATOM      7  C   UNL     1       1.943   1.671  18.681  0.00  0.00    +0.000 A 
ATOM      8  C   UNL     1       0.893   2.557  18.869  0.00  0.00    +0.000 A 
ATOM      9  C   UNL     1       1.136   3.922  19.259  0.00  0.00    +0.000 A 
ATOM     10  C   UNL     1       2.489   4.482  19.428  0.00  0.00    +0.000 A 
ENDROOT
BRANCH   3  11
ATOM     11  C   UNL     1       5.026   4.751  17.340  0.00  0.00    +0.000 A 
ATOM     12  C   UNL     1       4.825   5.892  16.556  0.00  0.00    +0.000 A 
ATOM     13  C   UNL     1       5.321   5.933  15.257  0.00  0.00    +0.000 A 
ATOM     14  C   UNL     1       5.978   4.823  14.761  0.00  0.00    +0.000 A 
ATOM     15  N   UNL     1       6.113   3.667  15.436  0.00  0.00    +0.000 NA
ATOM     16  C   UNL     1       5.628   3.652  16.702  0.00  0.00    +0.000 A 
ENDBRANCH   3  11
BRANCH   1  17
ATOM     17  N   UNL     1       2.552   7.134  19.676  0.00  0.00    +0.000 N 
BRANCH  17  18
ATOM     18  C   UNL     1       1.439   7.312  20.756  0.00  0.00    +0.000 C 
BRANCH  18  19
ATOM     19  C   UNL     1       1.362   8.493  21.806  0.00  0.00    +0.000 C 
BRANCH  19  20
ATOM     20  O   UNL     1       0.084   8.959  22.319  0.00  0.00    +0.000 OA
BRANCH  20  24
ATOM     21  C   UNL     1      -1.292  12.904  22.007  0.00  0.00    +0.000 A 
ATOM     22  C   UNL     1      -0.230  12.502  21.222  0.00  0.00    +0.000 A 
ATOM     23  C   UNL     1       0.324  11.193  21.397  0.00  0.00    +0.000 A 
ATOM     24  C   UNL     1      -0.196  10.307  22.365  0.00  0.00    +0.000 A 
ATOM     25  C   UNL     1      -1.238  10.766  23.170  0.00  0.00    +0.000 A 
ATOM     26  C   UNL     1      -1.784  12.047  22.990  0.00  0.00    +0.000 A 
ENDBRANCH  20  24
ENDBRANCH  19  20
ENDBRANCH  18  19
ENDBRANCH  17  18
BRANCH  17  27
ATOM     27  C   UNL     1       2.268   7.911  18.465  0.00  0.00    +0.000 C 
BRANCH  27  28
ATOM     28  C   UNL     1       1.625   9.237  18.778  0.00  0.00    +0.000 C 
ATOM     29  C   UNL     1       1.838  10.426  17.868  0.00  0.00    +0.000 C 
ATOM     30  C   UNL     1       0.493   9.760  17.935  0.00  0.00    +0.000 C 
ENDBRANCH  27  28
ENDBRANCH  17  27
ENDBRANCH   1  17
TORSDOF 8
ENDMDL
MODEL 5
REMARK VINA RESULT:      -7.7      3.825      7.413
REMARK  Name = 
REMARK  8 active torsions:
REMARK  status: ('A' for Active; 'I' for Inactive)
REMARK    1  A    between atoms: C_4  and  O_5
REMARK    2  A    between atoms: O_5  and  C_6
REMARK    3  A    between atoms: C_6  and  C_7
REMARK    4  A    between atoms: C_7  and  N_8
REMARK    5  A    between atoms: N_8  and  C_9
REMARK    6  A    between atoms: N_8  and  C_13
REMARK    7  A    between atoms: C_9  and  C_10
REMARK    8  A    between atoms: C_15  and  C_16
REMARK                            x       y       z     vdW  Elec       q    Type
REMARK                         _______ _______ _______ _____ _____    ______ ____
ROOT
ATOM      1  C   UNL     1       4.945   6.135  18.022  0.00  0.00    +0.000 A 
ATOM      2  N   UNL     1       4.938   5.053  18.813  0.00  0.00    +0.000 NA
ATOM      3  C   UNL     1       3.889   4.913  19.602  0.00  0.00    +0.000 A 
ATOM      4  N   UNL     1       3.417   5.981  20.224  0.00  0.00    +0.000 NA
ATOM      5  C   UNL     1       3.126   6.946  19.383  0.00  0.00    +0.000 A 
ATOM      6  C   UNL     1       1.909   7.572  19.706  0.00  0.00    +0.000 A 
ATOM      7  C   UNL     1       1.284   8.461  18.864  0.00  0.00    +0.000 A 
ATOM      8  C   UNL     1       1.975   8.831  17.720  0.00  0.00    +0.000 A 
ATOM      9  C   UNL     1       3.234   8.220  17.385  0.00  0.00    +0.000 A 
ATOM     10  C   UNL     1       3.844   7.141  18.184  0.00  0.00    +0.000 A 
ENDROOT
BRANCH   3  11
ATOM     11  C   UNL     1       2.748   4.145  19.016  0.00  0.00    +0.000 A 
ATOM     12  C   UNL     1       2.994   3.293  17.936  0.00  0.00    +0.000 A 
ATOM     13  C   UNL     1       2.153   2.208  17.707  0.00  0.00    +0.000 A 
ATOM     14  C   UNL     1       1.070   2.019  18.542  0.00  0.00    +0.000 A 
ATOM     15  N   UNL     1       0.731   2.863  19.534  0.00  0.00    +0.000 NA
ATOM     16  C   UNL     1       1.567   3.909  19.744  0.00  0.00    +0.000 A 
ENDBRANCH   3  11
BRANCH   1  17
ATOM     17  N   UNL     1       5.908   5.939  17.004  0.00  0.00    +0.000 N 
BRANCH  17  18
ATOM     18  C   UNL     1       7.330   6.522  17.276  0.00  0.00    +0.000 C 
BRANCH  18  19
ATOM     19  C   UNL     1       7.671   8.056  17.463  0.00  0.00    +0.000 C 
BRANCH  19  20
ATOM     20  O   UNL     1       8.436   8.520  18.609  0.00  0.00    +0.000 OA
BRANCH  20  24
ATOM     21  C   UNL     1       9.295  12.598  19.051  0.00  0.00    +0.000 A 
ATOM     22  C   UNL     1       8.758  12.152  17.860  0.00  0.00    +0.000 A 
ATOM     23  C   UNL     1       8.564  10.749  17.652  0.00  0.00    +0.000 A 
ATOM     24  C   UNL     1       8.919   9.811  18.645  0.00  0.00    +0.000 A 
ATOM     25  C   UNL     1       9.501  10.295  19.816  0.00  0.00    +0.000 A 
ATOM     26  C   UNL     1       9.682  11.672  20.019  0.00  0.00    +0.000 A 
ENDBRANCH  20  24
ENDBRANCH  19  20
ENDBRANCH  18  19
ENDBRANCH  17  18
BRANCH  17  27
ATOM     27  C   UNL     1       5.516   6.085  15.599  0.00  0.00    +0.000 C 
BRANCH  27  28
ATOM     28  C   UNL     1       5.254   4.756  14.941  0.00  0.00    +0.000 C 
ATOM     29  C   UNL     1       6.253   4.172  13.967  0.00  0.00    +0.000 C 
ATOM     30  C   UNL     1       6.060   3.540  15.316  0.00  0.00    +0.000 C 
ENDBRANCH  27  28
ENDBRANCH  17  27
ENDBRANCH   1  17
TORSDOF 8
ENDMDL
MODEL 6
REMARK VINA RESULT:      -7.6      0.899      1.381
REMARK  Name = 
REMARK  8 active torsions:
REMARK  status: ('A' for Active; 'I' for Inactive)
REMARK    1  A    between atoms: C_4  and  O_5
REMARK    2  A    between atoms: O_5  and  C_6
REMARK    3  A    between atoms: C_6  and  C_7
REMARK    4  A    between atoms: C_7  and  N_8
REMARK    5  A    between atoms: N_8  and  C_9
REMARK    6  A    between atoms: N_8  and  C_13
REMARK    7  A    between atoms: C_9  and  C_10
REMARK    8  A    between atoms: C_15  and  C_16
REMARK                            x       y       z     vdW  Elec       q    Type
REMARK                         _______ _______ _______ _____ _____    ______ ____
ROOT
ATOM      1  C   UNL     1       2.657   6.047  19.499  0.00  0.00    +0.000 A 
ATOM      2  N   UNL     1       3.952   6.335  19.308  0.00  0.00    +0.000 NA
ATOM      3  C   UNL     1       4.729   5.326  18.954  0.00  0.00    +0.000 A 
ATOM      4  N   UNL     1       4.566   4.160  19.556  0.00  0.00    +0.000 NA
ATOM      5  C   UNL     1       3.329   3.730  19.461  0.00  0.00    +0.000 A 
ATOM      6  C   UNL     1       3.274   2.355  19.178  0.00  0.00    +0.000 A 
ATOM      7  C   UNL     1       2.110   1.715  18.823  0.00  0.00    +0.000 A 
ATOM      8  C   UNL     1       0.942   2.460  18.886  0.00  0.00    +0.000 A 
ATOM      9  C   UNL     1       0.976   3.864  19.199  0.00  0.00    +0.000 A 
ATOM     10  C   UNL     1       2.228   4.611  19.416  0.00  0.00    +0.000 A 
ENDROOT
BRANCH   3  11
ATOM     11  C   UNL     1       4.851   5.102  17.481  0.00  0.00    +0.000 A 
ATOM     12  C   UNL     1       4.708   6.194  16.620  0.00  0.00    +0.000 A 
ATOM     13  C   UNL     1       5.312   6.168  15.366  0.00  0.00    +0.000 A 
ATOM     14  C   UNL     1       6.015   5.040  14.990  0.00  0.00    +0.000 A 
ATOM     15  N   UNL     1       6.101   3.925  15.739  0.00  0.00    +0.000 NA
ATOM     16  C   UNL     1       5.512   3.976  16.959  0.00  0.00    +0.000 A 
ENDBRANCH   3  11
BRANCH   1  17
ATOM     17  N   UNL     1       1.925   7.257  19.493  0.00  0.00    +0.000 N 
BRANCH  17  18
ATOM     18  C   UNL     1       1.862   8.021  18.133  0.00  0.00    +0.000 C 
BRANCH  18  19
ATOM     19  C   UNL     1       2.251   9.540  17.917  0.00  0.00    +0.000 C 
BRANCH  19  20
ATOM     20  O   UNL     1       1.229  10.562  17.765  0.00  0.00    +0.000 OA
BRANCH  20  24
ATOM     21  C   UNL     1      -1.073  12.431  20.726  0.00  0.00    +0.000 A 
ATOM     22  C   UNL     1       0.302  12.426  20.851  0.00  0.00    +0.000 A 
ATOM     23  C   UNL     1       1.095  11.697  19.909  0.00  0.00    +0.000 A 
ATOM     24  C   UNL     1       0.494  10.975  18.855  0.00  0.00    +0.000 A 
ATOM     25  C   UNL     1      -0.899  10.966  18.789  0.00  0.00    +0.000 A 
ATOM     26  C   UNL     1      -1.673  11.690  19.709  0.00  0.00    +0.000 A 
ENDBRANCH  20  24
ENDBRANCH  19  20
ENDBRANCH  18  19
ENDBRANCH  17  18
BRANCH  17  27
ATOM     27  C   UNL     1       2.034   8.175  20.632  0.00  0.00    +0.000 C 
BRANCH  27  28
ATOM     28  C   UNL     1       0.936   7.961  21.641  0.00  0.00    +0.000 C 
ATOM     29  C   UNL     1       0.445   9.109  22.494  0.00  0.00    +0.000 C 
ATOM     30  C   UNL     1      -0.436   8.541  21.418  0.00  0.00    +0.000 C 
ENDBRANCH  27  28
ENDBRANCH  17  27
ENDBRANCH   1  17
TORSDOF 8
ENDMDL
MODEL 7
REMARK VINA RESULT:      -7.5      1.733      2.818
REMARK  Name = 
REMARK  8 active torsions:
REMARK  status: ('A' for Active; 'I' for Inactive)
REMARK    1  A    between atoms: C_4  and  O_5
REMARK    2  A    between atoms: O_5  and  C_6
REMARK    3  A    between atoms: C_6  and  C_7
REMARK    4  A    between atoms: C_7  and  N_8
REMARK    5  A    between atoms: N_8  and  C_9
REMARK    6  A    between atoms: N_8  and  C_13
REMARK    7  A    between atoms: C_9  and  C_10
REMARK    8  A    between atoms: C_15  and  C_16
REMARK                            x       y       z     vdW  Elec       q    Type
REMARK                         _______ _______ _______ _____ _____    ______ ____
ROOT
ATOM      1  C   UNL     1       3.361   5.689  19.501  0.00  0.00    +0.000 A 
ATOM      2  N   UNL     1       4.671   5.947  19.381  0.00  0.00    +0.000 NA
ATOM      3  C   UNL     1       5.428   4.947  18.969  0.00  0.00    +0.000 A 
ATOM      4  N   UNL     1       5.206   3.739  19.462  0.00  0.00    +0.000 NA
ATOM      5  C   UNL     1       3.961   3.362  19.286  0.00  0.00    +0.000 A 
ATOM      6  C   UNL     1       3.874   2.019  18.883  0.00  0.00    +0.000 A 
ATOM      7  C   UNL     1       2.705   1.452  18.432  0.00  0.00    +0.000 A 
ATOM      8  C   UNL     1       1.559   2.229  18.517  0.00  0.00    +0.000 A 
ATOM      9  C   UNL     1       1.625   3.599  18.952  0.00  0.00    +0.000 A 
ATOM     10  C   UNL     1       2.890   4.281  19.278  0.00  0.00    +0.000 A 
ENDROOT
BRANCH   3  11
ATOM     11  C   UNL     1       5.600   4.846  17.488  0.00  0.00    +0.000 A 
ATOM     12  C   UNL     1       4.852   5.692  16.664  0.00  0.00    +0.000 A 
ATOM     13  C   UNL     1       5.326   6.017  15.396  0.00  0.00    +0.000 A 
ATOM     14  C   UNL     1       6.518   5.464  14.970  0.00  0.00    +0.000 A 
ATOM     15  N   UNL     1       7.227   4.569  15.683  0.00  0.00    +0.000 NA
ATOM     16  C   UNL     1       6.750   4.272  16.917  0.00  0.00    +0.000 A 
ENDBRANCH   3  11
BRANCH   1  17
ATOM     17  N   UNL     1       2.667   6.920  19.574  0.00  0.00    +0.000 N 
BRANCH  17  18
ATOM     18  C   UNL     1       1.397   6.946  20.480  0.00  0.00    +0.000 C 
BRANCH  18  19
ATOM     19  C   UNL     1       1.189   7.881  21.740  0.00  0.00    +0.000 C 
BRANCH  19  20
ATOM     20  O   UNL     1       1.434   9.312  21.661  0.00  0.00    +0.000 OA
BRANCH  20  24
ATOM     21  C   UNL     1      -1.313  12.343  22.569  0.00  0.00    +0.000 A 
ATOM     22  C   UNL     1      -1.428  11.123  23.206  0.00  0.00    +0.000 A 
ATOM     23  C   UNL     1      -0.569  10.043  22.825  0.00  0.00    +0.000 A 
ATOM     24  C   UNL     1       0.392  10.203  21.804  0.00  0.00    +0.000 A 
ATOM     25  C   UNL     1       0.446  11.435  21.153  0.00  0.00    +0.000 A 
ATOM     26  C   UNL     1      -0.392  12.494  21.534  0.00  0.00    +0.000 A 
ENDBRANCH  20  24
ENDBRANCH  19  20
ENDBRANCH  18  19
ENDBRANCH  17  18
BRANCH  17  27
ATOM     27  C   UNL     1       2.490   7.724  18.360  0.00  0.00    +0.000 C 
BRANCH  27  28
ATOM     28  C   UNL     1       1.802   9.034  18.642  0.00  0.00    +0.000 C 
ATOM     29  C   UNL     1       1.982  10.211  17.710  0.00  0.00    +0.000 C 
ATOM     30  C   UNL     1       0.659   9.503  17.781  0.00  0.00    +0.000 C 
ENDBRANCH  27  28
ENDBRANCH  17  27
ENDBRANCH   1  17
TORSDOF 8
ENDMDL
MODEL 8
REMARK VINA RESULT:      -7.5      2.727      8.415
REMARK  Name = 
REMARK  8 active torsions:
REMARK  status: ('A' for Active; 'I' for Inactive)
REMARK    1  A    between atoms: C_4  and  O_5
REMARK    2  A    between atoms: O_5  and  C_6
REMARK    3  A    between atoms: C_6  and  C_7
REMARK    4  A    between atoms: C_7  and  N_8
REMARK    5  A    between atoms: N_8  and  C_9
REMARK    6  A    between atoms: N_8  and  C_13
REMARK    7  A    between atoms: C_9  and  C_10
REMARK    8  A    between atoms: C_15  and  C_16
REMARK                            x       y       z     vdW  Elec       q    Type
REMARK                         _______ _______ _______ _____ _____    ______ ____
ROOT
ATOM      1  C   UNL     1       0.813   9.859  19.361  0.00  0.00    +0.000 A 
ATOM      2  N   UNL     1      -0.471   9.657  19.688  0.00  0.00    +0.000 NA
ATOM      3  C   UNL     1      -1.262  10.713  19.627  0.00  0.00    +0.000 A 
ATOM      4  N   UNL     1      -0.811  11.869  20.086  0.00  0.00    +0.000 NA
ATOM      5  C   UNL     1       0.318  12.214  19.513  0.00  0.00    +0.000 A 
ATOM      6  C   UNL     1       0.343  13.582  19.189  0.00  0.00    +0.000 A 
ATOM      7  C   UNL     1       1.318  14.140  18.397  0.00  0.00    +0.000 A 
ATOM      8  C   UNL     1       2.374  13.319  18.031  0.00  0.00    +0.000 A 
ATOM      9  C   UNL     1       2.379  11.922  18.376  0.00  0.00    +0.000 A 
ATOM     10  C   UNL     1       1.263  11.261  19.078  0.00  0.00    +0.000 A 
ENDROOT
BRANCH   3  11
ATOM     11  C   UNL     1      -1.925  10.937  18.307  0.00  0.00    +0.000 A 
ATOM     12  C   UNL     1      -1.682  10.033  17.268  0.00  0.00    +0.000 A 
ATOM     13  C   UNL     1      -2.623   9.875  16.256  0.00  0.00    +0.000 A 
ATOM     14  C   UNL     1      -3.769  10.645  16.287  0.00  0.00    +0.000 A 
ATOM     15  N   UNL     1      -4.007  11.598  17.207  0.00  0.00    +0.000 NA
ATOM     16  C   UNL     1      -3.081  11.730  18.187  0.00  0.00    +0.000 A 
ENDBRANCH   3  11
BRANCH   1  17
ATOM     17  N   UNL     1       1.414   8.601  19.113  0.00  0.00    +0.000 N 
BRANCH  17  18
ATOM     18  C   UNL     1       1.895   7.805  20.366  0.00  0.00    +0.000 C 
BRANCH  18  19
ATOM     19  C   UNL     1       1.353   6.388  20.816  0.00  0.00    +0.000 C 
BRANCH  19  20
ATOM     20  O   UNL     1       2.265   5.296  21.114  0.00  0.00    +0.000 OA
BRANCH  20  24
ATOM     21  C   UNL     1       2.011   2.020  18.514  0.00  0.00    +0.000 A 
ATOM     22  C   UNL     1       0.847   2.628  18.940  0.00  0.00    +0.000 A 
ATOM     23  C   UNL     1       0.911   3.674  19.915  0.00  0.00    +0.000 A 
ATOM     24  C   UNL     1       2.148   4.093  20.452  0.00  0.00    +0.000 A 
ATOM     25  C   UNL     1       3.296   3.425  20.031  0.00  0.00    +0.000 A 
ATOM     26  C   UNL     1       3.230   2.405  19.069  0.00  0.00    +0.000 A 
ENDBRANCH  20  24
ENDBRANCH  19  20
ENDBRANCH  18  19
ENDBRANCH  17  18
BRANCH  17  27
ATOM     27  C   UNL     1       2.334   8.450  17.981  0.00  0.00    +0.000 C 
BRANCH  27  28
ATOM     28  C   UNL     1       3.367   7.381  18.228  0.00  0.00    +0.000 C 
ATOM     29  C   UNL     1       3.275   6.048  17.522  0.00  0.00    +0.000 C 
ATOM     30  C   UNL     1       4.365   7.016  17.161  0.00  0.00    +0.000 C 
ENDBRANCH  27  28
ENDBRANCH  17  27
ENDBRANCH   1  17
TORSDOF 8
ENDMDL
MODEL 9
REMARK VINA RESULT:      -7.5      1.335      1.913
REMARK  Name = 
REMARK  8 active torsions:
REMARK  status: ('A' for Active; 'I' for Inactive)
REMARK    1  A    between atoms: C_4  and  O_5
REMARK    2  A    between atoms: O_5  and  C_6
REMARK    3  A    between atoms: C_6  and  C_7
REMARK    4  A    between atoms: C_7  and  N_8
REMARK    5  A    between atoms: N_8  and  C_9
REMARK    6  A    between atoms: N_8  and  C_13
REMARK    7  A    between atoms: C_9  and  C_10
REMARK    8  A    between atoms: C_15  and  C_16
REMARK                            x       y       z     vdW  Elec       q    Type
REMARK                         _______ _______ _______ _____ _____    ______ ____
ROOT
ATOM      1  C   UNL     1       2.683   5.929  19.629  0.00  0.00    +0.000 A 
ATOM      2  N   UNL     1       3.986   6.159  19.411  0.00  0.00    +0.000 NA
ATOM      3  C   UNL     1       4.694   5.133  18.976  0.00  0.00    +0.000 A 
ATOM      4  N   UNL     1       4.487   3.944  19.518  0.00  0.00    +0.000 NA
ATOM      5  C   UNL     1       3.226   3.586  19.440  0.00  0.00    +0.000 A 
ATOM      6  C   UNL     1       3.087   2.234  19.084  0.00  0.00    +0.000 A 
ATOM      7  C   UNL     1       1.880   1.678  18.732  0.00  0.00    +0.000 A 
ATOM      8  C   UNL     1       0.757   2.479  18.875  0.00  0.00    +0.000 A 
ATOM      9  C   UNL     1       0.877   3.859  19.264  0.00  0.00    +0.000 A 
ATOM     10  C   UNL     1       2.174   4.526  19.481  0.00  0.00    +0.000 A 
ENDROOT
BRANCH   3  11
ATOM     11  C   UNL     1       4.760   4.987  17.490  0.00  0.00    +0.000 A 
ATOM     12  C   UNL     1       4.667   6.135  16.696  0.00  0.00    +0.000 A 
ATOM     13  C   UNL     1       5.232   6.142  15.425  0.00  0.00    +0.000 A 
ATOM     14  C   UNL     1       5.846   4.994  14.964  0.00  0.00    +0.000 A 
ATOM     15  N   UNL     1       5.878   3.834  15.646  0.00  0.00    +0.000 NA
ATOM     16  C   UNL     1       5.328   3.852  16.885  0.00  0.00    +0.000 A 
ENDBRANCH   3  11
BRANCH   1  17
ATOM     17  N   UNL     1       2.018   7.175  19.714  0.00  0.00    +0.000 N 
BRANCH  17  18
ATOM     18  C   UNL     1       2.448   8.261  18.679  0.00  0.00    +0.000 C 
BRANCH  18  19
ATOM     19  C   UNL     1       1.470   9.039  17.707  0.00  0.00    +0.000 C 
BRANCH  19  20
ATOM     20  O   UNL     1       0.495   9.985  18.224  0.00  0.00    +0.000 OA
BRANCH  20  24
ATOM     21  C   UNL     1       1.486  14.042  18.572  0.00  0.00    +0.000 A 
ATOM     22  C   UNL     1       2.484  13.131  18.290  0.00  0.00    +0.000 A 
ATOM     23  C   UNL     1       2.183  11.731  18.279  0.00  0.00    +0.000 A 
ATOM     24  C   UNL     1       0.879  11.266  18.558  0.00  0.00    +0.000 A 
ATOM     25  C   UNL     1      -0.091  12.212  18.883  0.00  0.00    +0.000 A 
ATOM     26  C   UNL     1       0.206  13.584  18.885  0.00  0.00    +0.000 A 
ENDBRANCH  20  24
ENDBRANCH  19  20
ENDBRANCH  18  19
ENDBRANCH  17  18
BRANCH  17  27
ATOM     27  C   UNL     1       1.735   7.756  21.031  0.00  0.00    +0.000 C 
BRANCH  27  28
ATOM     28  C   UNL     1       0.440   8.525  21.046  0.00  0.00    +0.000 C 
ATOM     29  C   UNL     1      -0.401   8.587  22.302  0.00  0.00    +0.000 C 
ATOM     30  C   UNL     1       0.320   9.813  21.818  0.00  0.00    +0.000 C 
ENDBRANCH  27  28
ENDBRANCH  17  27
ENDBRANCH   1  17
TORSDOF 8
ENDMDL
