MODEL 1
REMARK VINA RESULT:      -7.7      0.000      0.000
REMARK  Name = 
REMARK  5 active torsions:
REMARK  status: ('A' for Active; 'I' for Inactive)
REMARK    1  A    between atoms: C_2  and  C_3
REMARK    2  A    between atoms: C_9  and  N_10
REMARK    3  A    between atoms: C_11  and  C_13
REMARK    4  A    between atoms: C_17  and  N_18
REMARK    5  A    between atoms: C_19  and  C_21
REMARK                            x       y       z     vdW  Elec       q    Type
REMARK                         _______ _______ _______ _____ _____    ______ ____
ROOT
ATOM      1  C   UNL     1       1.159   8.754  21.150  0.00  0.00    +0.000 A 
ATOM      2  N   UNL     1       1.770   8.719  22.355  0.00  0.00    +0.000 NA
ATOM      3  N   UNL     1       0.914   9.374  23.161  0.00  0.00    +0.000 N 
ATOM      4  C   UNL     1      -0.205   9.819  22.531  0.00  0.00    +0.000 A 
ATOM      5  C   UNL     1      -0.095   9.440  21.216  0.00  0.00    +0.000 A 
ATOM      6  H   UNL     1       1.157   9.482  24.141  0.00  0.00    +0.000 HD
ENDROOT
BRANCH   1   8
ATOM      7  N   UNL     1       2.315   6.895  20.175  0.00  0.00    +0.000 N 
ATOM      8  C   UNL     1       1.776   8.149  19.959  0.00  0.00    +0.000 C 
ATOM      9  O   UNL     1       1.809   8.728  18.878  0.00  0.00    +0.000 OA
ATOM     10  H   UNL     1       2.113   6.493  21.089  0.00  0.00    +0.000 HD
BRANCH   7  17
ATOM     11  C   UNL     1       6.031   4.891  17.798  0.00  0.00    +0.000 C 
ATOM     12  O   UNL     1       6.338   4.311  16.758  0.00  0.00    +0.000 OA
ATOM     13  N   UNL     1       4.842   4.653  18.471  0.00  0.00    +0.000 N 
ATOM     14  C   UNL     1       3.975   3.571  18.015  0.00  0.00    +0.000 C 
ATOM     15  C   UNL     1       2.619   4.108  17.568  0.00  0.00    +0.000 C 
ATOM     16  C   UNL     1       1.972   4.968  18.660  0.00  0.00    +0.000 C 
ATOM     17  C   UNL     1       2.918   6.098  19.115  0.00  0.00    +0.000 C 
ATOM     18  C   UNL     1       4.277   5.491  19.533  0.00  0.00    +0.000 C 
BRANCH  11  20
ATOM     19  C   UNL     1       7.410   6.925  17.697  0.00  0.00    +0.000 C 
ATOM     20  C   UNL     1       6.972   5.874  18.401  0.00  0.00    +0.000 C 
ENDBRANCH  11  20
ENDBRANCH   7  17
ENDBRANCH   1   8
BRANCH   5  21
ATOM     21  N   UNL     1      -0.994   9.670  20.177  0.00  0.00    +0.000 N 
ATOM     22  C   UNL     1      -1.145  10.879  19.514  0.00  0.00    +0.000 C 
ATOM     23  O   UNL     1      -0.507  11.898  19.759  0.00  0.00    +0.000 OA
ATOM     24  H   UNL     1      -1.487   8.845  19.842  0.00  0.00    +0.000 HD
BRANCH  22  25
ATOM     25  C   UNL     1      -2.142  10.920  18.399  0.00  0.00    +0.000 A 
ATOM     26  C   UNL     1      -1.936  10.138  17.243  0.00  0.00    +0.000 A 
ATOM     27 CL   UNL     1      -0.488   9.238  16.933  0.00  0.00    +0.000 Cl
ATOM     28  C   UNL     1      -2.906  10.082  16.230  0.00  0.00    +0.000 A 
ATOM     29  C   UNL     1      -4.084  10.812  16.339  0.00  0.00    +0.000 A 
ATOM     30  C   UNL     1      -4.295  11.600  17.465  0.00  0.00    +0.000 A 
ATOM     31  C   UNL     1      -3.341  11.650  18.494  0.00  0.00    +0.000 A 
ATOM     32 CL   UNL     1      -3.775  12.615  19.865  0.00  0.00    +0.000 Cl
ENDBRANCH  22  25
ENDBRANCH   5  21
TORSDOF 5
ENDMDL
MODEL 2
REMARK VINA RESULT:      -7.7      3.726      8.457
REMARK  Name = 
REMARK  5 active torsions:
REMARK  status: ('A' for Active; 'I' for Inactive)
REMARK    1  A    between atoms: C_2  and  C_3
REMARK    2  A    between atoms: C_9  and  N_10
REMARK    3  A    between atoms: C_11  and  C_13
REMARK    4  A    between atoms: C_17  and  N_18
REMARK    5  A    between atoms: C_19  and  C_21
REMARK                            x       y       z     vdW  Elec       q    Type
REMARK                         _______ _______ _______ _____ _____    ______ ____
ROOT
ATOM      1  C   UNL     1       2.800   3.169  20.763  0.00  0.00    +0.000 A 
ATOM      2  N   UNL     1       2.571   2.587  21.961  0.00  0.00    +0.000 NA
ATOM      3  N   UNL     1       3.555   1.674  22.062  0.00  0.00    +0.000 N 
ATOM      4  C   UNL     1       4.394   1.650  20.994  0.00  0.00    +0.000 A 
ATOM      5  C   UNL     1       3.947   2.606  20.116  0.00  0.00    +0.000 A 
ATOM      6  H   UNL     1       3.597   1.096  22.896  0.00  0.00    +0.000 HD
ENDROOT
BRANCH   1   8
ATOM      7  N   UNL     1       2.498   5.494  20.268  0.00  0.00    +0.000 N 
ATOM      8  C   UNL     1       1.928   4.235  20.248  0.00  0.00    +0.000 C 
ATOM      9  O   UNL     1       0.790   4.009  19.848  0.00  0.00    +0.000 OA
ATOM     10  H   UNL     1       3.486   5.513  20.519  0.00  0.00    +0.000 HD
BRANCH   7  17
ATOM     11  C   UNL     1      -0.079   9.578  20.661  0.00  0.00    +0.000 C 
ATOM     12  O   UNL     1      -0.694  10.421  20.012  0.00  0.00    +0.000 OA
ATOM     13  N   UNL     1       1.112   9.014  20.229  0.00  0.00    +0.000 N 
ATOM     14  C   UNL     1       1.745   9.537  19.023  0.00  0.00    +0.000 C 
ATOM     15  C   UNL     1       1.839   8.462  17.944  0.00  0.00    +0.000 C 
ATOM     16  C   UNL     1       2.524   7.197  18.474  0.00  0.00    +0.000 C 
ATOM     17  C   UNL     1       1.827   6.677  19.748  0.00  0.00    +0.000 C 
ATOM     18  C   UNL     1       1.746   7.816  20.789  0.00  0.00    +0.000 C 
BRANCH  11  20
ATOM     19  C   UNL     1      -0.252   9.802  23.105  0.00  0.00    +0.000 C 
ATOM     20  C   UNL     1      -0.596   9.146  21.989  0.00  0.00    +0.000 C 
ENDBRANCH  11  20
ENDBRANCH   7  17
ENDBRANCH   1   8
BRANCH   5  21
ATOM     21  N   UNL     1       4.479   2.953  18.877  0.00  0.00    +0.000 N 
ATOM     22  C   UNL     1       5.130   4.146  18.601  0.00  0.00    +0.000 C 
ATOM     23  O   UNL     1       5.317   5.047  19.412  0.00  0.00    +0.000 OA
ATOM     24  H   UNL     1       4.459   2.214  18.176  0.00  0.00    +0.000 HD
BRANCH  22  25
ATOM     25  C   UNL     1       5.664   4.321  17.215  0.00  0.00    +0.000 A 
ATOM     26  C   UNL     1       4.786   4.268  16.111  0.00  0.00    +0.000 A 
ATOM     27 CL   UNL     1       3.114   3.830  16.231  0.00  0.00    +0.000 Cl
ATOM     28  C   UNL     1       5.247   4.530  14.811  0.00  0.00    +0.000 A 
ATOM     29  C   UNL     1       6.585   4.833  14.584  0.00  0.00    +0.000 A 
ATOM     30  C   UNL     1       7.465   4.874  15.659  0.00  0.00    +0.000 A 
ATOM     31  C   UNL     1       7.014   4.632  16.966  0.00  0.00    +0.000 A 
ATOM     32 CL   UNL     1       8.210   4.792  18.208  0.00  0.00    +0.000 Cl
ENDBRANCH  22  25
ENDBRANCH   5  21
TORSDOF 5
ENDMDL
MODEL 3
REMARK VINA RESULT:      -7.7      0.108      1.713
REMARK  Name = 
REMARK  5 active torsions:
REMARK  status: ('A' for Active; 'I' for Inactive)
REMARK    1  A    between atoms: C_2  and  C_3
REMARK    2  A    between atoms: C_9  and  N_10
REMARK    3  A    between atoms: C_11  and  C_13
REMARK    4  A    between atoms: C_17  and  N_18
REMARK    5  A    between atoms: C_19  and  C_21
REMARK                            x       y       z     vdW  Elec       q    Type
REMARK                         _______ _______ _______ _____ _____    ______ ____
ROOT
ATOM      1  C   UNL     1       1.168   8.765  21.104  0.00  0.00    +0.000 A 
ATOM      2  N   UNL     1       1.785   8.765  22.307  0.00  0.00    +0.000 NA
ATOM      3  N   UNL     1       0.917   9.411  23.106  0.00  0.00    +0.000 N 
ATOM      4  C   UNL     1      -0.216   9.817  22.475  0.00  0.00    +0.000 A 
ATOM      5  C   UNL     1      -0.104   9.421  21.166  0.00  0.00    +0.000 A 
ATOM      6  H   UNL     1       1.161   9.541  24.084  0.00  0.00    +0.000 HD
ENDROOT
BRANCH   1   8
ATOM      7  N   UNL     1       2.320   6.899  20.139  0.00  0.00    +0.000 N 
ATOM      8  C   UNL     1       1.793   8.158  19.920  0.00  0.00    +0.000 C 
ATOM      9  O   UNL     1       1.844   8.738  18.840  0.00  0.00    +0.000 OA
ATOM     10  H   UNL     1       2.104   6.497  21.051  0.00  0.00    +0.000 HD
BRANCH   7  17
ATOM     11  C   UNL     1       6.050   4.889  17.790  0.00  0.00    +0.000 C 
ATOM     12  O   UNL     1       6.363   4.306  16.754  0.00  0.00    +0.000 OA
ATOM     13  N   UNL     1       4.858   4.653  18.457  0.00  0.00    +0.000 N 
ATOM     14  C   UNL     1       3.994   3.569  17.999  0.00  0.00    +0.000 C 
ATOM     15  C   UNL     1       2.640   4.105  17.543  0.00  0.00    +0.000 C 
ATOM     16  C   UNL     1       1.986   4.968  18.628  0.00  0.00    +0.000 C 
ATOM     17  C   UNL     1       2.930   6.100  19.086  0.00  0.00    +0.000 C 
ATOM     18  C   UNL     1       4.286   5.494  19.513  0.00  0.00    +0.000 C 
BRANCH  11  20
ATOM     19  C   UNL     1       7.340   6.983  17.732  0.00  0.00    +0.000 C 
ATOM     20  C   UNL     1       6.987   5.875  18.395  0.00  0.00    +0.000 C 
ENDBRANCH  11  20
ENDBRANCH   7  17
ENDBRANCH   1   8
BRANCH   5  21
ATOM     21  N   UNL     1      -1.012   9.612  20.129  0.00  0.00    +0.000 N 
ATOM     22  C   UNL     1      -1.161  10.791  19.413  0.00  0.00    +0.000 C 
ATOM     23  O   UNL     1      -0.512  11.814  19.604  0.00  0.00    +0.000 OA
ATOM     24  H   UNL     1      -1.517   8.777  19.837  0.00  0.00    +0.000 HD
BRANCH  22  25
ATOM     25  C   UNL     1      -2.171  10.791  18.309  0.00  0.00    +0.000 A 
ATOM     26  C   UNL     1      -3.325  11.597  18.412  0.00  0.00    +0.000 A 
ATOM     27 CL   UNL     1      -3.758  12.483  19.837  0.00  0.00    +0.000 Cl
ATOM     28  C   UNL     1      -4.234  11.691  17.346  0.00  0.00    +0.000 A 
ATOM     29  C   UNL     1      -4.023  10.976  16.172  0.00  0.00    +0.000 A 
ATOM     30  C   UNL     1      -2.900  10.165  16.062  0.00  0.00    +0.000 A 
ATOM     31  C   UNL     1      -1.973  10.076  17.113  0.00  0.00    +0.000 A 
ATOM     32 CL   UNL     1      -0.587   9.086  16.801  0.00  0.00    +0.000 Cl
ENDBRANCH  22  25
ENDBRANCH   5  21
TORSDOF 5
ENDMDL
MODEL 4
REMARK VINA RESULT:      -7.3      3.479      5.322
REMARK  Name = 
REMARK  5 active torsions:
REMARK  status: ('A' for Active; 'I' for Inactive)
REMARK    1  A    between atoms: C_2  and  C_3
REMARK    2  A    between atoms: C_9  and  N_10
REMARK    3  A    between atoms: C_11  and  C_13
REMARK    4  A    between atoms: C_17  and  N_18
REMARK    5  A    between atoms: C_19  and  C_21
REMARK                            x       y       z     vdW  Elec       q    Type
REMARK                         _______ _______ _______ _____ _____    ______ ____
ROOT
ATOM      1  C   UNL     1       2.502   3.282  19.286  0.00  0.00    +0.000 A 
ATOM      2  N   UNL     1       2.409   2.025  19.774  0.00  0.00    +0.000 NA
ATOM      3  N   UNL     1       1.404   2.106  20.665  0.00  0.00    +0.000 N 
ATOM      4  C   UNL     1       0.856   3.346  20.765  0.00  0.00    +0.000 A 
ATOM      5  C   UNL     1       1.536   4.152  19.886  0.00  0.00    +0.000 A 
ATOM      6  H   UNL     1       1.139   1.269  21.175  0.00  0.00    +0.000 HD
ENDROOT
BRANCH   1   8
ATOM      7  N   UNL     1       4.618   4.289  18.782  0.00  0.00    +0.000 N 
ATOM      8  C   UNL     1       3.507   3.640  18.274  0.00  0.00    +0.000 C 
ATOM      9  O   UNL     1       3.353   3.387  17.083  0.00  0.00    +0.000 OA
ATOM     10  H   UNL     1       4.662   4.330  19.799  0.00  0.00    +0.000 HD
BRANCH   7  17
ATOM     11  C   UNL     1       6.950   4.932  14.584  0.00  0.00    +0.000 C 
ATOM     12  O   UNL     1       8.052   5.171  14.096  0.00  0.00    +0.000 OA
ATOM     13  N   UNL     1       6.489   5.541  15.741  0.00  0.00    +0.000 N 
ATOM     14  C   UNL     1       7.275   6.618  16.335  0.00  0.00    +0.000 C 
ATOM     15  C   UNL     1       7.739   6.244  17.740  0.00  0.00    +0.000 C 
ATOM     16  C   UNL     1       6.561   5.813  18.621  0.00  0.00    +0.000 C 
ATOM     17  C   UNL     1       5.755   4.676  17.959  0.00  0.00    +0.000 C 
ATOM     18  C   UNL     1       5.335   5.108  16.536  0.00  0.00    +0.000 C 
BRANCH  11  20
ATOM     19  C   UNL     1       6.239   3.611  12.634  0.00  0.00    +0.000 C 
ATOM     20  C   UNL     1       6.035   3.972  13.908  0.00  0.00    +0.000 C 
ENDBRANCH  11  20
ENDBRANCH   7  17
ENDBRANCH   1   8
BRANCH   5  21
ATOM     21  N   UNL     1       1.339   5.506  19.633  0.00  0.00    +0.000 N 
ATOM     22  C   UNL     1       2.270   6.503  19.885  0.00  0.00    +0.000 C 
ATOM     23  O   UNL     1       3.383   6.318  20.366  0.00  0.00    +0.000 OA
ATOM     24  H   UNL     1       0.479   5.732  19.136  0.00  0.00    +0.000 HD
BRANCH  22  25
ATOM     25  C   UNL     1       1.885   7.900  19.513  0.00  0.00    +0.000 A 
ATOM     26  C   UNL     1       2.295   8.435  18.273  0.00  0.00    +0.000 A 
ATOM     27 CL   UNL     1       3.386   7.634  17.191  0.00  0.00    +0.000 Cl
ATOM     28  C   UNL     1       1.861   9.704  17.858  0.00  0.00    +0.000 A 
ATOM     29  C   UNL     1       1.030  10.467  18.670  0.00  0.00    +0.000 A 
ATOM     30  C   UNL     1       0.631   9.961  19.902  0.00  0.00    +0.000 A 
ATOM     31  C   UNL     1       1.042   8.686  20.321  0.00  0.00    +0.000 A 
ATOM     32 CL   UNL     1       0.404   8.160  21.843  0.00  0.00    +0.000 Cl
ENDBRANCH  22  25
ENDBRANCH   5  21
TORSDOF 5
ENDMDL
MODEL 5
REMARK VINA RESULT:      -7.3      2.885      3.623
REMARK  Name = 
REMARK  5 active torsions:
REMARK  status: ('A' for Active; 'I' for Inactive)
REMARK    1  A    between atoms: C_2  and  C_3
REMARK    2  A    between atoms: C_9  and  N_10
REMARK    3  A    between atoms: C_11  and  C_13
REMARK    4  A    between atoms: C_17  and  N_18
REMARK    5  A    between atoms: C_19  and  C_21
REMARK                            x       y       z     vdW  Elec       q    Type
REMARK                         _______ _______ _______ _____ _____    ______ ____
ROOT
ATOM      1  C   UNL     1       0.682   8.704  21.142  0.00  0.00    +0.000 A 
ATOM      2  N   UNL     1      -0.132   7.915  21.877  0.00  0.00    +0.000 NA
ATOM      3  N   UNL     1      -0.653   8.759  22.786  0.00  0.00    +0.000 N 
ATOM      4  C   UNL     1      -0.214  10.039  22.664  0.00  0.00    +0.000 A 
ATOM      5  C   UNL     1       0.660  10.059  21.606  0.00  0.00    +0.000 A 
ATOM      6  H   UNL     1      -1.310   8.393  23.468  0.00  0.00    +0.000 HD
ENDROOT
BRANCH   1   8
ATOM      7  N   UNL     1       1.955   6.886  20.238  0.00  0.00    +0.000 N 
ATOM      8  C   UNL     1       1.472   8.164  20.025  0.00  0.00    +0.000 C 
ATOM      9  O   UNL     1       1.683   8.810  19.003  0.00  0.00    +0.000 OA
ATOM     10  H   UNL     1       1.606   6.431  21.081  0.00  0.00    +0.000 HD
BRANCH   7  17
ATOM     11  C   UNL     1       5.938   4.800  18.433  0.00  0.00    +0.000 C 
ATOM     12  O   UNL     1       6.413   4.299  17.416  0.00  0.00    +0.000 OA
ATOM     13  N   UNL     1       4.623   4.605  18.826  0.00  0.00    +0.000 N 
ATOM     14  C   UNL     1       3.797   3.654  18.088  0.00  0.00    +0.000 C 
ATOM     15  C   UNL     1       2.602   4.351  17.445  0.00  0.00    +0.000 C 
ATOM     16  C   UNL     1       1.803   5.155  18.477  0.00  0.00    +0.000 C 
ATOM     17  C   UNL     1       2.709   6.146  19.236  0.00  0.00    +0.000 C 
ATOM     18  C   UNL     1       3.908   5.383  19.844  0.00  0.00    +0.000 C 
BRANCH  11  20
ATOM     19  C   UNL     1       7.878   6.259  18.834  0.00  0.00    +0.000 C 
ATOM     20  C   UNL     1       6.798   5.632  19.319  0.00  0.00    +0.000 C 
ENDBRANCH  11  20
ENDBRANCH   7  17
ENDBRANCH   1   8
BRANCH   5  21
ATOM     21  N   UNL     1       1.369  11.143  21.096  0.00  0.00    +0.000 N 
ATOM     22  C   UNL     1       0.821  12.153  20.319  0.00  0.00    +0.000 C 
ATOM     23  O   UNL     1      -0.356  12.218  19.981  0.00  0.00    +0.000 OA
ATOM     24  H   UNL     1       2.333  11.220  21.418  0.00  0.00    +0.000 HD
BRANCH  22  25
ATOM     25  C   UNL     1       1.740  13.254  19.892  0.00  0.00    +0.000 A 
ATOM     26  C   UNL     1       2.493  13.121  18.706  0.00  0.00    +0.000 A 
ATOM     27 CL   UNL     1       2.567  11.665  17.770  0.00  0.00    +0.000 Cl
ATOM     28  C   UNL     1       3.283  14.181  18.233  0.00  0.00    +0.000 A 
ATOM     29  C   UNL     1       3.352  15.379  18.935  0.00  0.00    +0.000 A 
ATOM     30  C   UNL     1       2.627  15.520  20.113  0.00  0.00    +0.000 A 
ATOM     31  C   UNL     1       1.819  14.475  20.588  0.00  0.00    +0.000 A 
ATOM     32 CL   UNL     1       0.919  14.824  22.026  0.00  0.00    +0.000 Cl
ENDBRANCH  22  25
ENDBRANCH   5  21
TORSDOF 5
ENDMDL
MODEL 6
REMARK VINA RESULT:      -7.3      4.831     10.227
REMARK  Name = 
REMARK  5 active torsions:
REMARK  status: ('A' for Active; 'I' for Inactive)
REMARK    1  A    between atoms: C_2  and  C_3
REMARK    2  A    between atoms: C_9  and  N_10
REMARK    3  A    between atoms: C_11  and  C_13
REMARK    4  A    between atoms: C_17  and  N_18
REMARK    5  A    between atoms: C_19  and  C_21
REMARK                            x       y       z     vdW  Elec       q    Type
REMARK                         _______ _______ _______ _____ _____    ______ ____
ROOT
ATOM      1  C   UNL     1      -4.042  11.224  17.320  0.00  0.00    +0.000 A 
ATOM      2  N   UNL     1      -4.344  11.459  16.024  0.00  0.00    +0.000 NA
ATOM      3  N   UNL     1      -3.219  11.114  15.372  0.00  0.00    +0.000 N 
ATOM      4  C   UNL     1      -2.224  10.672  16.185  0.00  0.00    +0.000 A 
ATOM      5  C   UNL     1      -2.709  10.724  17.468  0.00  0.00    +0.000 A 
ATOM      6  H   UNL     1      -3.198  11.204  14.360  0.00  0.00    +0.000 HD
ENDROOT
BRANCH   1   8
ATOM      7  N   UNL     1      -4.875  12.726  18.992  0.00  0.00    +0.000 N 
ATOM      8  C   UNL     1      -5.013  11.487  18.394  0.00  0.00    +0.000 C 
ATOM      9  O   UNL     1      -5.858  10.661  18.725  0.00  0.00    +0.000 OA
ATOM     10  H   UNL     1      -4.207  13.348  18.539  0.00  0.00    +0.000 HD
BRANCH   7  17
ATOM     11  C   UNL     1      -5.924  14.410  23.412  0.00  0.00    +0.000 C 
ATOM     12  O   UNL     1      -6.853  14.648  24.182  0.00  0.00    +0.000 OA
ATOM     13  N   UNL     1      -5.992  14.655  22.049  0.00  0.00    +0.000 N 
ATOM     14  C   UNL     1      -7.156  15.354  21.514  0.00  0.00    +0.000 C 
ATOM     15  C   UNL     1      -7.915  14.474  20.525  0.00  0.00    +0.000 C 
ATOM     16  C   UNL     1      -6.988  13.937  19.429  0.00  0.00    +0.000 C 
ATOM     17  C   UNL     1      -5.772  13.207  20.034  0.00  0.00    +0.000 C 
ATOM     18  C   UNL     1      -5.061  14.143  21.039  0.00  0.00    +0.000 C 
BRANCH  11  20
ATOM     19  C   UNL     1      -4.594  12.643  24.490  0.00  0.00    +0.000 C 
ATOM     20  C   UNL     1      -4.645  13.865  23.944  0.00  0.00    +0.000 C 
ENDBRANCH  11  20
ENDBRANCH   7  17
ENDBRANCH   1   8
BRANCH   5  21
ATOM     21  N   UNL     1      -2.058  10.375  18.648  0.00  0.00    +0.000 N 
ATOM     22  C   UNL     1      -0.953  11.034  19.168  0.00  0.00    +0.000 C 
ATOM     23  O   UNL     1      -0.410  12.006  18.654  0.00  0.00    +0.000 OA
ATOM     24  H   UNL     1      -2.512   9.642  19.191  0.00  0.00    +0.000 HD
BRANCH  22  25
ATOM     25  C   UNL     1      -0.414  10.528  20.469  0.00  0.00    +0.000 A 
ATOM     26  C   UNL     1      -0.992  10.956  21.683  0.00  0.00    +0.000 A 
ATOM     27 CL   UNL     1      -2.203  12.190  21.792  0.00  0.00    +0.000 Cl
ATOM     28  C   UNL     1      -0.570  10.418  22.910  0.00  0.00    +0.000 A 
ATOM     29  C   UNL     1       0.440   9.463  22.952  0.00  0.00    +0.000 A 
ATOM     30  C   UNL     1       1.030   9.043  21.766  0.00  0.00    +0.000 A 
ATOM     31  C   UNL     1       0.605   9.560  20.531  0.00  0.00    +0.000 A 
ATOM     32 CL   UNL     1       1.381   8.888  19.136  0.00  0.00    +0.000 Cl
ENDBRANCH  22  25
ENDBRANCH   5  21
TORSDOF 5
ENDMDL
MODEL 7
REMARK VINA RESULT:      -7.2      3.521      8.483
REMARK  Name = 
REMARK  5 active torsions:
REMARK  status: ('A' for Active; 'I' for Inactive)
REMARK    1  A    between atoms: C_2  and  C_3
REMARK    2  A    between atoms: C_9  and  N_10
REMARK    3  A    between atoms: C_11  and  C_13
REMARK    4  A    between atoms: C_17  and  N_18
REMARK    5  A    between atoms: C_19  and  C_21
REMARK                            x       y       z     vdW  Elec       q    Type
REMARK                         _______ _______ _______ _____ _____    ______ ____
ROOT
ATOM      1  C   UNL     1       2.795   3.656  19.832  0.00  0.00    +0.000 A 
ATOM      2  N   UNL     1       2.292   2.420  20.043  0.00  0.00    +0.000 NA
ATOM      3  N   UNL     1       3.360   1.615  19.897  0.00  0.00    +0.000 N 
ATOM      4  C   UNL     1       4.511   2.276  19.607  0.00  0.00    +0.000 A 
ATOM      5  C   UNL     1       4.199   3.612  19.553  0.00  0.00    +0.000 A 
ATOM      6  H   UNL     1       3.233   0.614  20.011  0.00  0.00    +0.000 HD
ENDROOT
BRANCH   1   8
ATOM      7  N   UNL     1       2.431   5.932  19.173  0.00  0.00    +0.000 N 
ATOM      8  C   UNL     1       1.942   4.853  19.886  0.00  0.00    +0.000 C 
ATOM      9  O   UNL     1       0.893   4.877  20.522  0.00  0.00    +0.000 OA
ATOM     10  H   UNL     1       3.251   5.731  18.602  0.00  0.00    +0.000 HD
BRANCH   7  17
ATOM     11  C   UNL     1      -0.026   9.744  20.878  0.00  0.00    +0.000 C 
ATOM     12  O   UNL     1      -0.711  10.706  20.538  0.00  0.00    +0.000 OA
ATOM     13  N   UNL     1       1.092   9.326  20.171  0.00  0.00    +0.000 N 
ATOM     14  C   UNL     1       1.568  10.140  19.056  0.00  0.00    +0.000 C 
ATOM     15  C   UNL     1       1.508   9.361  17.746  0.00  0.00    +0.000 C 
ATOM     16  C   UNL     1       2.241   8.020  17.859  0.00  0.00    +0.000 C 
ATOM     17  C   UNL     1       1.712   7.191  19.047  0.00  0.00    +0.000 C 
ATOM     18  C   UNL     1       1.780   8.042  20.336  0.00  0.00    +0.000 C 
BRANCH  11  20
ATOM     19  C   UNL     1      -0.221   9.554  23.323  0.00  0.00    +0.000 C 
ATOM     20  C   UNL     1      -0.369   8.992  22.116  0.00  0.00    +0.000 C 
ENDBRANCH  11  20
ENDBRANCH   7  17
ENDBRANCH   1   8
BRANCH   5  21
ATOM     21  N   UNL     1       5.047   4.683  19.286  0.00  0.00    +0.000 N 
ATOM     22  C   UNL     1       5.848   4.798  18.159  0.00  0.00    +0.000 C 
ATOM     23  O   UNL     1       5.912   3.969  17.257  0.00  0.00    +0.000 OA
ATOM     24  H   UNL     1       4.974   5.465  19.935  0.00  0.00    +0.000 HD
BRANCH  22  25
ATOM     25  C   UNL     1       6.667   6.043  18.034  0.00  0.00    +0.000 A 
ATOM     26  C   UNL     1       6.286   7.046  17.118  0.00  0.00    +0.000 A 
ATOM     27 CL   UNL     1       4.999   6.865  15.971  0.00  0.00    +0.000 Cl
ATOM     28  C   UNL     1       6.979   8.265  17.055  0.00  0.00    +0.000 A 
ATOM     29  C   UNL     1       8.069   8.501  17.886  0.00  0.00    +0.000 A 
ATOM     30  C   UNL     1       8.467   7.517  18.783  0.00  0.00    +0.000 A 
ATOM     31  C   UNL     1       7.771   6.300  18.868  0.00  0.00    +0.000 A 
ATOM     32 CL   UNL     1       8.336   5.202  20.082  0.00  0.00    +0.000 Cl
ENDBRANCH  22  25
ENDBRANCH   5  21
TORSDOF 5
ENDMDL
MODEL 8
REMARK VINA RESULT:      -7.2      3.505      5.525
REMARK  Name = 
REMARK  5 active torsions:
REMARK  status: ('A' for Active; 'I' for Inactive)
REMARK    1  A    between atoms: C_2  and  C_3
REMARK    2  A    between atoms: C_9  and  N_10
REMARK    3  A    between atoms: C_11  and  C_13
REMARK    4  A    between atoms: C_17  and  N_18
REMARK    5  A    between atoms: C_19  and  C_21
REMARK                            x       y       z     vdW  Elec       q    Type
REMARK                         _______ _______ _______ _____ _____    ______ ____
ROOT
ATOM      1  C   UNL     1       2.577   3.236  19.461  0.00  0.00    +0.000 A 
ATOM      2  N   UNL     1       2.504   2.010  20.027  0.00  0.00    +0.000 NA
ATOM      3  N   UNL     1       1.478   2.121  20.890  0.00  0.00    +0.000 N 
ATOM      4  C   UNL     1       0.896   3.349  20.898  0.00  0.00    +0.000 A 
ATOM      5  C   UNL     1       1.575   4.116  19.984  0.00  0.00    +0.000 A 
ATOM      6  H   UNL     1       1.223   1.311  21.447  0.00  0.00    +0.000 HD
ENDROOT
BRANCH   1   8
ATOM      7  N   UNL     1       4.627   4.349  18.914  0.00  0.00    +0.000 N 
ATOM      8  C   UNL     1       3.595   3.555  18.449  0.00  0.00    +0.000 C 
ATOM      9  O   UNL     1       3.513   3.152  17.293  0.00  0.00    +0.000 OA
ATOM     10  H   UNL     1       4.623   4.511  19.920  0.00  0.00    +0.000 HD
BRANCH   7  17
ATOM     11  C   UNL     1       6.949   5.014  14.714  0.00  0.00    +0.000 C 
ATOM     12  O   UNL     1       8.052   5.244  14.224  0.00  0.00    +0.000 OA
ATOM     13  N   UNL     1       6.502   5.614  15.881  0.00  0.00    +0.000 N 
ATOM     14  C   UNL     1       7.307   6.671  16.486  0.00  0.00    +0.000 C 
ATOM     15  C   UNL     1       7.771   6.272  17.883  0.00  0.00    +0.000 C 
ATOM     16  C   UNL     1       6.592   5.846  18.764  0.00  0.00    +0.000 C 
ATOM     17  C   UNL     1       5.766   4.730  18.091  0.00  0.00    +0.000 C 
ATOM     18  C   UNL     1       5.345   5.187  16.675  0.00  0.00    +0.000 C 
BRANCH  11  20
ATOM     19  C   UNL     1       6.266   3.649  12.784  0.00  0.00    +0.000 C 
ATOM     20  C   UNL     1       6.017   4.076  14.029  0.00  0.00    +0.000 C 
ENDBRANCH  11  20
ENDBRANCH   7  17
ENDBRANCH   1   8
BRANCH   5  21
ATOM     21  N   UNL     1       1.349   5.445  19.640  0.00  0.00    +0.000 N 
ATOM     22  C   UNL     1       2.215   6.494  19.917  0.00  0.00    +0.000 C 
ATOM     23  O   UNL     1       3.287   6.382  20.503  0.00  0.00    +0.000 OA
ATOM     24  H   UNL     1       0.529   5.608  19.057  0.00  0.00    +0.000 HD
BRANCH  22  25
ATOM     25  C   UNL     1       1.811   7.851  19.436  0.00  0.00    +0.000 A 
ATOM     26  C   UNL     1       0.968   8.657  20.230  0.00  0.00    +0.000 A 
ATOM     27 CL   UNL     1       0.204   8.110  21.686  0.00  0.00    +0.000 Cl
ATOM     28  C   UNL     1       0.659   9.972  19.847  0.00  0.00    +0.000 A 
ATOM     29  C   UNL     1       1.166  10.501  18.665  0.00  0.00    +0.000 A 
ATOM     30  C   UNL     1       1.985   9.714  17.864  0.00  0.00    +0.000 A 
ATOM     31  C   UNL     1       2.317   8.404  18.244  0.00  0.00    +0.000 A 
ATOM     32 CL   UNL     1       3.405   7.573  17.184  0.00  0.00    +0.000 Cl
ENDBRANCH  22  25
ENDBRANCH   5  21
TORSDOF 5
ENDMDL
MODEL 9
REMARK VINA RESULT:      -7.2      2.874      4.003
REMARK  Name = 
REMARK  5 active torsions:
REMARK  status: ('A' for Active; 'I' for Inactive)
REMARK    1  A    between atoms: C_2  and  C_3
REMARK    2  A    between atoms: C_9  and  N_10
REMARK    3  A    between atoms: C_11  and  C_13
REMARK    4  A    between atoms: C_17  and  N_18
REMARK    5  A    between atoms: C_19  and  C_21
REMARK                            x       y       z     vdW  Elec       q    Type
REMARK                         _______ _______ _______ _____ _____    ______ ____
ROOT
ATOM      1  C   UNL     1       0.876   8.602  21.017  0.00  0.00    +0.000 A 
ATOM      2  N   UNL     1       0.087   7.789  21.754  0.00  0.00    +0.000 NA
ATOM      3  N   UNL     1      -0.467   8.619  22.656  0.00  0.00    +0.000 N 
ATOM      4  C   UNL     1      -0.072   9.913  22.529  0.00  0.00    +0.000 A 
ATOM      5  C   UNL     1       0.805   9.958  21.473  0.00  0.00    +0.000 A 
ATOM      6  H   UNL     1      -1.114   8.234  23.338  0.00  0.00    +0.000 HD
ENDROOT
BRANCH   1   8
ATOM      7  N   UNL     1       2.154   6.796  20.097  0.00  0.00    +0.000 N 
ATOM      8  C   UNL     1       1.689   8.084  19.907  0.00  0.00    +0.000 C 
ATOM      9  O   UNL     1       1.932   8.754  18.908  0.00  0.00    +0.000 OA
ATOM     10  H   UNL     1       1.779   6.322  20.918  0.00  0.00    +0.000 HD
BRANCH   7  17
ATOM     11  C   UNL     1       6.193   4.832  18.280  0.00  0.00    +0.000 C 
ATOM     12  O   UNL     1       6.678   4.341  17.263  0.00  0.00    +0.000 OA
ATOM     13  N   UNL     1       4.887   4.596  18.682  0.00  0.00    +0.000 N 
ATOM     14  C   UNL     1       4.090   3.613  17.955  0.00  0.00    +0.000 C 
ATOM     15  C   UNL     1       2.868   4.266  17.316  0.00  0.00    +0.000 C 
ATOM     16  C   UNL     1       2.049   5.050  18.348  0.00  0.00    +0.000 C 
ATOM     17  C   UNL     1       2.926   6.075  19.095  0.00  0.00    +0.000 C 
ATOM     18  C   UNL     1       4.153   5.356  19.699  0.00  0.00    +0.000 C 
BRANCH  11  20
ATOM     19  C   UNL     1       7.830   6.635  18.629  0.00  0.00    +0.000 C 
ATOM     20  C   UNL     1       7.030   5.698  19.154  0.00  0.00    +0.000 C 
ENDBRANCH  11  20
ENDBRANCH   7  17
ENDBRANCH   1   8
BRANCH   5  21
ATOM     21  N   UNL     1       1.477  11.063  20.960  0.00  0.00    +0.000 N 
ATOM     22  C   UNL     1       0.878  12.101  20.261  0.00  0.00    +0.000 C 
ATOM     23  O   UNL     1      -0.320  12.174  20.006  0.00  0.00    +0.000 OA
ATOM     24  H   UNL     1       2.460  11.131  21.220  0.00  0.00    +0.000 HD
BRANCH  22  25
ATOM     25  C   UNL     1       1.765  13.221  19.817  0.00  0.00    +0.000 A 
ATOM     26  C   UNL     1       1.853  14.397  20.592  0.00  0.00    +0.000 A 
ATOM     27 CL   UNL     1       0.851  14.721  21.968  0.00  0.00    +0.000 Cl
ATOM     28  C   UNL     1       2.755  15.418  20.251  0.00  0.00    +0.000 A 
ATOM     29  C   UNL     1       3.568  15.296  19.130  0.00  0.00    +0.000 A 
ATOM     30  C   UNL     1       3.482  14.150  18.348  0.00  0.00    +0.000 A 
ATOM     31  C   UNL     1       2.598  13.114  18.688  0.00  0.00    +0.000 A 
ATOM     32 CL   UNL     1       2.656  11.719  17.663  0.00  0.00    +0.000 Cl
ENDBRANCH  22  25
ENDBRANCH   5  21
TORSDOF 5
ENDMDL
