MODEL 1
REMARK VINA RESULT:      -8.9      0.000      0.000
REMARK  Name = 
REMARK  5 active torsions:
REMARK  status: ('A' for Active; 'I' for Inactive)
REMARK    1  A    between atoms: O_1  and  N_2
REMARK    2  A    between atoms: C_3  and  C_11
REMARK    3  A    between atoms: N_4  and  C_5
REMARK    4  A    between atoms: C_16  and  O_17
REMARK    5  A    between atoms: O_17  and  C_18
REMARK                            x       y       z     vdW  Elec       q    Type
REMARK                         _______ _______ _______ _____ _____    ______ ____
ROOT
ATOM      1  C   UNL     1       2.837   3.716  18.766  0.00  0.00    +0.000 A 
ATOM      2  C   UNL     1       2.232   2.555  18.235  0.00  0.00    +0.000 A 
ATOM      3  C   UNL     1       0.975   2.134  18.649  0.00  0.00    +0.000 A 
ATOM      4  C   UNL     1       0.317   2.902  19.580  0.00  0.00    +0.000 A 
ATOM      5  N   UNL     1       0.841   4.024  20.111  0.00  0.00    +0.000 NA
ATOM      6  C   UNL     1       2.098   4.405  19.737  0.00  0.00    +0.000 A 
ENDROOT
BRANCH   1   8
ATOM      7  N   UNL     1       4.511   3.509  17.103  0.00  0.00    +0.000 NA
ATOM      8  C   UNL     1       4.235   4.058  18.259  0.00  0.00    +0.000 C 
ATOM      9  N   UNL     1       5.076   4.838  19.044  0.00  0.00    +0.000 N 
ATOM     10  H   UNL     1       4.793   5.034  19.997  0.00  0.00    +0.000 HD
BRANCH   9  11
ATOM     11  C   UNL     1       6.090   5.722  18.603  0.00  0.00    +0.000 A 
ATOM     12  C   UNL     1       7.367   5.772  19.180  0.00  0.00    +0.000 A 
ATOM     13  C   UNL     1       8.316   6.714  18.768  0.00  0.00    +0.000 A 
ATOM     14  C   UNL     1       8.004   7.621  17.760  0.00  0.00    +0.000 A 
ATOM     15  C   UNL     1       6.743   7.586  17.169  0.00  0.00    +0.000 A 
ATOM     16  C   UNL     1       5.795   6.644  17.587  0.00  0.00    +0.000 A 
ENDBRANCH   9  11
BRANCH   7  17
ATOM     17  O   UNL     1       5.848   3.613  16.721  0.00  0.00    +0.000 OA
ATOM     18  H   UNL     1       6.134   4.428  17.168  0.00  0.00    +0.000 HD
ENDBRANCH   7  17
ENDBRANCH   1   8
BRANCH   6  19
ATOM     19  O   UNL     1       2.633   5.528  20.364  0.00  0.00    +0.000 OA
BRANCH  19  20
ATOM     20  C   UNL     1       2.157   6.768  19.964  0.00  0.00    +0.000 A 
ATOM     21  C   UNL     1       2.435   7.191  18.665  0.00  0.00    +0.000 A 
ATOM     22  C   UNL     1       1.982   8.444  18.222  0.00  0.00    +0.000 A 
ATOM     23  C   UNL     1       1.240   9.289  19.069  0.00  0.00    +0.000 A 
ATOM     24  C   UNL     1       0.739  10.531  18.636  0.00  0.00    +0.000 A 
ATOM     25  C   UNL     1      -0.022  11.336  19.488  0.00  0.00    +0.000 A 
ATOM     26  C   UNL     1      -0.285  10.914  20.787  0.00  0.00    +0.000 A 
ATOM     27  C   UNL     1       0.218   9.692  21.239  0.00  0.00    +0.000 A 
ATOM     28  C   UNL     1       0.978   8.867  20.390  0.00  0.00    +0.000 A 
ATOM     29  C   UNL     1       1.466   7.625  20.832  0.00  0.00    +0.000 A 
ENDBRANCH  19  20
ENDBRANCH   6  19
TORSDOF 5
ENDMDL
MODEL 2
REMARK VINA RESULT:      -8.6      1.484      4.935
REMARK  Name = 
REMARK  5 active torsions:
REMARK  status: ('A' for Active; 'I' for Inactive)
REMARK    1  A    between atoms: O_1  and  N_2
REMARK    2  A    between atoms: C_3  and  C_11
REMARK    3  A    between atoms: N_4  and  C_5
REMARK    4  A    between atoms: C_16  and  O_17
REMARK    5  A    between atoms: O_17  and  C_18
REMARK                            x       y       z     vdW  Elec       q    Type
REMARK                         _______ _______ _______ _____ _____    ______ ____
ROOT
ATOM      1  C   UNL     1       5.804   5.815  18.215  0.00  0.00    +0.000 A 
ATOM      2  C   UNL     1       7.175   5.837  18.557  0.00  0.00    +0.000 A 
ATOM      3  C   UNL     1       7.998   6.898  18.199  0.00  0.00    +0.000 A 
ATOM      4  C   UNL     1       7.429   7.948  17.519  0.00  0.00    +0.000 A 
ATOM      5  N   UNL     1       6.125   7.985  17.177  0.00  0.00    +0.000 NA
ATOM      6  C   UNL     1       5.333   6.916  17.489  0.00  0.00    +0.000 A 
ENDROOT
BRANCH   1   8
ATOM      7  N   UNL     1       5.669   3.797  19.449  0.00  0.00    +0.000 NA
ATOM      8  C   UNL     1       5.011   4.580  18.633  0.00  0.00    +0.000 C 
ATOM      9  N   UNL     1       3.742   4.371  18.104  0.00  0.00    +0.000 N 
ATOM     10  H   UNL     1       3.439   4.965  17.341  0.00  0.00    +0.000 HD
BRANCH   9  11
ATOM     11  C   UNL     1       2.654   3.704  18.716  0.00  0.00    +0.000 A 
ATOM     12  C   UNL     1       1.945   2.665  18.095  0.00  0.00    +0.000 A 
ATOM     13  C   UNL     1       0.826   2.083  18.701  0.00  0.00    +0.000 A 
ATOM     14  C   UNL     1       0.400   2.529  19.949  0.00  0.00    +0.000 A 
ATOM     15  C   UNL     1       1.092   3.555  20.586  0.00  0.00    +0.000 A 
ATOM     16  C   UNL     1       2.210   4.137  19.974  0.00  0.00    +0.000 A 
ENDBRANCH   9  11
BRANCH   7  17
ATOM     17  O   UNL     1       5.069   2.559  19.669  0.00  0.00    +0.000 OA
ATOM     18  H   UNL     1       5.570   2.212  20.428  0.00  0.00    +0.000 HD
ENDBRANCH   7  17
ENDBRANCH   1   8
BRANCH   6  19
ATOM     19  O   UNL     1       4.011   6.960  17.052  0.00  0.00    +0.000 OA
BRANCH  19  20
ATOM     20  C   UNL     1       3.123   7.730  17.789  0.00  0.00    +0.000 A 
ATOM     21  C   UNL     1       2.693   8.940  17.246  0.00  0.00    +0.000 A 
ATOM     22  C   UNL     1       1.803   9.755  17.962  0.00  0.00    +0.000 A 
ATOM     23  C   UNL     1       1.325   9.371  19.230  0.00  0.00    +0.000 A 
ATOM     24  C   UNL     1       0.401  10.150  19.950  0.00  0.00    +0.000 A 
ATOM     25  C   UNL     1      -0.081   9.730  21.192  0.00  0.00    +0.000 A 
ATOM     26  C   UNL     1       0.362   8.528  21.736  0.00  0.00    +0.000 A 
ATOM     27  C   UNL     1       1.292   7.750  21.043  0.00  0.00    +0.000 A 
ATOM     28  C   UNL     1       1.779   8.156  19.787  0.00  0.00    +0.000 A 
ATOM     29  C   UNL     1       2.697   7.365  19.074  0.00  0.00    +0.000 A 
ENDBRANCH  19  20
ENDBRANCH   6  19
TORSDOF 5
ENDMDL
MODEL 3
REMARK VINA RESULT:      -8.5      1.745      2.067
REMARK  Name = 
REMARK  5 active torsions:
REMARK  status: ('A' for Active; 'I' for Inactive)
REMARK    1  A    between atoms: O_1  and  N_2
REMARK    2  A    between atoms: C_3  and  C_11
REMARK    3  A    between atoms: N_4  and  C_5
REMARK    4  A    between atoms: C_16  and  O_17
REMARK    5  A    between atoms: O_17  and  C_18
REMARK                            x       y       z     vdW  Elec       q    Type
REMARK                         _______ _______ _______ _____ _____    ______ ____
ROOT
ATOM      1  C   UNL     1       3.031   3.967  18.964  0.00  0.00    +0.000 A 
ATOM      2  C   UNL     1       2.405   2.730  18.691  0.00  0.00    +0.000 A 
ATOM      3  C   UNL     1       1.188   2.387  19.266  0.00  0.00    +0.000 A 
ATOM      4  C   UNL     1       0.591   3.306  20.096  0.00  0.00    +0.000 A 
ATOM      5  N   UNL     1       1.137   4.505  20.382  0.00  0.00    +0.000 NA
ATOM      6  C   UNL     1       2.357   4.815  19.852  0.00  0.00    +0.000 A 
ENDROOT
BRANCH   1   8
ATOM      7  N   UNL     1       5.384   3.691  18.961  0.00  0.00    +0.000 NA
ATOM      8  C   UNL     1       4.383   4.216  18.301  0.00  0.00    +0.000 C 
ATOM      9  N   UNL     1       4.446   4.981  17.142  0.00  0.00    +0.000 N 
ATOM     10  H   UNL     1       3.612   5.478  16.852  0.00  0.00    +0.000 HD
BRANCH   9  11
ATOM     11  C   UNL     1       5.388   4.873  16.090  0.00  0.00    +0.000 A 
ATOM     12  C   UNL     1       6.513   5.703  15.981  0.00  0.00    +0.000 A 
ATOM     13  C   UNL     1       7.377   5.618  14.885  0.00  0.00    +0.000 A 
ATOM     14  C   UNL     1       7.133   4.689  13.877  0.00  0.00    +0.000 A 
ATOM     15  C   UNL     1       6.025   3.852  13.967  0.00  0.00    +0.000 A 
ATOM     16  C   UNL     1       5.160   3.943  15.065  0.00  0.00    +0.000 A 
ENDBRANCH   9  11
BRANCH   7  17
ATOM     17  O   UNL     1       6.642   4.088  18.511  0.00  0.00    +0.000 OA
ATOM     18  H   UNL     1       7.120   3.243  18.442  0.00  0.00    +0.000 HD
ENDBRANCH   7  17
ENDBRANCH   1   8
BRANCH   6  19
ATOM     19  O   UNL     1       2.921   6.031  20.232  0.00  0.00    +0.000 OA
BRANCH  19  20
ATOM     20  C   UNL     1       2.265   7.187  19.836  0.00  0.00    +0.000 A 
ATOM     21  C   UNL     1       2.410   7.606  18.514  0.00  0.00    +0.000 A 
ATOM     22  C   UNL     1       1.773   8.777  18.074  0.00  0.00    +0.000 A 
ATOM     23  C   UNL     1       0.977   9.543  18.947  0.00  0.00    +0.000 A 
ATOM     24  C   UNL     1       0.294  10.697  18.520  0.00  0.00    +0.000 A 
ATOM     25  C   UNL     1      -0.515  11.421  19.400  0.00  0.00    +0.000 A 
ATOM     26  C   UNL     1      -0.645  11.006  20.721  0.00  0.00    +0.000 A 
ATOM     27  C   UNL     1       0.038   9.872  21.167  0.00  0.00    +0.000 A 
ATOM     28  C   UNL     1       0.849   9.128  20.290  0.00  0.00    +0.000 A 
ATOM     29  C   UNL     1       1.520   7.973  20.726  0.00  0.00    +0.000 A 
ENDBRANCH  19  20
ENDBRANCH   6  19
TORSDOF 5
ENDMDL
MODEL 4
REMARK VINA RESULT:      -8.4      0.604      1.477
REMARK  Name = 
REMARK  5 active torsions:
REMARK  status: ('A' for Active; 'I' for Inactive)
REMARK    1  A    between atoms: O_1  and  N_2
REMARK    2  A    between atoms: C_3  and  C_11
REMARK    3  A    between atoms: N_4  and  C_5
REMARK    4  A    between atoms: C_16  and  O_17
REMARK    5  A    between atoms: O_17  and  C_18
REMARK                            x       y       z     vdW  Elec       q    Type
REMARK                         _______ _______ _______ _____ _____    ______ ____
ROOT
ATOM      1  C   UNL     1       2.860   3.550  18.697  0.00  0.00    +0.000 A 
ATOM      2  C   UNL     1       2.231   2.463  18.048  0.00  0.00    +0.000 A 
ATOM      3  C   UNL     1       0.988   1.995  18.452  0.00  0.00    +0.000 A 
ATOM      4  C   UNL     1       0.368   2.641  19.495  0.00  0.00    +0.000 A 
ATOM      5  N   UNL     1       0.916   3.690  20.142  0.00  0.00    +0.000 NA
ATOM      6  C   UNL     1       2.160   4.114  19.771  0.00  0.00    +0.000 A 
ENDROOT
BRANCH   1   8
ATOM      7  N   UNL     1       4.521   3.446  17.011  0.00  0.00    +0.000 NA
ATOM      8  C   UNL     1       4.240   3.952  18.185  0.00  0.00    +0.000 C 
ATOM      9  N   UNL     1       5.064   4.737  18.983  0.00  0.00    +0.000 N 
ATOM     10  H   UNL     1       4.786   4.897  19.944  0.00  0.00    +0.000 HD
BRANCH   9  11
ATOM     11  C   UNL     1       6.044   5.667  18.557  0.00  0.00    +0.000 A 
ATOM     12  C   UNL     1       7.325   5.742  19.121  0.00  0.00    +0.000 A 
ATOM     13  C   UNL     1       8.238   6.725  18.726  0.00  0.00    +0.000 A 
ATOM     14  C   UNL     1       7.884   7.651  17.748  0.00  0.00    +0.000 A 
ATOM     15  C   UNL     1       6.619   7.591  17.171  0.00  0.00    +0.000 A 
ATOM     16  C   UNL     1       5.706   6.607  17.572  0.00  0.00    +0.000 A 
ENDBRANCH   9  11
BRANCH   7  17
ATOM     17  O   UNL     1       5.849   3.604  16.618  0.00  0.00    +0.000 OA
ATOM     18  H   UNL     1       6.168   2.685  16.574  0.00  0.00    +0.000 HD
ENDBRANCH   7  17
ENDBRANCH   1   8
BRANCH   6  19
ATOM     19  O   UNL     1       2.722   5.150  20.513  0.00  0.00    +0.000 OA
BRANCH  19  20
ATOM     20  C   UNL     1       2.200   6.422  20.327  0.00  0.00    +0.000 A 
ATOM     21  C   UNL     1       1.360   6.939  21.311  0.00  0.00    +0.000 A 
ATOM     22  C   UNL     1       0.801   8.217  21.158  0.00  0.00    +0.000 A 
ATOM     23  C   UNL     1       1.078   9.000  20.021  0.00  0.00    +0.000 A 
ATOM     24  C   UNL     1       0.564  10.300  19.862  0.00  0.00    +0.000 A 
ATOM     25  C   UNL     1       0.881  11.068  18.738  0.00  0.00    +0.000 A 
ATOM     26  C   UNL     1       1.709  10.541  17.753  0.00  0.00    +0.000 A 
ATOM     27  C   UNL     1       2.215   9.246  17.885  0.00  0.00    +0.000 A 
ATOM     28  C   UNL     1       1.912   8.466  19.015  0.00  0.00    +0.000 A 
ATOM     29  C   UNL     1       2.438   7.171  19.165  0.00  0.00    +0.000 A 
ENDBRANCH  19  20
ENDBRANCH   6  19
TORSDOF 5
ENDMDL
MODEL 5
REMARK VINA RESULT:      -8.0      1.917      2.389
REMARK  Name = 
REMARK  5 active torsions:
REMARK  status: ('A' for Active; 'I' for Inactive)
REMARK    1  A    between atoms: O_1  and  N_2
REMARK    2  A    between atoms: C_3  and  C_11
REMARK    3  A    between atoms: N_4  and  C_5
REMARK    4  A    between atoms: C_16  and  O_17
REMARK    5  A    between atoms: O_17  and  C_18
REMARK                            x       y       z     vdW  Elec       q    Type
REMARK                         _______ _______ _______ _____ _____    ______ ____
ROOT
ATOM      1  C   UNL     1       3.129   4.363  19.190  0.00  0.00    +0.000 A 
ATOM      2  C   UNL     1       2.558   3.079  19.346  0.00  0.00    +0.000 A 
ATOM      3  C   UNL     1       1.356   2.894  20.017  0.00  0.00    +0.000 A 
ATOM      4  C   UNL     1       0.718   4.008  20.507  0.00  0.00    +0.000 A 
ATOM      5  N   UNL     1       1.211   5.256  20.377  0.00  0.00    +0.000 NA
ATOM      6  C   UNL     1       2.417   5.426  19.759  0.00  0.00    +0.000 A 
ENDROOT
BRANCH   1   8
ATOM      7  N   UNL     1       5.418   3.764  19.066  0.00  0.00    +0.000 NA
ATOM      8  C   UNL     1       4.469   4.436  18.464  0.00  0.00    +0.000 C 
ATOM      9  N   UNL     1       4.582   5.208  17.313  0.00  0.00    +0.000 N 
ATOM     10  H   UNL     1       3.813   5.821  17.072  0.00  0.00    +0.000 HD
BRANCH   9  11
ATOM     11  C   UNL     1       5.450   4.993  16.214  0.00  0.00    +0.000 A 
ATOM     12  C   UNL     1       6.640   5.710  16.026  0.00  0.00    +0.000 A 
ATOM     13  C   UNL     1       7.430   5.523  14.887  0.00  0.00    +0.000 A 
ATOM     14  C   UNL     1       7.044   4.604  13.915  0.00  0.00    +0.000 A 
ATOM     15  C   UNL     1       5.869   3.877  14.084  0.00  0.00    +0.000 A 
ATOM     16  C   UNL     1       5.078   4.070  15.225  0.00  0.00    +0.000 A 
ENDBRANCH   9  11
BRANCH   7  17
ATOM     17  O   UNL     1       6.696   3.994  18.560  0.00  0.00    +0.000 OA
ATOM     18  H   UNL     1       7.061   4.640  19.190  0.00  0.00    +0.000 HD
ENDBRANCH   7  17
ENDBRANCH   1   8
BRANCH   6  19
ATOM     19  O   UNL     1       2.926   6.721  19.711  0.00  0.00    +0.000 OA
BRANCH  19  20
ATOM     20  C   UNL     1       2.045   7.761  19.971  0.00  0.00    +0.000 A 
ATOM     21  C   UNL     1       1.648   8.569  18.907  0.00  0.00    +0.000 A 
ATOM     22  C   UNL     1       0.767   9.639  19.128  0.00  0.00    +0.000 A 
ATOM     23  C   UNL     1       0.265   9.914  20.414  0.00  0.00    +0.000 A 
ATOM     24  C   UNL     1      -0.651  10.955  20.655  0.00  0.00    +0.000 A 
ATOM     25  C   UNL     1      -1.158  11.185  21.937  0.00  0.00    +0.000 A 
ATOM     26  C   UNL     1      -0.748  10.384  22.997  0.00  0.00    +0.000 A 
ATOM     27  C   UNL     1       0.174   9.357  22.780  0.00  0.00    +0.000 A 
ATOM     28  C   UNL     1       0.685   9.107  21.494  0.00  0.00    +0.000 A 
ATOM     29  C   UNL     1       1.595   8.060  21.265  0.00  0.00    +0.000 A 
ENDBRANCH  19  20
ENDBRANCH   6  19
TORSDOF 5
ENDMDL
MODEL 6
REMARK VINA RESULT:      -8.0      2.576      2.956
REMARK  Name = 
REMARK  5 active torsions:
REMARK  status: ('A' for Active; 'I' for Inactive)
REMARK    1  A    between atoms: O_1  and  N_2
REMARK    2  A    between atoms: C_3  and  C_11
REMARK    3  A    between atoms: N_4  and  C_5
REMARK    4  A    between atoms: C_16  and  O_17
REMARK    5  A    between atoms: O_17  and  C_18
REMARK                            x       y       z     vdW  Elec       q    Type
REMARK                         _______ _______ _______ _____ _____    ______ ____
ROOT
ATOM      1  C   UNL     1       3.601   4.009  17.583  0.00  0.00    +0.000 A 
ATOM      2  C   UNL     1       2.976   2.746  17.487  0.00  0.00    +0.000 A 
ATOM      3  C   UNL     1       1.812   2.454  18.186  0.00  0.00    +0.000 A 
ATOM      4  C   UNL     1       1.264   3.449  18.960  0.00  0.00    +0.000 A 
ATOM      5  N   UNL     1       1.811   4.675  19.079  0.00  0.00    +0.000 NA
ATOM      6  C   UNL     1       2.982   4.939  18.429  0.00  0.00    +0.000 A 
ENDROOT
BRANCH   1   8
ATOM      7  N   UNL     1       5.957   3.798  17.449  0.00  0.00    +0.000 NA
ATOM      8  C   UNL     1       4.895   4.199  16.797  0.00  0.00    +0.000 C 
ATOM      9  N   UNL     1       4.851   4.795  15.541  0.00  0.00    +0.000 N 
ATOM     10  H   UNL     1       3.981   5.224  15.247  0.00  0.00    +0.000 HD
BRANCH   9  11
ATOM     11  C   UNL     1       5.723   4.566  14.449  0.00  0.00    +0.000 A 
ATOM     12  C   UNL     1       6.905   5.293  14.248  0.00  0.00    +0.000 A 
ATOM     13  C   UNL     1       7.699   5.092  13.114  0.00  0.00    +0.000 A 
ATOM     14  C   UNL     1       7.326   4.147  12.162  0.00  0.00    +0.000 A 
ATOM     15  C   UNL     1       6.159   3.411  12.344  0.00  0.00    +0.000 A 
ATOM     16  C   UNL     1       5.364   3.618  13.479  0.00  0.00    +0.000 A 
ENDBRANCH   9  11
BRANCH   7  17
ATOM     17  O   UNL     1       7.166   4.163  16.859  0.00  0.00    +0.000 OA
ATOM     18  H   UNL     1       6.881   4.566  16.020  0.00  0.00    +0.000 HD
ENDBRANCH   7  17
ENDBRANCH   1   8
BRANCH   6  19
ATOM     19  O   UNL     1       3.554   6.192  18.638  0.00  0.00    +0.000 OA
BRANCH  19  20
ATOM     20  C   UNL     1       2.691   7.254  18.867  0.00  0.00    +0.000 A 
ATOM     21  C   UNL     1       2.430   8.129  17.814  0.00  0.00    +0.000 A 
ATOM     22  C   UNL     1       1.572   9.223  18.005  0.00  0.00    +0.000 A 
ATOM     23  C   UNL     1       0.958   9.456  19.251  0.00  0.00    +0.000 A 
ATOM     24  C   UNL     1       0.062  10.521  19.457  0.00  0.00    +0.000 A 
ATOM     25  C   UNL     1      -0.558  10.710  20.695  0.00  0.00    +0.000 A 
ATOM     26  C   UNL     1      -0.283   9.842  21.746  0.00  0.00    +0.000 A 
ATOM     27  C   UNL     1       0.616   8.788  21.565  0.00  0.00    +0.000 A 
ATOM     28  C   UNL     1       1.241   8.580  20.322  0.00  0.00    +0.000 A 
ATOM     29  C   UNL     1       2.129   7.508  20.126  0.00  0.00    +0.000 A 
ENDBRANCH  19  20
ENDBRANCH   6  19
TORSDOF 5
ENDMDL
MODEL 7
REMARK VINA RESULT:      -8.0      3.648      7.955
REMARK  Name = 
REMARK  5 active torsions:
REMARK  status: ('A' for Active; 'I' for Inactive)
REMARK    1  A    between atoms: O_1  and  N_2
REMARK    2  A    between atoms: C_3  and  C_11
REMARK    3  A    between atoms: N_4  and  C_5
REMARK    4  A    between atoms: C_16  and  O_17
REMARK    5  A    between atoms: O_17  and  C_18
REMARK                            x       y       z     vdW  Elec       q    Type
REMARK                         _______ _______ _______ _____ _____    ______ ____
ROOT
ATOM      1  C   UNL     1       6.183   5.673  18.236  0.00  0.00    +0.000 A 
ATOM      2  C   UNL     1       7.192   5.972  19.179  0.00  0.00    +0.000 A 
ATOM      3  C   UNL     1       8.148   6.951  18.939  0.00  0.00    +0.000 A 
ATOM      4  C   UNL     1       8.068   7.646  17.756  0.00  0.00    +0.000 A 
ATOM      5  N   UNL     1       7.121   7.411  16.826  0.00  0.00    +0.000 NA
ATOM      6  C   UNL     1       6.214   6.414  17.047  0.00  0.00    +0.000 A 
ENDROOT
BRANCH   1   8
ATOM      7  N   UNL     1       5.750   3.628  19.351  0.00  0.00    +0.000 NA
ATOM      8  C   UNL     1       5.211   4.554  18.598  0.00  0.00    +0.000 C 
ATOM      9  N   UNL     1       3.919   4.579  18.088  0.00  0.00    +0.000 N 
ATOM     10  H   UNL     1       3.703   5.258  17.368  0.00  0.00    +0.000 HD
BRANCH   9  11
ATOM     11  C   UNL     1       2.747   4.052  18.685  0.00  0.00    +0.000 A 
ATOM     12  C   UNL     1       2.249   4.498  19.917  0.00  0.00    +0.000 A 
ATOM     13  C   UNL     1       1.133   3.898  20.511  0.00  0.00    +0.000 A 
ATOM     14  C   UNL     1       0.489   2.842  19.873  0.00  0.00    +0.000 A 
ATOM     15  C   UNL     1       0.963   2.387  18.646  0.00  0.00    +0.000 A 
ATOM     16  C   UNL     1       2.083   2.988  18.057  0.00  0.00    +0.000 A 
ENDBRANCH   9  11
BRANCH   7  17
ATOM     17  O   UNL     1       4.966   2.487  19.511  0.00  0.00    +0.000 OA
ATOM     18  H   UNL     1       5.598   1.845  19.878  0.00  0.00    +0.000 HD
ENDBRANCH   7  17
ENDBRANCH   1   8
BRANCH   6  19
ATOM     19  O   UNL     1       5.299   6.152  16.030  0.00  0.00    +0.000 OA
BRANCH  19  20
ATOM     20  C   UNL     1       5.727   5.352  14.980  0.00  0.00    +0.000 A 
ATOM     21  C   UNL     1       7.098   5.239  14.755  0.00  0.00    +0.000 A 
ATOM     22  C   UNL     1       7.574   4.449  13.697  0.00  0.00    +0.000 A 
ATOM     23  C   UNL     1       6.686   3.756  12.852  0.00  0.00    +0.000 A 
ATOM     24  C   UNL     1       7.138   2.925  11.810  0.00  0.00    +0.000 A 
ATOM     25  C   UNL     1       6.236   2.223  11.006  0.00  0.00    +0.000 A 
ATOM     26  C   UNL     1       4.869   2.351  11.227  0.00  0.00    +0.000 A 
ATOM     27  C   UNL     1       4.401   3.184  12.245  0.00  0.00    +0.000 A 
ATOM     28  C   UNL     1       5.297   3.889  13.068  0.00  0.00    +0.000 A 
ATOM     29  C   UNL     1       4.834   4.711  14.110  0.00  0.00    +0.000 A 
ENDBRANCH  19  20
ENDBRANCH   6  19
TORSDOF 5
ENDMDL
MODEL 8
REMARK VINA RESULT:      -7.9      1.388      4.955
REMARK  Name = 
REMARK  5 active torsions:
REMARK  status: ('A' for Active; 'I' for Inactive)
REMARK    1  A    between atoms: O_1  and  N_2
REMARK    2  A    between atoms: C_3  and  C_11
REMARK    3  A    between atoms: N_4  and  C_5
REMARK    4  A    between atoms: C_16  and  O_17
REMARK    5  A    between atoms: O_17  and  C_18
REMARK                            x       y       z     vdW  Elec       q    Type
REMARK                         _______ _______ _______ _____ _____    ______ ____
ROOT
ATOM      1  C   UNL     1       5.783   5.790  18.152  0.00  0.00    +0.000 A 
ATOM      2  C   UNL     1       7.172   5.824  18.406  0.00  0.00    +0.000 A 
ATOM      3  C   UNL     1       7.953   6.913  18.043  0.00  0.00    +0.000 A 
ATOM      4  C   UNL     1       7.325   7.981  17.447  0.00  0.00    +0.000 A 
ATOM      5  N   UNL     1       6.001   8.008  17.192  0.00  0.00    +0.000 NA
ATOM      6  C   UNL     1       5.248   6.913  17.507  0.00  0.00    +0.000 A 
ENDROOT
BRANCH   1   8
ATOM      7  N   UNL     1       5.679   3.820  19.463  0.00  0.00    +0.000 NA
ATOM      8  C   UNL     1       5.037   4.524  18.565  0.00  0.00    +0.000 C 
ATOM      9  N   UNL     1       3.829   4.211  17.954  0.00  0.00    +0.000 N 
ATOM     10  H   UNL     1       3.550   4.752  17.144  0.00  0.00    +0.000 HD
BRANCH   9  11
ATOM     11  C   UNL     1       2.740   3.499  18.513  0.00  0.00    +0.000 A 
ATOM     12  C   UNL     1       2.195   2.348  17.926  0.00  0.00    +0.000 A 
ATOM     13  C   UNL     1       1.069   1.718  18.467  0.00  0.00    +0.000 A 
ATOM     14  C   UNL     1       0.472   2.228  19.617  0.00  0.00    +0.000 A 
ATOM     15  C   UNL     1       1.001   3.366  20.219  0.00  0.00    +0.000 A 
ATOM     16  C   UNL     1       2.126   3.996  19.672  0.00  0.00    +0.000 A 
ENDBRANCH   9  11
BRANCH   7  17
ATOM     17  O   UNL     1       5.141   2.555  19.694  0.00  0.00    +0.000 OA
ATOM     18  H   UNL     1       5.796   1.967  19.279  0.00  0.00    +0.000 HD
ENDBRANCH   7  17
ENDBRANCH   1   8
BRANCH   6  19
ATOM     19  O   UNL     1       3.900   6.950  17.158  0.00  0.00    +0.000 OA
BRANCH  19  20
ATOM     20  C   UNL     1       3.039   7.615  18.019  0.00  0.00    +0.000 A 
ATOM     21  C   UNL     1       2.817   7.066  19.281  0.00  0.00    +0.000 A 
ATOM     22  C   UNL     1       1.945   7.700  20.180  0.00  0.00    +0.000 A 
ATOM     23  C   UNL     1       1.286   8.895  19.832  0.00  0.00    +0.000 A 
ATOM     24  C   UNL     1       0.439   9.572  20.729  0.00  0.00    +0.000 A 
ATOM     25  C   UNL     1      -0.178  10.773  20.369  0.00  0.00    +0.000 A 
ATOM     26  C   UNL     1       0.037  11.309  19.104  0.00  0.00    +0.000 A 
ATOM     27  C   UNL     1       0.861  10.643  18.194  0.00  0.00    +0.000 A 
ATOM     28  C   UNL     1       1.496   9.437  18.546  0.00  0.00    +0.000 A 
ATOM     29  C   UNL     1       2.345   8.774  17.644  0.00  0.00    +0.000 A 
ENDBRANCH  19  20
ENDBRANCH   6  19
TORSDOF 5
ENDMDL
MODEL 9
REMARK VINA RESULT:      -7.7      3.740      8.121
REMARK  Name = 
REMARK  5 active torsions:
REMARK  status: ('A' for Active; 'I' for Inactive)
REMARK    1  A    between atoms: O_1  and  N_2
REMARK    2  A    between atoms: C_3  and  C_11
REMARK    3  A    between atoms: N_4  and  C_5
REMARK    4  A    between atoms: C_16  and  O_17
REMARK    5  A    between atoms: O_17  and  C_18
REMARK                            x       y       z     vdW  Elec       q    Type
REMARK                         _______ _______ _______ _____ _____    ______ ____
ROOT
ATOM      1  C   UNL     1       0.194   9.922  20.009  0.00  0.00    +0.000 A 
ATOM      2  C   UNL     1      -0.182  10.045  21.365  0.00  0.00    +0.000 A 
ATOM      3  C   UNL     1       0.462   9.330  22.367  0.00  0.00    +0.000 A 
ATOM      4  C   UNL     1       1.503   8.511  22.001  0.00  0.00    +0.000 A 
ATOM      5  N   UNL     1       1.911   8.365  20.725  0.00  0.00    +0.000 NA
ATOM      6  C   UNL     1       1.242   9.033  19.739  0.00  0.00    +0.000 A 
ENDROOT
BRANCH   1   8
ATOM      7  N   UNL     1       0.041  11.771  18.534  0.00  0.00    +0.000 NA
ATOM      8  C   UNL     1      -0.609  10.732  18.995  0.00  0.00    +0.000 C 
ATOM      9  N   UNL     1      -1.913  10.354  18.697  0.00  0.00    +0.000 N 
ATOM     10  H   UNL     1      -2.347   9.640  19.271  0.00  0.00    +0.000 HD
BRANCH   9  11
ATOM     11  C   UNL     1      -2.605  10.539  17.475  0.00  0.00    +0.000 A 
ATOM     12  C   UNL     1      -3.764  11.320  17.362  0.00  0.00    +0.000 A 
ATOM     13  C   UNL     1      -4.464  11.414  16.154  0.00  0.00    +0.000 A 
ATOM     14  C   UNL     1      -4.006  10.732  15.030  0.00  0.00    +0.000 A 
ATOM     15  C   UNL     1      -2.854   9.956  15.118  0.00  0.00    +0.000 A 
ATOM     16  C   UNL     1      -2.159   9.861  16.331  0.00  0.00    +0.000 A 
ENDBRANCH   9  11
BRANCH   7  17
ATOM     17  O   UNL     1      -0.737  12.653  17.787  0.00  0.00    +0.000 OA
ATOM     18  H   UNL     1      -1.261  12.052  17.228  0.00  0.00    +0.000 HD
ENDBRANCH   7  17
ENDBRANCH   1   8
BRANCH   6  19
ATOM     19  O   UNL     1       1.647   8.797  18.427  0.00  0.00    +0.000 OA
BRANCH  19  20
ATOM     20  C   UNL     1       2.266   7.584  18.161  0.00  0.00    +0.000 A 
ATOM     21  C   UNL     1       3.593   7.603  17.734  0.00  0.00    +0.000 A 
ATOM     22  C   UNL     1       4.255   6.399  17.444  0.00  0.00    +0.000 A 
ATOM     23  C   UNL     1       3.602   5.160  17.581  0.00  0.00    +0.000 A 
ATOM     24  C   UNL     1       4.254   3.937  17.336  0.00  0.00    +0.000 A 
ATOM     25  C   UNL     1       3.592   2.720  17.511  0.00  0.00    +0.000 A 
ATOM     26  C   UNL     1       2.264   2.708  17.925  0.00  0.00    +0.000 A 
ATOM     27  C   UNL     1       1.594   3.912  18.157  0.00  0.00    +0.000 A 
ATOM     28  C   UNL     1       2.251   5.145  17.994  0.00  0.00    +0.000 A 
ATOM     29  C   UNL     1       1.591   6.359  18.249  0.00  0.00    +0.000 A 
ENDBRANCH  19  20
ENDBRANCH   6  19
TORSDOF 5
ENDMDL
