MODEL 1
REMARK VINA RESULT:      -7.4      0.000      0.000
REMARK  Name = 
REMARK  8 active torsions:
REMARK  status: ('A' for Active; 'I' for Inactive)
REMARK    1  A    between atoms: C_1  and  O_2
REMARK    2  A    between atoms: O_2  and  C_3
REMARK    3  A    between atoms: C_8  and  N_9
REMARK    4  A    between atoms: N_9  and  C_10
REMARK    5  A    between atoms: N_13  and  C_14
REMARK    6  A    between atoms: C_14  and  C_15
REMARK    7  A    between atoms: C_17  and  C_18
REMARK    8  A    between atoms: C_19  and  C_20
REMARK                            x       y       z     vdW  Elec       q    Type
REMARK                         _______ _______ _______ _____ _____    ______ ____
ROOT
ATOM      1  C   UNL     1       3.506   6.439  18.838  0.00  0.00    +0.000 C 
ATOM      2  C   UNL     1       4.088   7.195  17.630  0.00  0.00    +0.000 C 
ATOM      3  C   UNL     1       5.183   6.460  16.859  0.00  0.00    +0.000 C 
ATOM      4  N   UNL     1       6.179   5.818  17.717  0.00  0.00    +0.000 NA
ATOM      5  C   UNL     1       5.573   4.914  18.691  0.00  0.00    +0.000 C 
ATOM      6  C   UNL     1       4.530   5.587  19.577  0.00  0.00    +0.000 C 
ENDROOT
BRANCH   1   7
ATOM      7  N   UNL     1       2.371   5.601  18.438  0.00  0.00    +0.000 N 
ATOM      8  H   UNL     1       1.537   6.136  18.176  0.00  0.00    +0.000 HD
BRANCH   7  14
ATOM      9  C   UNL     1       1.674   3.311  18.788  0.00  0.00    +0.000 A 
ATOM     10  C   UNL     1       1.366   2.234  19.609  0.00  0.00    +0.000 A 
ATOM     11  C   UNL     1       1.295   2.431  21.005  0.00  0.00    +0.000 A 
ATOM     12  C   UNL     1       1.527   3.695  21.553  0.00  0.00    +0.000 A 
ATOM     13  C   UNL     1       1.847   4.771  20.722  0.00  0.00    +0.000 A 
ATOM     14  C   UNL     1       1.935   4.590  19.342  0.00  0.00    +0.000 A 
BRANCH   9  16
ATOM     15  C   UNL     1       2.900   3.076  16.709  0.00  0.00    +0.000 C 
ATOM     16  O   UNL     1       1.704   3.329  17.417  0.00  0.00    +0.000 OA
ENDBRANCH   9  16
ENDBRANCH   7  14
ENDBRANCH   1   7
BRANCH   4  17
ATOM     17  C   UNL     1       7.243   5.140  16.929  0.00  0.00    +0.000 C 
BRANCH  17  18
ATOM     18  C   UNL     1       6.986   4.891  15.449  0.00  0.00    +0.000 A 
ATOM     19  N   UNL     1       7.627   5.507  14.474  0.00  0.00    +0.000 NA
ATOM     20  C   UNL     1       7.279   4.983  13.238  0.00  0.00    +0.000 A 
ATOM     21  C   UNL     1       7.904   5.545  12.015  0.00  0.00    +0.000 C 
ATOM     22  C   UNL     1       6.357   3.946  13.298  0.00  0.00    +0.000 A 
ATOM     23  C   UNL     1       5.793   3.112  12.194  0.00  0.00    +0.000 C 
ATOM     24  S   UNL     1       5.911   3.648  14.926  0.00  0.00    +0.000 S 
ENDBRANCH  17  18
ENDBRANCH   4  17
TORSDOF 5
ENDMDL
MODEL 2
REMARK VINA RESULT:      -7.3      4.203      8.066
REMARK  Name = 
REMARK  8 active torsions:
REMARK  status: ('A' for Active; 'I' for Inactive)
REMARK    1  A    between atoms: C_1  and  O_2
REMARK    2  A    between atoms: O_2  and  C_3
REMARK    3  A    between atoms: C_8  and  N_9
REMARK    4  A    between atoms: N_9  and  C_10
REMARK    5  A    between atoms: N_13  and  C_14
REMARK    6  A    between atoms: C_14  and  C_15
REMARK    7  A    between atoms: C_17  and  C_18
REMARK    8  A    between atoms: C_19  and  C_20
REMARK                            x       y       z     vdW  Elec       q    Type
REMARK                         _______ _______ _______ _____ _____    ______ ____
ROOT
ATOM      1  C   UNL     1       2.643   4.645  18.384  0.00  0.00    +0.000 C 
ATOM      2  C   UNL     1       2.714   6.122  17.959  0.00  0.00    +0.000 C 
ATOM      3  C   UNL     1       2.751   7.135  19.102  0.00  0.00    +0.000 C 
ATOM      4  N   UNL     1       1.793   6.851  20.172  0.00  0.00    +0.000 NA
ATOM      5  C   UNL     1       1.942   5.500  20.707  0.00  0.00    +0.000 C 
ATOM      6  C   UNL     1       1.822   4.411  19.646  0.00  0.00    +0.000 C 
ENDROOT
BRANCH   1   7
ATOM      7  N   UNL     1       3.984   4.081  18.561  0.00  0.00    +0.000 N 
ATOM      8  H   UNL     1       4.449   4.388  19.422  0.00  0.00    +0.000 HD
BRANCH   7  14
ATOM      9  C   UNL     1       6.235   4.656  17.885  0.00  0.00    +0.000 A 
ATOM     10  C   UNL     1       7.252   4.728  16.942  0.00  0.00    +0.000 A 
ATOM     11  C   UNL     1       6.965   4.416  15.595  0.00  0.00    +0.000 A 
ATOM     12  C   UNL     1       5.673   4.044  15.216  0.00  0.00    +0.000 A 
ATOM     13  C   UNL     1       4.658   3.963  16.171  0.00  0.00    +0.000 A 
ATOM     14  C   UNL     1       4.928   4.254  17.509  0.00  0.00    +0.000 A 
BRANCH   9  16
ATOM     15  C   UNL     1       7.466   5.594  19.752  0.00  0.00    +0.000 C 
ATOM     16  O   UNL     1       6.304   5.000  19.211  0.00  0.00    +0.000 OA
ENDBRANCH   9  16
ENDBRANCH   7  14
ENDBRANCH   1   7
BRANCH   4  17
ATOM     17  C   UNL     1       1.839   7.875  21.250  0.00  0.00    +0.000 C 
BRANCH  17  18
ATOM     18  C   UNL     1       0.789   8.977  21.232  0.00  0.00    +0.000 A 
ATOM     19  N   UNL     1       0.170   9.425  22.308  0.00  0.00    +0.000 NA
ATOM     20  C   UNL     1      -0.630  10.517  22.005  0.00  0.00    +0.000 A 
ATOM     21  C   UNL     1      -1.404  11.166  23.092  0.00  0.00    +0.000 C 
ATOM     22  C   UNL     1      -0.601  10.891  20.668  0.00  0.00    +0.000 A 
ATOM     23  C   UNL     1      -1.282  12.034  19.988  0.00  0.00    +0.000 C 
ATOM     24  S   UNL     1       0.427   9.841  19.785  0.00  0.00    +0.000 S 
ENDBRANCH  17  18
ENDBRANCH   4  17
TORSDOF 5
ENDMDL
MODEL 3
REMARK VINA RESULT:      -7.2      4.381      8.002
REMARK  Name = 
REMARK  8 active torsions:
REMARK  status: ('A' for Active; 'I' for Inactive)
REMARK    1  A    between atoms: C_1  and  O_2
REMARK    2  A    between atoms: O_2  and  C_3
REMARK    3  A    between atoms: C_8  and  N_9
REMARK    4  A    between atoms: N_9  and  C_10
REMARK    5  A    between atoms: N_13  and  C_14
REMARK    6  A    between atoms: C_14  and  C_15
REMARK    7  A    between atoms: C_17  and  C_18
REMARK    8  A    between atoms: C_19  and  C_20
REMARK                            x       y       z     vdW  Elec       q    Type
REMARK                         _______ _______ _______ _____ _____    ______ ____
ROOT
ATOM      1  C   UNL     1       2.648   4.830  18.465  0.00  0.00    +0.000 C 
ATOM      2  C   UNL     1       2.654   6.330  18.125  0.00  0.00    +0.000 C 
ATOM      3  C   UNL     1       2.572   7.277  19.321  0.00  0.00    +0.000 C 
ATOM      4  N   UNL     1       1.579   6.880  20.320  0.00  0.00    +0.000 NA
ATOM      5  C   UNL     1       1.779   5.511  20.789  0.00  0.00    +0.000 C 
ATOM      6  C   UNL     1       1.779   4.479  19.667  0.00  0.00    +0.000 C 
ENDROOT
BRANCH   1   7
ATOM      7  N   UNL     1       4.009   4.333  18.686  0.00  0.00    +0.000 N 
ATOM      8  H   UNL     1       4.480   4.765  19.486  0.00  0.00    +0.000 HD
BRANCH   7  14
ATOM      9  C   UNL     1       6.276   4.682  17.917  0.00  0.00    +0.000 A 
ATOM     10  C   UNL     1       7.262   4.634  16.940  0.00  0.00    +0.000 A 
ATOM     11  C   UNL     1       6.901   4.310  15.614  0.00  0.00    +0.000 A 
ATOM     12  C   UNL     1       5.568   4.045  15.289  0.00  0.00    +0.000 A 
ATOM     13  C   UNL     1       4.584   4.083  16.280  0.00  0.00    +0.000 A 
ATOM     14  C   UNL     1       4.927   4.389  17.598  0.00  0.00    +0.000 A 
BRANCH   9  16
ATOM     15  C   UNL     1       7.651   5.563  19.711  0.00  0.00    +0.000 C 
ATOM     16  O   UNL     1       6.423   5.058  19.229  0.00  0.00    +0.000 OA
ENDBRANCH   9  16
ENDBRANCH   7  14
ENDBRANCH   1   7
BRANCH   4  17
ATOM     17  C   UNL     1       1.509   7.842  21.453  0.00  0.00    +0.000 C 
BRANCH  17  18
ATOM     18  C   UNL     1       0.675   9.102  21.268  0.00  0.00    +0.000 A 
ATOM     19  N   UNL     1       0.386   9.632  20.095  0.00  0.00    +0.000 NA
ATOM     20  C   UNL     1      -0.496  10.693  20.230  0.00  0.00    +0.000 A 
ATOM     21  C   UNL     1      -0.945  11.416  19.014  0.00  0.00    +0.000 C 
ATOM     22  C   UNL     1      -0.875  10.956  21.540  0.00  0.00    +0.000 A 
ATOM     23  C   UNL     1      -1.837  11.973  22.063  0.00  0.00    +0.000 C 
ATOM     24  S   UNL     1      -0.093   9.868  22.609  0.00  0.00    +0.000 S 
ENDBRANCH  17  18
ENDBRANCH   4  17
TORSDOF 5
ENDMDL
MODEL 4
REMARK VINA RESULT:      -6.8      5.090      7.517
REMARK  Name = 
REMARK  8 active torsions:
REMARK  status: ('A' for Active; 'I' for Inactive)
REMARK    1  A    between atoms: C_1  and  O_2
REMARK    2  A    between atoms: O_2  and  C_3
REMARK    3  A    between atoms: C_8  and  N_9
REMARK    4  A    between atoms: N_9  and  C_10
REMARK    5  A    between atoms: N_13  and  C_14
REMARK    6  A    between atoms: C_14  and  C_15
REMARK    7  A    between atoms: C_17  and  C_18
REMARK    8  A    between atoms: C_19  and  C_20
REMARK                            x       y       z     vdW  Elec       q    Type
REMARK                         _______ _______ _______ _____ _____    ______ ____
ROOT
ATOM      1  C   UNL     1       2.803   6.955  19.006  0.00  0.00    +0.000 C 
ATOM      2  C   UNL     1       2.176   7.489  20.306  0.00  0.00    +0.000 C 
ATOM      3  C   UNL     1       1.014   8.464  20.125  0.00  0.00    +0.000 C 
ATOM      4  N   UNL     1       1.251   9.479  19.098  0.00  0.00    +0.000 NA
ATOM      5  C   UNL     1       1.607   8.892  17.808  0.00  0.00    +0.000 C 
ATOM      6  C   UNL     1       2.823   7.975  17.874  0.00  0.00    +0.000 C 
ENDROOT
BRANCH   1   7
ATOM      7  N   UNL     1       2.125   5.736  18.554  0.00  0.00    +0.000 N 
ATOM      8  H   UNL     1       1.144   5.883  18.296  0.00  0.00    +0.000 HD
BRANCH   7  14
ATOM      9  C   UNL     1       3.335   3.819  19.400  0.00  0.00    +0.000 A 
ATOM     10  C   UNL     1       3.499   2.768  20.291  0.00  0.00    +0.000 A 
ATOM     11  C   UNL     1       2.461   2.468  21.200  0.00  0.00    +0.000 A 
ATOM     12  C   UNL     1       1.281   3.217  21.198  0.00  0.00    +0.000 A 
ATOM     13  C   UNL     1       1.129   4.281  20.306  0.00  0.00    +0.000 A 
ATOM     14  C   UNL     1       2.151   4.599  19.411  0.00  0.00    +0.000 A 
BRANCH   9  16
ATOM     15  C   UNL     1       5.566   4.399  18.647  0.00  0.00    +0.000 C 
ATOM     16  O   UNL     1       4.191   4.201  18.397  0.00  0.00    +0.000 OA
ENDBRANCH   9  16
ENDBRANCH   7  14
ENDBRANCH   1   7
BRANCH   4  17
ATOM     17  C   UNL     1       0.111  10.426  18.973  0.00  0.00    +0.000 C 
BRANCH  17  18
ATOM     18  C   UNL     1       0.421  11.916  18.943  0.00  0.00    +0.000 A 
ATOM     19  N   UNL     1       1.604  12.419  18.645  0.00  0.00    +0.000 NA
ATOM     20  C   UNL     1       1.552  13.803  18.568  0.00  0.00    +0.000 A 
ATOM     21  C   UNL     1       2.790  14.552  18.236  0.00  0.00    +0.000 C 
ATOM     22  C   UNL     1       0.296  14.341  18.812  0.00  0.00    +0.000 A 
ATOM     23  C   UNL     1      -0.151  15.767  18.767  0.00  0.00    +0.000 C 
ATOM     24  S   UNL     1      -0.822  13.091  19.164  0.00  0.00    +0.000 S 
ENDBRANCH  17  18
ENDBRANCH   4  17
TORSDOF 5
ENDMDL
MODEL 5
REMARK VINA RESULT:      -6.8      2.764      4.286
REMARK  Name = 
REMARK  8 active torsions:
REMARK  status: ('A' for Active; 'I' for Inactive)
REMARK    1  A    between atoms: C_1  and  O_2
REMARK    2  A    between atoms: O_2  and  C_3
REMARK    3  A    between atoms: C_8  and  N_9
REMARK    4  A    between atoms: N_9  and  C_10
REMARK    5  A    between atoms: N_13  and  C_14
REMARK    6  A    between atoms: C_14  and  C_15
REMARK    7  A    between atoms: C_17  and  C_18
REMARK    8  A    between atoms: C_19  and  C_20
REMARK                            x       y       z     vdW  Elec       q    Type
REMARK                         _______ _______ _______ _____ _____    ______ ____
ROOT
ATOM      1  C   UNL     1       2.501   5.730  19.475  0.00  0.00    +0.000 C 
ATOM      2  C   UNL     1       3.523   4.734  20.051  0.00  0.00    +0.000 C 
ATOM      3  C   UNL     1       4.916   4.784  19.427  0.00  0.00    +0.000 C 
ATOM      4  N   UNL     1       4.904   4.874  17.966  0.00  0.00    +0.000 NA
ATOM      5  C   UNL     1       4.108   6.000  17.484  0.00  0.00    +0.000 C 
ATOM      6  C   UNL     1       2.667   5.980  17.981  0.00  0.00    +0.000 C 
ENDROOT
BRANCH   1   7
ATOM      7  N   UNL     1       2.547   7.007  20.192  0.00  0.00    +0.000 N 
ATOM      8  H   UNL     1       2.206   6.949  21.157  0.00  0.00    +0.000 HD
BRANCH   7  14
ATOM      9  C   UNL     1       1.141   8.957  20.468  0.00  0.00    +0.000 A 
ATOM     10  C   UNL     1       0.580  10.140  20.005  0.00  0.00    +0.000 A 
ATOM     11  C   UNL     1       0.758  10.503  18.653  0.00  0.00    +0.000 A 
ATOM     12  C   UNL     1       1.484   9.679  17.789  0.00  0.00    +0.000 A 
ATOM     13  C   UNL     1       2.054   8.497  18.264  0.00  0.00    +0.000 A 
ATOM     14  C   UNL     1       1.901   8.130  19.601  0.00  0.00    +0.000 A 
BRANCH   9  16
ATOM     15  C   UNL     1       0.465   9.146  22.789  0.00  0.00    +0.000 C 
ATOM     16  O   UNL     1       1.005   8.403  21.716  0.00  0.00    +0.000 OA
ENDBRANCH   9  16
ENDBRANCH   7  14
ENDBRANCH   1   7
BRANCH   4  17
ATOM     17  C   UNL     1       6.278   4.891  17.395  0.00  0.00    +0.000 C 
BRANCH  17  18
ATOM     18  C   UNL     1       6.426   4.758  15.886  0.00  0.00    +0.000 A 
ATOM     19  N   UNL     1       7.284   5.453  15.164  0.00  0.00    +0.000 NA
ATOM     20  C   UNL     1       7.286   5.025  13.844  0.00  0.00    +0.000 A 
ATOM     21  C   UNL     1       8.196   5.686  12.875  0.00  0.00    +0.000 C 
ATOM     22  C   UNL     1       6.409   3.982  13.581  0.00  0.00    +0.000 A 
ATOM     23  C   UNL     1       6.177   3.235  12.308  0.00  0.00    +0.000 C 
ATOM     24  S   UNL     1       5.559   3.554  15.007  0.00  0.00    +0.000 S 
ENDBRANCH  17  18
ENDBRANCH   4  17
TORSDOF 5
ENDMDL
MODEL 6
REMARK VINA RESULT:      -6.7      3.680      7.543
REMARK  Name = 
REMARK  8 active torsions:
REMARK  status: ('A' for Active; 'I' for Inactive)
REMARK    1  A    between atoms: C_1  and  O_2
REMARK    2  A    between atoms: O_2  and  C_3
REMARK    3  A    between atoms: C_8  and  N_9
REMARK    4  A    between atoms: N_9  and  C_10
REMARK    5  A    between atoms: N_13  and  C_14
REMARK    6  A    between atoms: C_14  and  C_15
REMARK    7  A    between atoms: C_17  and  C_18
REMARK    8  A    between atoms: C_19  and  C_20
REMARK                            x       y       z     vdW  Elec       q    Type
REMARK                         _______ _______ _______ _____ _____    ______ ____
ROOT
ATOM      1  C   UNL     1       3.186   3.440  18.791  0.00  0.00    +0.000 C 
ATOM      2  C   UNL     1       2.503   4.198  17.639  0.00  0.00    +0.000 C 
ATOM      3  C   UNL     1       2.631   5.719  17.684  0.00  0.00    +0.000 C 
ATOM      4  N   UNL     1       2.404   6.290  19.012  0.00  0.00    +0.000 NA
ATOM      5  C   UNL     1       3.266   5.694  20.029  0.00  0.00    +0.000 C 
ATOM      6  C   UNL     1       3.134   4.178  20.124  0.00  0.00    +0.000 C 
ENDROOT
BRANCH   1   7
ATOM      7  N   UNL     1       4.579   3.123  18.463  0.00  0.00    +0.000 N 
ATOM      8  H   UNL     1       5.218   3.206  19.260  0.00  0.00    +0.000 HD
BRANCH   7  14
ATOM      9  C   UNL     1       6.284   4.661  17.703  0.00  0.00    +0.000 A 
ATOM     10  C   UNL     1       7.017   5.283  16.701  0.00  0.00    +0.000 A 
ATOM     11  C   UNL     1       6.644   5.087  15.353  0.00  0.00    +0.000 A 
ATOM     12  C   UNL     1       5.548   4.282  15.033  0.00  0.00    +0.000 A 
ATOM     13  C   UNL     1       4.824   3.650  16.046  0.00  0.00    +0.000 A 
ATOM     14  C   UNL     1       5.188   3.822  17.382  0.00  0.00    +0.000 A 
BRANCH   9  16
ATOM     15  C   UNL     1       7.457   5.627  19.594  0.00  0.00    +0.000 C 
ATOM     16  O   UNL     1       6.444   4.801  19.059  0.00  0.00    +0.000 OA
ENDBRANCH   9  16
ENDBRANCH   7  14
ENDBRANCH   1   7
BRANCH   4  17
ATOM     17  C   UNL     1       2.507   7.774  19.008  0.00  0.00    +0.000 C 
BRANCH  17  18
ATOM     18  C   UNL     1       1.473   8.564  19.797  0.00  0.00    +0.000 A 
ATOM     19  N   UNL     1       1.232   8.386  21.082  0.00  0.00    +0.000 NA
ATOM     20  C   UNL     1       0.338   9.335  21.558  0.00  0.00    +0.000 A 
ATOM     21  C   UNL     1      -0.053   9.301  22.989  0.00  0.00    +0.000 C 
ATOM     22  C   UNL     1      -0.092  10.243  20.600  0.00  0.00    +0.000 A 
ATOM     23  C   UNL     1      -1.001  11.420  20.749  0.00  0.00    +0.000 C 
ATOM     24  S   UNL     1       0.620   9.882  19.083  0.00  0.00    +0.000 S 
ENDBRANCH  17  18
ENDBRANCH   4  17
TORSDOF 5
ENDMDL
MODEL 7
REMARK VINA RESULT:      -6.7      5.159      7.680
REMARK  Name = 
REMARK  8 active torsions:
REMARK  status: ('A' for Active; 'I' for Inactive)
REMARK    1  A    between atoms: C_1  and  O_2
REMARK    2  A    between atoms: O_2  and  C_3
REMARK    3  A    between atoms: C_8  and  N_9
REMARK    4  A    between atoms: N_9  and  C_10
REMARK    5  A    between atoms: N_13  and  C_14
REMARK    6  A    between atoms: C_14  and  C_15
REMARK    7  A    between atoms: C_17  and  C_18
REMARK    8  A    between atoms: C_19  and  C_20
REMARK                            x       y       z     vdW  Elec       q    Type
REMARK                         _______ _______ _______ _____ _____    ______ ____
ROOT
ATOM      1  C   UNL     1       2.577   7.172  19.193  0.00  0.00    +0.000 C 
ATOM      2  C   UNL     1       1.892   7.802  20.418  0.00  0.00    +0.000 C 
ATOM      3  C   UNL     1       0.812   8.837  20.109  0.00  0.00    +0.000 C 
ATOM      4  N   UNL     1       1.189   9.787  19.063  0.00  0.00    +0.000 NA
ATOM      5  C   UNL     1       1.600   9.122  17.829  0.00  0.00    +0.000 C 
ATOM      6  C   UNL     1       2.746   8.135  18.024  0.00  0.00    +0.000 C 
ENDROOT
BRANCH   1   7
ATOM      7  N   UNL     1       1.857   5.977  18.742  0.00  0.00    +0.000 N 
ATOM      8  H   UNL     1       0.848   6.122  18.633  0.00  0.00    +0.000 HD
BRANCH   7  14
ATOM      9  C   UNL     1       3.223   4.060  19.298  0.00  0.00    +0.000 A 
ATOM     10  C   UNL     1       3.519   2.948  20.076  0.00  0.00    +0.000 A 
ATOM     11  C   UNL     1       2.590   2.525  21.052  0.00  0.00    +0.000 A 
ATOM     12  C   UNL     1       1.387   3.214  21.228  0.00  0.00    +0.000 A 
ATOM     13  C   UNL     1       1.103   4.337  20.450  0.00  0.00    +0.000 A 
ATOM     14  C   UNL     1       2.015   4.777  19.491  0.00  0.00    +0.000 A 
BRANCH   9  16
ATOM     15  C   UNL     1       4.219   3.787  17.103  0.00  0.00    +0.000 C 
ATOM     16  O   UNL     1       3.958   4.563  18.254  0.00  0.00    +0.000 OA
ENDBRANCH   9  16
ENDBRANCH   7  14
ENDBRANCH   1   7
BRANCH   4  17
ATOM     17  C   UNL     1       0.125  10.796  18.812  0.00  0.00    +0.000 C 
BRANCH  17  18
ATOM     18  C   UNL     1       0.536  12.258  18.711  0.00  0.00    +0.000 A 
ATOM     19  N   UNL     1      -0.301  13.271  18.831  0.00  0.00    +0.000 NA
ATOM     20  C   UNL     1       0.376  14.481  18.826  0.00  0.00    +0.000 A 
ATOM     21  C   UNL     1      -0.398  15.740  18.958  0.00  0.00    +0.000 C 
ATOM     22  C   UNL     1       1.755  14.363  18.704  0.00  0.00    +0.000 A 
ATOM     23  C   UNL     1       2.803  15.427  18.714  0.00  0.00    +0.000 C 
ATOM     24  S   UNL     1       2.194  12.711  18.570  0.00  0.00    +0.000 S 
ENDBRANCH  17  18
ENDBRANCH   4  17
TORSDOF 5
ENDMDL
MODEL 8
REMARK VINA RESULT:      -6.7      4.940      7.714
REMARK  Name = 
REMARK  8 active torsions:
REMARK  status: ('A' for Active; 'I' for Inactive)
REMARK    1  A    between atoms: C_1  and  O_2
REMARK    2  A    between atoms: O_2  and  C_3
REMARK    3  A    between atoms: C_8  and  N_9
REMARK    4  A    between atoms: N_9  and  C_10
REMARK    5  A    between atoms: N_13  and  C_14
REMARK    6  A    between atoms: C_14  and  C_15
REMARK    7  A    between atoms: C_17  and  C_18
REMARK    8  A    between atoms: C_19  and  C_20
REMARK                            x       y       z     vdW  Elec       q    Type
REMARK                         _______ _______ _______ _____ _____    ______ ____
ROOT
ATOM      1  C   UNL     1       2.853   6.785  18.573  0.00  0.00    +0.000 C 
ATOM      2  C   UNL     1       2.511   6.654  20.067  0.00  0.00    +0.000 C 
ATOM      3  C   UNL     1       1.363   7.532  20.561  0.00  0.00    +0.000 C 
ATOM      4  N   UNL     1       1.419   8.908  20.064  0.00  0.00    +0.000 NA
ATOM      5  C   UNL     1       1.495   8.970  18.606  0.00  0.00    +0.000 C 
ATOM      6  C   UNL     1       2.675   8.197  18.027  0.00  0.00    +0.000 C 
ENDROOT
BRANCH   1   7
ATOM      7  N   UNL     1       2.066   5.847  17.767  0.00  0.00    +0.000 N 
ATOM      8  H   UNL     1       1.057   6.024  17.798  0.00  0.00    +0.000 HD
BRANCH   7  14
ATOM      9  C   UNL     1       3.459   3.879  17.561  0.00  0.00    +0.000 A 
ATOM     10  C   UNL     1       3.768   2.559  17.858  0.00  0.00    +0.000 A 
ATOM     11  C   UNL     1       2.843   1.783  18.590  0.00  0.00    +0.000 A 
ATOM     12  C   UNL     1       1.629   2.337  19.006  0.00  0.00    +0.000 A 
ATOM     13  C   UNL     1       1.331   3.669  18.713  0.00  0.00    +0.000 A 
ATOM     14  C   UNL     1       2.240   4.453  18.003  0.00  0.00    +0.000 A 
BRANCH   9  16
ATOM     15  C   UNL     1       5.226   4.294  15.953  0.00  0.00    +0.000 C 
ATOM     16  O   UNL     1       4.189   4.753  16.794  0.00  0.00    +0.000 OA
ENDBRANCH   9  16
ENDBRANCH   7  14
ENDBRANCH   1   7
BRANCH   4  17
ATOM     17  C   UNL     1       0.302   9.738  20.590  0.00  0.00    +0.000 C 
BRANCH  17  18
ATOM     18  C   UNL     1       0.408  11.250  20.447  0.00  0.00    +0.000 A 
ATOM     19  N   UNL     1       1.312  11.988  21.064  0.00  0.00    +0.000 NA
ATOM     20  C   UNL     1       1.250  13.308  20.641  0.00  0.00    +0.000 A 
ATOM     21  C   UNL     1       2.197  14.294  21.220  0.00  0.00    +0.000 C 
ATOM     22  C   UNL     1       0.278  13.555  19.681  0.00  0.00    +0.000 A 
ATOM     23  C   UNL     1      -0.045  14.823  18.961  0.00  0.00    +0.000 C 
ATOM     24  S   UNL     1      -0.580  12.113  19.329  0.00  0.00    +0.000 S 
ENDBRANCH  17  18
ENDBRANCH   4  17
TORSDOF 5
ENDMDL
MODEL 9
REMARK VINA RESULT:      -6.7      4.749      8.300
REMARK  Name = 
REMARK  8 active torsions:
REMARK  status: ('A' for Active; 'I' for Inactive)
REMARK    1  A    between atoms: C_1  and  O_2
REMARK    2  A    between atoms: O_2  and  C_3
REMARK    3  A    between atoms: C_8  and  N_9
REMARK    4  A    between atoms: N_9  and  C_10
REMARK    5  A    between atoms: N_13  and  C_14
REMARK    6  A    between atoms: C_14  and  C_15
REMARK    7  A    between atoms: C_17  and  C_18
REMARK    8  A    between atoms: C_19  and  C_20
REMARK                            x       y       z     vdW  Elec       q    Type
REMARK                         _______ _______ _______ _____ _____    ______ ____
ROOT
ATOM      1  C   UNL     1       2.581   6.037  18.384  0.00  0.00    +0.000 C 
ATOM      2  C   UNL     1       2.273   7.520  18.110  0.00  0.00    +0.000 C 
ATOM      3  C   UNL     1       2.141   8.404  19.349  0.00  0.00    +0.000 C 
ATOM      4  N   UNL     1       1.347   7.802  20.420  0.00  0.00    +0.000 NA
ATOM      5  C   UNL     1       1.845   6.484  20.808  0.00  0.00    +0.000 C 
ATOM      6  C   UNL     1       1.920   5.498  19.647  0.00  0.00    +0.000 C 
ENDROOT
BRANCH   1   7
ATOM      7  N   UNL     1       4.026   5.801  18.450  0.00  0.00    +0.000 N 
ATOM      8  H   UNL     1       4.556   6.595  18.823  0.00  0.00    +0.000 HD
BRANCH   7  14
ATOM      9  C   UNL     1       4.902   4.001  17.091  0.00  0.00    +0.000 A 
ATOM     10  C   UNL     1       5.430   3.503  15.907  0.00  0.00    +0.000 A 
ATOM     11  C   UNL     1       5.779   4.402  14.877  0.00  0.00    +0.000 A 
ATOM     12  C   UNL     1       5.599   5.777  15.048  0.00  0.00    +0.000 A 
ATOM     13  C   UNL     1       5.056   6.270  16.237  0.00  0.00    +0.000 A 
ATOM     14  C   UNL     1       4.693   5.393  17.260  0.00  0.00    +0.000 A 
BRANCH   9  16
ATOM     15  C   UNL     1       3.608   2.276  18.201  0.00  0.00    +0.000 C 
ATOM     16  O   UNL     1       4.586   3.294  18.224  0.00  0.00    +0.000 OA
ENDBRANCH   9  16
ENDBRANCH   7  14
ENDBRANCH   1   7
BRANCH   4  17
ATOM     17  C   UNL     1       1.216   8.705  21.595  0.00  0.00    +0.000 C 
BRANCH  17  18
ATOM     18  C   UNL     1       0.242   9.870  21.495  0.00  0.00    +0.000 A 
ATOM     19  N   UNL     1      -0.011  10.709  22.481  0.00  0.00    +0.000 NA
ATOM     20  C   UNL     1      -0.834  11.743  22.059  0.00  0.00    +0.000 A 
ATOM     21  C   UNL     1      -1.226  12.794  23.031  0.00  0.00    +0.000 C 
ATOM     22  C   UNL     1      -1.199  11.671  20.721  0.00  0.00    +0.000 A 
ATOM     23  C   UNL     1      -2.021  12.619  19.909  0.00  0.00    +0.000 C 
ATOM     24  S   UNL     1      -0.516  10.274  19.999  0.00  0.00    +0.000 S 
ENDBRANCH  17  18
ENDBRANCH   4  17
TORSDOF 5
ENDMDL
