MODEL 1
REMARK VINA RESULT:      -7.6      0.000      0.000
REMARK  Name = 
REMARK  11 active torsions:
REMARK  status: ('A' for Active; 'I' for Inactive)
REMARK    1  A    between atoms: C_1  and  C_2
REMARK    2  A    between atoms: C_2  and  O_3
REMARK    3  A    between atoms: O_3  and  C_4
REMARK    4  A    between atoms: C_7  and  C_8
REMARK    5  A    between atoms: C_8  and  C_9
REMARK    6  A    between atoms: C_13  and  C_14
REMARK    7  A    between atoms: C_16  and  O_17
REMARK    8  A    between atoms: O_17  and  C_18
REMARK    9  A    between atoms: C_19  and  O_20
REMARK   10  A    between atoms: C_21  and  O_22
REMARK   11  A    between atoms: C_23  and  O_24
REMARK                            x       y       z     vdW  Elec       q    Type
REMARK                         _______ _______ _______ _____ _____    ______ ____
ROOT
ATOM      1  C   UNL     1       1.121   9.456  19.171  0.00  0.00    +0.000 A 
ATOM      2  C   UNL     1       0.746   9.272  20.508  0.00  0.00    +0.000 A 
ATOM      3  C   UNL     1       1.136   8.126  21.195  0.00  0.00    +0.000 A 
ATOM      4  C   UNL     1       1.912   7.166  20.552  0.00  0.00    +0.000 A 
ATOM      5  C   UNL     1       2.307   7.337  19.211  0.00  0.00    +0.000 A 
ATOM      6  C   UNL     1       1.893   8.477  18.525  0.00  0.00    +0.000 A 
ENDROOT
BRANCH   5   7
ATOM      7  C   UNL     1       3.195   6.299  18.567  0.00  0.00    +0.000 C 
ATOM      8  O   UNL     1       3.909   6.862  17.450  0.00  0.00    +0.000 OA
ATOM      9  C   UNL     1       5.019   6.047  17.074  0.00  0.00    +0.000 C 
ATOM     10  C   UNL     1       4.586   4.598  16.724  0.00  0.00    +0.000 C 
ATOM     11  C   UNL     1       3.616   4.021  17.772  0.00  0.00    +0.000 C 
ATOM     12  C   UNL     1       2.489   5.031  18.064  0.00  0.00    +0.000 C 
BRANCH   9  13
ATOM     13  O   UNL     1       5.996   6.027  18.125  0.00  0.00    +0.000 OA
ATOM     14  C   UNL     1       7.177   6.726  17.734  0.00  0.00    +0.000 C 
ENDBRANCH   9  13
BRANCH  10  15
ATOM     15  O   UNL     1       5.736   3.753  16.580  0.00  0.00    +0.000 OA
ATOM     16  H   UNL     1       6.490   4.252  16.946  0.00  0.00    +0.000 HD
ENDBRANCH  10  15
BRANCH  11  17
ATOM     17  O   UNL     1       3.088   2.760  17.344  0.00  0.00    +0.000 OA
ATOM     18  H   UNL     1       3.829   2.139  17.231  0.00  0.00    +0.000 HD
ENDBRANCH  11  17
BRANCH  12  19
ATOM     19  O   UNL     1       1.546   4.468  18.975  0.00  0.00    +0.000 OA
ATOM     20  H   UNL     1       1.634   4.919  19.831  0.00  0.00    +0.000 HD
ENDBRANCH  12  19
ENDBRANCH   5   7
BRANCH   1  21
ATOM     21  C   UNL     1       0.661  10.669  18.399  0.00  0.00    +0.000 C 
BRANCH  21  25
ATOM     22  C   UNL     1      -3.609  10.795  17.759  0.00  0.00    +0.000 A 
ATOM     23  C   UNL     1      -3.003  11.692  18.637  0.00  0.00    +0.000 A 
ATOM     24  C   UNL     1      -1.625  11.655  18.841  0.00  0.00    +0.000 A 
ATOM     25  C   UNL     1      -0.834  10.701  18.187  0.00  0.00    +0.000 A 
ATOM     26  C   UNL     1      -1.456   9.773  17.343  0.00  0.00    +0.000 A 
ATOM     27  C   UNL     1      -2.838   9.816  17.134  0.00  0.00    +0.000 A 
BRANCH  22  28
ATOM     28  O   UNL     1      -4.956  10.960  17.602  0.00  0.00    +0.000 OA
BRANCH  28  30
ATOM     29  C   UNL     1      -6.788  10.343  18.991  0.00  0.00    +0.000 C 
ATOM     30  C   UNL     1      -5.674  11.350  18.772  0.00  0.00    +0.000 C 
ENDBRANCH  28  30
ENDBRANCH  22  28
ENDBRANCH  21  25
ENDBRANCH   1  21
TORSDOF 9
ENDMDL
MODEL 2
REMARK VINA RESULT:      -7.2      1.329      2.849
REMARK  Name = 
REMARK  11 active torsions:
REMARK  status: ('A' for Active; 'I' for Inactive)
REMARK    1  A    between atoms: C_1  and  C_2
REMARK    2  A    between atoms: C_2  and  O_3
REMARK    3  A    between atoms: O_3  and  C_4
REMARK    4  A    between atoms: C_7  and  C_8
REMARK    5  A    between atoms: C_8  and  C_9
REMARK    6  A    between atoms: C_13  and  C_14
REMARK    7  A    between atoms: C_16  and  O_17
REMARK    8  A    between atoms: O_17  and  C_18
REMARK    9  A    between atoms: C_19  and  O_20
REMARK   10  A    between atoms: C_21  and  O_22
REMARK   11  A    between atoms: C_23  and  O_24
REMARK                            x       y       z     vdW  Elec       q    Type
REMARK                         _______ _______ _______ _____ _____    ______ ____
ROOT
ATOM      1  C   UNL     1       1.494   8.876  19.058  0.00  0.00    +0.000 A 
ATOM      2  C   UNL     1       1.171   8.979  20.416  0.00  0.00    +0.000 A 
ATOM      3  C   UNL     1       1.346   7.888  21.264  0.00  0.00    +0.000 A 
ATOM      4  C   UNL     1       1.853   6.696  20.758  0.00  0.00    +0.000 A 
ATOM      5  C   UNL     1       2.193   6.575  19.396  0.00  0.00    +0.000 A 
ATOM      6  C   UNL     1       1.994   7.666  18.552  0.00  0.00    +0.000 A 
ENDROOT
BRANCH   5   7
ATOM      7  C   UNL     1       2.793   5.281  18.898  0.00  0.00    +0.000 C 
ATOM      8  O   UNL     1       2.557   4.216  19.838  0.00  0.00    +0.000 OA
ATOM      9  C   UNL     1       2.756   2.936  19.239  0.00  0.00    +0.000 C 
ATOM     10  C   UNL     1       4.183   2.786  18.646  0.00  0.00    +0.000 C 
ATOM     11  C   UNL     1       4.592   4.019  17.818  0.00  0.00    +0.000 C 
ATOM     12  C   UNL     1       4.301   5.309  18.609  0.00  0.00    +0.000 C 
BRANCH   9  13
ATOM     13  O   UNL     1       1.775   2.710  18.217  0.00  0.00    +0.000 OA
ATOM     14  C   UNL     1       0.512   2.373  18.791  0.00  0.00    +0.000 C 
ENDBRANCH   9  13
BRANCH  10  15
ATOM     15  O   UNL     1       4.274   1.593  17.855  0.00  0.00    +0.000 OA
ATOM     16  H   UNL     1       4.180   1.874  16.925  0.00  0.00    +0.000 HD
ENDBRANCH  10  15
BRANCH  11  17
ATOM     17  O   UNL     1       5.969   3.944  17.431  0.00  0.00    +0.000 OA
ATOM     18  H   UNL     1       6.487   3.631  18.194  0.00  0.00    +0.000 HD
ENDBRANCH  11  17
BRANCH  12  19
ATOM     19  O   UNL     1       4.751   6.448  17.879  0.00  0.00    +0.000 OA
ATOM     20  H   UNL     1       4.523   7.249  18.379  0.00  0.00    +0.000 HD
ENDBRANCH  12  19
ENDBRANCH   5   7
BRANCH   1  21
ATOM     21  C   UNL     1       1.261  10.035  18.119  0.00  0.00    +0.000 C 
BRANCH  21  25
ATOM     22  C   UNL     1      -2.786  11.532  18.325  0.00  0.00    +0.000 A 
ATOM     23  C   UNL     1      -2.504  10.362  17.622  0.00  0.00    +0.000 A 
ATOM     24  C   UNL     1      -1.200   9.876  17.559  0.00  0.00    +0.000 A 
ATOM     25  C   UNL     1      -0.151  10.569  18.178  0.00  0.00    +0.000 A 
ATOM     26  C   UNL     1      -0.434  11.769  18.842  0.00  0.00    +0.000 A 
ATOM     27  C   UNL     1      -1.744  12.251  18.911  0.00  0.00    +0.000 A 
BRANCH  22  28
ATOM     28  O   UNL     1      -4.106  11.882  18.361  0.00  0.00    +0.000 OA
BRANCH  28  30
ATOM     29  C   UNL     1      -6.044  12.567  17.161  0.00  0.00    +0.000 C 
ATOM     30  C   UNL     1      -4.844  11.638  17.164  0.00  0.00    +0.000 C 
ENDBRANCH  28  30
ENDBRANCH  22  28
ENDBRANCH  21  25
ENDBRANCH   1  21
TORSDOF 9
ENDMDL
MODEL 3
REMARK VINA RESULT:      -7.1      1.327      1.558
REMARK  Name = 
REMARK  11 active torsions:
REMARK  status: ('A' for Active; 'I' for Inactive)
REMARK    1  A    between atoms: C_1  and  C_2
REMARK    2  A    between atoms: C_2  and  O_3
REMARK    3  A    between atoms: O_3  and  C_4
REMARK    4  A    between atoms: C_7  and  C_8
REMARK    5  A    between atoms: C_8  and  C_9
REMARK    6  A    between atoms: C_13  and  C_14
REMARK    7  A    between atoms: C_16  and  O_17
REMARK    8  A    between atoms: O_17  and  C_18
REMARK    9  A    between atoms: C_19  and  O_20
REMARK   10  A    between atoms: C_21  and  O_22
REMARK   11  A    between atoms: C_23  and  O_24
REMARK                            x       y       z     vdW  Elec       q    Type
REMARK                         _______ _______ _______ _____ _____    ______ ____
ROOT
ATOM      1  C   UNL     1       1.453   8.803  19.208  0.00  0.00    +0.000 A 
ATOM      2  C   UNL     1       1.116   9.002  20.553  0.00  0.00    +0.000 A 
ATOM      3  C   UNL     1       1.228   7.956  21.467  0.00  0.00    +0.000 A 
ATOM      4  C   UNL     1       1.687   6.714  21.041  0.00  0.00    +0.000 A 
ATOM      5  C   UNL     1       2.041   6.497  19.695  0.00  0.00    +0.000 A 
ATOM      6  C   UNL     1       1.905   7.543  18.784  0.00  0.00    +0.000 A 
ENDROOT
BRANCH   5   7
ATOM      7  C   UNL     1       2.588   5.150  19.285  0.00  0.00    +0.000 C 
ATOM      8  O   UNL     1       3.362   5.262  18.076  0.00  0.00    +0.000 OA
ATOM      9  C   UNL     1       4.197   4.121  17.881  0.00  0.00    +0.000 C 
ATOM     10  C   UNL     1       3.380   2.802  17.843  0.00  0.00    +0.000 C 
ATOM     11  C   UNL     1       2.352   2.731  18.987  0.00  0.00    +0.000 C 
ATOM     12  C   UNL     1       1.547   4.043  19.059  0.00  0.00    +0.000 C 
BRANCH   9  13
ATOM     13  O   UNL     1       5.190   4.053  18.915  0.00  0.00    +0.000 OA
ATOM     14  C   UNL     1       6.038   5.200  18.881  0.00  0.00    +0.000 C 
ENDBRANCH   9  13
BRANCH  10  15
ATOM     15  O   UNL     1       4.258   1.668  17.882  0.00  0.00    +0.000 OA
ATOM     16  H   UNL     1       4.958   1.840  17.224  0.00  0.00    +0.000 HD
ENDBRANCH  10  15
BRANCH  11  17
ATOM     17  O   UNL     1       1.489   1.598  18.833  0.00  0.00    +0.000 OA
ATOM     18  H   UNL     1       1.969   0.804  19.127  0.00  0.00    +0.000 HD
ENDBRANCH  11  17
BRANCH  12  19
ATOM     19  O   UNL     1       0.542   3.952  20.066  0.00  0.00    +0.000 OA
ATOM     20  H   UNL     1       0.093   4.811  20.137  0.00  0.00    +0.000 HD
ENDBRANCH  12  19
ENDBRANCH   5   7
BRANCH   1  21
ATOM     21  C   UNL     1       1.287   9.912  18.198  0.00  0.00    +0.000 C 
BRANCH  21  25
ATOM     22  C   UNL     1      -2.796  11.248  17.748  0.00  0.00    +0.000 A 
ATOM     23  C   UNL     1      -1.875  12.025  18.450  0.00  0.00    +0.000 A 
ATOM     24  C   UNL     1      -0.556  11.597  18.592  0.00  0.00    +0.000 A 
ATOM     25  C   UNL     1      -0.145  10.370  18.054  0.00  0.00    +0.000 A 
ATOM     26  C   UNL     1      -1.086   9.572  17.391  0.00  0.00    +0.000 A 
ATOM     27  C   UNL     1      -2.407  10.007  17.244  0.00  0.00    +0.000 A 
BRANCH  22  28
ATOM     28  O   UNL     1      -4.043  11.793  17.631  0.00  0.00    +0.000 OA
BRANCH  28  30
ATOM     29  C   UNL     1      -5.655  11.786  19.382  0.00  0.00    +0.000 C 
ATOM     30  C   UNL     1      -5.110  11.025  18.187  0.00  0.00    +0.000 C 
ENDBRANCH  28  30
ENDBRANCH  22  28
ENDBRANCH  21  25
ENDBRANCH   1  21
TORSDOF 9
ENDMDL
MODEL 4
REMARK VINA RESULT:      -7.1      0.944      2.546
REMARK  Name = 
REMARK  11 active torsions:
REMARK  status: ('A' for Active; 'I' for Inactive)
REMARK    1  A    between atoms: C_1  and  C_2
REMARK    2  A    between atoms: C_2  and  O_3
REMARK    3  A    between atoms: O_3  and  C_4
REMARK    4  A    between atoms: C_7  and  C_8
REMARK    5  A    between atoms: C_8  and  C_9
REMARK    6  A    between atoms: C_13  and  C_14
REMARK    7  A    between atoms: C_16  and  O_17
REMARK    8  A    between atoms: O_17  and  C_18
REMARK    9  A    between atoms: C_19  and  O_20
REMARK   10  A    between atoms: C_21  and  O_22
REMARK   11  A    between atoms: C_23  and  O_24
REMARK                            x       y       z     vdW  Elec       q    Type
REMARK                         _______ _______ _______ _____ _____    ______ ____
ROOT
ATOM      1  C   UNL     1       1.112   9.423  19.225  0.00  0.00    +0.000 A 
ATOM      2  C   UNL     1       0.897   9.429  20.608  0.00  0.00    +0.000 A 
ATOM      3  C   UNL     1       1.233   8.317  21.376  0.00  0.00    +0.000 A 
ATOM      4  C   UNL     1       1.794   7.200  20.764  0.00  0.00    +0.000 A 
ATOM      5  C   UNL     1       2.026   7.178  19.375  0.00  0.00    +0.000 A 
ATOM      6  C   UNL     1       1.668   8.288  18.613  0.00  0.00    +0.000 A 
ENDROOT
BRANCH   5   7
ATOM      7  C   UNL     1       2.689   5.968  18.758  0.00  0.00    +0.000 C 
ATOM      8  O   UNL     1       2.711   4.870  19.689  0.00  0.00    +0.000 OA
ATOM      9  C   UNL     1       2.962   3.630  19.029  0.00  0.00    +0.000 C 
ATOM     10  C   UNL     1       4.296   3.653  18.236  0.00  0.00    +0.000 C 
ATOM     11  C   UNL     1       4.442   4.935  17.396  0.00  0.00    +0.000 C 
ATOM     12  C   UNL     1       4.127   6.173  18.259  0.00  0.00    +0.000 C 
BRANCH   9  13
ATOM     13  O   UNL     1       1.875   3.308  18.150  0.00  0.00    +0.000 OA
ATOM     14  C   UNL     1       0.941   2.441  18.794  0.00  0.00    +0.000 C 
ENDBRANCH   9  13
BRANCH  10  15
ATOM     15  O   UNL     1       4.404   2.489  17.404  0.00  0.00    +0.000 OA
ATOM     16  H   UNL     1       5.225   2.596  16.888  0.00  0.00    +0.000 HD
ENDBRANCH  10  15
BRANCH  11  17
ATOM     17  O   UNL     1       5.749   5.024  16.816  0.00  0.00    +0.000 OA
ATOM     18  H   UNL     1       5.672   5.468  15.953  0.00  0.00    +0.000 HD
ENDBRANCH  11  17
BRANCH  12  19
ATOM     19  O   UNL     1       4.337   7.366  17.507  0.00  0.00    +0.000 OA
ATOM     20  H   UNL     1       4.054   7.211  16.591  0.00  0.00    +0.000 HD
ENDBRANCH  12  19
ENDBRANCH   5   7
BRANCH   1  21
ATOM     21  C   UNL     1       0.705  10.602  18.375  0.00  0.00    +0.000 C 
BRANCH  21  25
ATOM     22  C   UNL     1      -3.578  10.886  17.895  0.00  0.00    +0.000 A 
ATOM     23  C   UNL     1      -2.855   9.920  17.197  0.00  0.00    +0.000 A 
ATOM     24  C   UNL     1      -1.473   9.825  17.354  0.00  0.00    +0.000 A 
ATOM     25  C   UNL     1      -0.791  10.713  18.196  0.00  0.00    +0.000 A 
ATOM     26  C   UNL     1      -1.517  11.711  18.857  0.00  0.00    +0.000 A 
ATOM     27  C   UNL     1      -2.904  11.800  18.703  0.00  0.00    +0.000 A 
BRANCH  22  28
ATOM     28  O   UNL     1      -4.930  10.849  17.700  0.00  0.00    +0.000 OA
BRANCH  28  30
ATOM     29  C   UNL     1      -6.810  10.244  19.028  0.00  0.00    +0.000 C 
ATOM     30  C   UNL     1      -5.726  11.283  18.802  0.00  0.00    +0.000 C 
ENDBRANCH  28  30
ENDBRANCH  22  28
ENDBRANCH  21  25
ENDBRANCH   1  21
TORSDOF 9
ENDMDL
MODEL 5
REMARK VINA RESULT:      -7.1      1.397      2.725
REMARK  Name = 
REMARK  11 active torsions:
REMARK  status: ('A' for Active; 'I' for Inactive)
REMARK    1  A    between atoms: C_1  and  C_2
REMARK    2  A    between atoms: C_2  and  O_3
REMARK    3  A    between atoms: O_3  and  C_4
REMARK    4  A    between atoms: C_7  and  C_8
REMARK    5  A    between atoms: C_8  and  C_9
REMARK    6  A    between atoms: C_13  and  C_14
REMARK    7  A    between atoms: C_16  and  O_17
REMARK    8  A    between atoms: O_17  and  C_18
REMARK    9  A    between atoms: C_19  and  O_20
REMARK   10  A    between atoms: C_21  and  O_22
REMARK   11  A    between atoms: C_23  and  O_24
REMARK                            x       y       z     vdW  Elec       q    Type
REMARK                         _______ _______ _______ _____ _____    ______ ____
ROOT
ATOM      1  C   UNL     1       1.457   8.809  19.089  0.00  0.00    +0.000 A 
ATOM      2  C   UNL     1       1.084   9.031  20.420  0.00  0.00    +0.000 A 
ATOM      3  C   UNL     1       1.260   8.032  21.374  0.00  0.00    +0.000 A 
ATOM      4  C   UNL     1       1.820   6.814  21.001  0.00  0.00    +0.000 A 
ATOM      5  C   UNL     1       2.210   6.575  19.669  0.00  0.00    +0.000 A 
ATOM      6  C   UNL     1       2.009   7.573  18.718  0.00  0.00    +0.000 A 
ENDROOT
BRANCH   5   7
ATOM      7  C   UNL     1       2.864   5.259  19.318  0.00  0.00    +0.000 C 
ATOM      8  O   UNL     1       2.478   4.233  20.251  0.00  0.00    +0.000 OA
ATOM      9  C   UNL     1       2.751   2.930  19.739  0.00  0.00    +0.000 C 
ATOM     10  C   UNL     1       4.249   2.750  19.375  0.00  0.00    +0.000 C 
ATOM     11  C   UNL     1       4.792   3.947  18.572  0.00  0.00    +0.000 C 
ATOM     12  C   UNL     1       4.399   5.268  19.260  0.00  0.00    +0.000 C 
BRANCH   9  13
ATOM     13  O   UNL     1       1.933   2.668  18.589  0.00  0.00    +0.000 OA
ATOM     14  C   UNL     1       0.564   2.517  18.964  0.00  0.00    +0.000 C 
ENDBRANCH   9  13
BRANCH  10  15
ATOM     15  O   UNL     1       4.446   1.526  18.652  0.00  0.00    +0.000 OA
ATOM     16  H   UNL     1       5.299   1.162  18.956  0.00  0.00    +0.000 HD
ENDBRANCH  10  15
BRANCH  11  17
ATOM     17  O   UNL     1       6.211   3.850  18.401  0.00  0.00    +0.000 OA
ATOM     18  H   UNL     1       6.632   3.930  19.275  0.00  0.00    +0.000 HD
ENDBRANCH  11  17
BRANCH  12  19
ATOM     19  O   UNL     1       4.966   6.375  18.563  0.00  0.00    +0.000 OA
ATOM     20  H   UNL     1       4.616   7.197  18.945  0.00  0.00    +0.000 HD
ENDBRANCH  12  19
ENDBRANCH   5   7
BRANCH   1  21
ATOM     21  C   UNL     1       1.223   9.865  18.035  0.00  0.00    +0.000 C 
BRANCH  21  25
ATOM     22  C   UNL     1      -2.846  11.309  17.903  0.00  0.00    +0.000 A 
ATOM     23  C   UNL     1      -1.858  12.048  18.553  0.00  0.00    +0.000 A 
ATOM     24  C   UNL     1      -0.545  11.585  18.593  0.00  0.00    +0.000 A 
ATOM     25  C   UNL     1      -0.204  10.361  18.002  0.00  0.00    +0.000 A 
ATOM     26  C   UNL     1      -1.210   9.601  17.392  0.00  0.00    +0.000 A 
ATOM     27  C   UNL     1      -2.526  10.070  17.348  0.00  0.00    +0.000 A 
BRANCH  22  28
ATOM     28  O   UNL     1      -4.084  11.887  17.886  0.00  0.00    +0.000 OA
BRANCH  28  30
ATOM     29  C   UNL     1      -6.108  11.512  19.081  0.00  0.00    +0.000 C 
ATOM     30  C   UNL     1      -5.188  10.989  17.992  0.00  0.00    +0.000 C 
ENDBRANCH  28  30
ENDBRANCH  22  28
ENDBRANCH  21  25
ENDBRANCH   1  21
TORSDOF 9
ENDMDL
MODEL 6
REMARK VINA RESULT:      -7.1      1.296      2.339
REMARK  Name = 
REMARK  11 active torsions:
REMARK  status: ('A' for Active; 'I' for Inactive)
REMARK    1  A    between atoms: C_1  and  C_2
REMARK    2  A    between atoms: C_2  and  O_3
REMARK    3  A    between atoms: O_3  and  C_4
REMARK    4  A    between atoms: C_7  and  C_8
REMARK    5  A    between atoms: C_8  and  C_9
REMARK    6  A    between atoms: C_13  and  C_14
REMARK    7  A    between atoms: C_16  and  O_17
REMARK    8  A    between atoms: O_17  and  C_18
REMARK    9  A    between atoms: C_19  and  O_20
REMARK   10  A    between atoms: C_21  and  O_22
REMARK   11  A    between atoms: C_23  and  O_24
REMARK                            x       y       z     vdW  Elec       q    Type
REMARK                         _______ _______ _______ _____ _____    ______ ____
ROOT
ATOM      1  C   UNL     1       1.516   9.122  19.059  0.00  0.00    +0.000 A 
ATOM      2  C   UNL     1       1.130   8.765  20.356  0.00  0.00    +0.000 A 
ATOM      3  C   UNL     1       1.466   7.514  20.870  0.00  0.00    +0.000 A 
ATOM      4  C   UNL     1       2.198   6.623  20.091  0.00  0.00    +0.000 A 
ATOM      5  C   UNL     1       2.603   6.967  18.787  0.00  0.00    +0.000 A 
ATOM      6  C   UNL     1       2.244   8.212  18.275  0.00  0.00    +0.000 A 
ENDROOT
BRANCH   5   7
ATOM      7  C   UNL     1       3.444   5.993  17.995  0.00  0.00    +0.000 C 
ATOM      8  O   UNL     1       4.066   5.031  18.868  0.00  0.00    +0.000 OA
ATOM      9  C   UNL     1       4.533   3.893  18.146  0.00  0.00    +0.000 C 
ATOM     10  C   UNL     1       5.532   4.285  17.024  0.00  0.00    +0.000 C 
ATOM     11  C   UNL     1       5.024   5.481  16.197  0.00  0.00    +0.000 C 
ATOM     12  C   UNL     1       4.554   6.611  17.133  0.00  0.00    +0.000 C 
BRANCH   9  13
ATOM     13  O   UNL     1       3.424   3.174  17.585  0.00  0.00    +0.000 OA
ATOM     14  C   UNL     1       3.105   2.033  18.380  0.00  0.00    +0.000 C 
ENDBRANCH   9  13
BRANCH  10  15
ATOM     15  O   UNL     1       5.798   3.160  16.175  0.00  0.00    +0.000 OA
ATOM     16  H   UNL     1       5.354   2.395  16.587  0.00  0.00    +0.000 HD
ENDBRANCH  10  15
BRANCH  11  17
ATOM     17  O   UNL     1       6.032   5.942  15.288  0.00  0.00    +0.000 OA
ATOM     18  H   UNL     1       5.945   6.907  15.197  0.00  0.00    +0.000 HD
ENDBRANCH  11  17
BRANCH  12  19
ATOM     19  O   UNL     1       4.157   7.750  16.371  0.00  0.00    +0.000 OA
ATOM     20  H   UNL     1       3.688   7.445  15.577  0.00  0.00    +0.000 HD
ENDBRANCH  12  19
ENDBRANCH   5   7
BRANCH   1  21
ATOM     21  C   UNL     1       1.114  10.454  18.472  0.00  0.00    +0.000 C 
BRANCH  21  25
ATOM     22  C   UNL     1      -3.162  10.997  18.188  0.00  0.00    +0.000 A 
ATOM     23  C   UNL     1      -2.405  11.806  19.034  0.00  0.00    +0.000 A 
ATOM     24  C   UNL     1      -1.025  11.634  19.124  0.00  0.00    +0.000 A 
ATOM     25  C   UNL     1      -0.383  10.632  18.383  0.00  0.00    +0.000 A 
ATOM     26  C   UNL     1      -1.156   9.792  17.571  0.00  0.00    +0.000 A 
ATOM     27  C   UNL     1      -2.539   9.971  17.478  0.00  0.00    +0.000 A 
BRANCH  22  28
ATOM     28  O   UNL     1      -4.495  11.292  18.145  0.00  0.00    +0.000 OA
BRANCH  28  30
ATOM     29  C   UNL     1      -6.200  12.659  17.202  0.00  0.00    +0.000 C 
ATOM     30  C   UNL     1      -4.974  11.815  16.907  0.00  0.00    +0.000 C 
ENDBRANCH  28  30
ENDBRANCH  22  28
ENDBRANCH  21  25
ENDBRANCH   1  21
TORSDOF 9
ENDMDL
MODEL 7
REMARK VINA RESULT:      -7.0      2.682      3.730
REMARK  Name = 
REMARK  11 active torsions:
REMARK  status: ('A' for Active; 'I' for Inactive)
REMARK    1  A    between atoms: C_1  and  C_2
REMARK    2  A    between atoms: C_2  and  O_3
REMARK    3  A    between atoms: O_3  and  C_4
REMARK    4  A    between atoms: C_7  and  C_8
REMARK    5  A    between atoms: C_8  and  C_9
REMARK    6  A    between atoms: C_13  and  C_14
REMARK    7  A    between atoms: C_16  and  O_17
REMARK    8  A    between atoms: O_17  and  C_18
REMARK    9  A    between atoms: C_19  and  O_20
REMARK   10  A    between atoms: C_21  and  O_22
REMARK   11  A    between atoms: C_23  and  O_24
REMARK                            x       y       z     vdW  Elec       q    Type
REMARK                         _______ _______ _______ _____ _____    ______ ____
ROOT
ATOM      1  C   UNL     1       1.198   8.974  19.903  0.00  0.00    +0.000 A 
ATOM      2  C   UNL     1       1.319   9.523  18.621  0.00  0.00    +0.000 A 
ATOM      3  C   UNL     1       2.064   8.867  17.643  0.00  0.00    +0.000 A 
ATOM      4  C   UNL     1       2.680   7.656  17.943  0.00  0.00    +0.000 A 
ATOM      5  C   UNL     1       2.563   7.083  19.224  0.00  0.00    +0.000 A 
ATOM      6  C   UNL     1       1.833   7.758  20.201  0.00  0.00    +0.000 A 
ENDROOT
BRANCH   5   7
ATOM      7  C   UNL     1       3.200   5.740  19.492  0.00  0.00    +0.000 C 
ATOM      8  O   UNL     1       4.060   5.359  18.402  0.00  0.00    +0.000 OA
ATOM      9  C   UNL     1       4.958   4.317  18.783  0.00  0.00    +0.000 C 
ATOM     10  C   UNL     1       4.206   3.062  19.302  0.00  0.00    +0.000 C 
ATOM     11  C   UNL     1       3.096   3.432  20.303  0.00  0.00    +0.000 C 
ATOM     12  C   UNL     1       2.230   4.574  19.737  0.00  0.00    +0.000 C 
BRANCH   9  13
ATOM     13  O   UNL     1       5.869   4.791  19.785  0.00  0.00    +0.000 OA
ATOM     14  C   UNL     1       6.933   5.535  19.192  0.00  0.00    +0.000 C 
ENDBRANCH   9  13
BRANCH  10  15
ATOM     15  O   UNL     1       5.128   2.133  19.890  0.00  0.00    +0.000 OA
ATOM     16  H   UNL     1       5.517   1.628  19.152  0.00  0.00    +0.000 HD
ENDBRANCH  10  15
BRANCH  11  17
ATOM     17  O   UNL     1       2.299   2.288  20.633  0.00  0.00    +0.000 OA
ATOM     18  H   UNL     1       2.038   1.846  19.805  0.00  0.00    +0.000 HD
ENDBRANCH  11  17
BRANCH  12  19
ATOM     19  O   UNL     1       1.154   4.866  20.626  0.00  0.00    +0.000 OA
ATOM     20  H   UNL     1       1.379   4.529  21.508  0.00  0.00    +0.000 HD
ENDBRANCH  12  19
ENDBRANCH   5   7
BRANCH   1  21
ATOM     21  C   UNL     1       0.437   9.701  20.986  0.00  0.00    +0.000 C 
BRANCH  21  25
ATOM     22  C   UNL     1      -0.516  13.793  19.985  0.00  0.00    +0.000 A 
ATOM     23  C   UNL     1      -1.453  12.782  19.778  0.00  0.00    +0.000 A 
ATOM     24  C   UNL     1      -1.148  11.462  20.105  0.00  0.00    +0.000 A 
ATOM     25  C   UNL     1       0.111  11.130  20.621  0.00  0.00    +0.000 A 
ATOM     26  C   UNL     1       1.065  12.143  20.782  0.00  0.00    +0.000 A 
ATOM     27  C   UNL     1       0.755  13.468  20.460  0.00  0.00    +0.000 A 
BRANCH  22  28
ATOM     28  O   UNL     1      -0.945  15.052  19.676  0.00  0.00    +0.000 OA
BRANCH  28  30
ATOM     29  C   UNL     1      -0.612  16.957  18.287  0.00  0.00    +0.000 C 
ATOM     30  C   UNL     1       0.058  15.951  19.205  0.00  0.00    +0.000 C 
ENDBRANCH  28  30
ENDBRANCH  22  28
ENDBRANCH  21  25
ENDBRANCH   1  21
TORSDOF 9
ENDMDL
MODEL 8
REMARK VINA RESULT:      -7.0      1.062      2.387
REMARK  Name = 
REMARK  11 active torsions:
REMARK  status: ('A' for Active; 'I' for Inactive)
REMARK    1  A    between atoms: C_1  and  C_2
REMARK    2  A    between atoms: C_2  and  O_3
REMARK    3  A    between atoms: O_3  and  C_4
REMARK    4  A    between atoms: C_7  and  C_8
REMARK    5  A    between atoms: C_8  and  C_9
REMARK    6  A    between atoms: C_13  and  C_14
REMARK    7  A    between atoms: C_16  and  O_17
REMARK    8  A    between atoms: O_17  and  C_18
REMARK    9  A    between atoms: C_19  and  O_20
REMARK   10  A    between atoms: C_21  and  O_22
REMARK   11  A    between atoms: C_23  and  O_24
REMARK                            x       y       z     vdW  Elec       q    Type
REMARK                         _______ _______ _______ _____ _____    ______ ____
ROOT
ATOM      1  C   UNL     1       1.414   9.227  19.160  0.00  0.00    +0.000 A 
ATOM      2  C   UNL     1       1.022   8.864  20.454  0.00  0.00    +0.000 A 
ATOM      3  C   UNL     1       1.349   7.608  20.961  0.00  0.00    +0.000 A 
ATOM      4  C   UNL     1       2.079   6.718  20.179  0.00  0.00    +0.000 A 
ATOM      5  C   UNL     1       2.491   7.068  18.879  0.00  0.00    +0.000 A 
ATOM      6  C   UNL     1       2.139   8.318  18.373  0.00  0.00    +0.000 A 
ENDROOT
BRANCH   5   7
ATOM      7  C   UNL     1       3.329   6.095  18.084  0.00  0.00    +0.000 C 
ATOM      8  O   UNL     1       3.945   5.126  18.954  0.00  0.00    +0.000 OA
ATOM      9  C   UNL     1       4.409   3.990  18.226  0.00  0.00    +0.000 C 
ATOM     10  C   UNL     1       5.412   4.383  17.109  0.00  0.00    +0.000 C 
ATOM     11  C   UNL     1       4.912   5.586  16.287  0.00  0.00    +0.000 C 
ATOM     12  C   UNL     1       4.444   6.713  17.227  0.00  0.00    +0.000 C 
BRANCH   9  13
ATOM     13  O   UNL     1       3.299   3.279  17.659  0.00  0.00    +0.000 OA
ATOM     14  C   UNL     1       3.105   2.029  18.320  0.00  0.00    +0.000 C 
ENDBRANCH   9  13
BRANCH  10  15
ATOM     15  O   UNL     1       5.676   3.262  16.254  0.00  0.00    +0.000 OA
ATOM     16  H   UNL     1       5.082   2.546  16.550  0.00  0.00    +0.000 HD
ENDBRANCH  10  15
BRANCH  11  17
ATOM     17  O   UNL     1       5.924   6.047  15.383  0.00  0.00    +0.000 OA
ATOM     18  H   UNL     1       5.495   6.307  14.548  0.00  0.00    +0.000 HD
ENDBRANCH  11  17
BRANCH  12  19
ATOM     19  O   UNL     1       4.054   7.857  16.471  0.00  0.00    +0.000 OA
ATOM     20  H   UNL     1       4.050   8.632  17.057  0.00  0.00    +0.000 HD
ENDBRANCH  12  19
ENDBRANCH   5   7
BRANCH   1  21
ATOM     21  C   UNL     1       1.020  10.564  18.581  0.00  0.00    +0.000 C 
BRANCH  21  25
ATOM     22  C   UNL     1      -3.239  10.894  17.938  0.00  0.00    +0.000 A 
ATOM     23  C   UNL     1      -2.507   9.894  17.300  0.00  0.00    +0.000 A 
ATOM     24  C   UNL     1      -1.133   9.784  17.510  0.00  0.00    +0.000 A 
ATOM     25  C   UNL     1      -0.467  10.691  18.344  0.00  0.00    +0.000 A 
ATOM     26  C   UNL     1      -1.200  11.722  18.945  0.00  0.00    +0.000 A 
ATOM     27  C   UNL     1      -2.578  11.827  18.738  0.00  0.00    +0.000 A 
BRANCH  22  28
ATOM     28  O   UNL     1      -4.583  10.871  17.696  0.00  0.00    +0.000 OA
BRANCH  28  30
ATOM     29  C   UNL     1      -6.830  10.899  18.480  0.00  0.00    +0.000 C 
ATOM     30  C   UNL     1      -5.410  11.363  18.750  0.00  0.00    +0.000 C 
ENDBRANCH  28  30
ENDBRANCH  22  28
ENDBRANCH  21  25
ENDBRANCH   1  21
TORSDOF 9
ENDMDL
MODEL 9
REMARK VINA RESULT:      -6.9      1.673      2.395
REMARK  Name = 
REMARK  11 active torsions:
REMARK  status: ('A' for Active; 'I' for Inactive)
REMARK    1  A    between atoms: C_1  and  C_2
REMARK    2  A    between atoms: C_2  and  O_3
REMARK    3  A    between atoms: O_3  and  C_4
REMARK    4  A    between atoms: C_7  and  C_8
REMARK    5  A    between atoms: C_8  and  C_9
REMARK    6  A    between atoms: C_13  and  C_14
REMARK    7  A    between atoms: C_16  and  O_17
REMARK    8  A    between atoms: O_17  and  C_18
REMARK    9  A    between atoms: C_19  and  O_20
REMARK   10  A    between atoms: C_21  and  O_22
REMARK   11  A    between atoms: C_23  and  O_24
REMARK                            x       y       z     vdW  Elec       q    Type
REMARK                         _______ _______ _______ _____ _____    ______ ____
ROOT
ATOM      1  C   UNL     1       1.350   9.019  19.629  0.00  0.00    +0.000 A 
ATOM      2  C   UNL     1       1.608   9.559  18.363  0.00  0.00    +0.000 A 
ATOM      3  C   UNL     1       2.428   8.881  17.464  0.00  0.00    +0.000 A 
ATOM      4  C   UNL     1       2.983   7.658  17.824  0.00  0.00    +0.000 A 
ATOM      5  C   UNL     1       2.729   7.093  19.089  0.00  0.00    +0.000 A 
ATOM      6  C   UNL     1       1.924   7.789  19.990  0.00  0.00    +0.000 A 
ENDROOT
BRANCH   5   7
ATOM      7  C   UNL     1       3.305   5.737  19.420  0.00  0.00    +0.000 C 
ATOM      8  O   UNL     1       4.161   5.275  18.358  0.00  0.00    +0.000 OA
ATOM      9  C   UNL     1       5.009   4.213  18.794  0.00  0.00    +0.000 C 
ATOM     10  C   UNL     1       4.198   3.013  19.354  0.00  0.00    +0.000 C 
ATOM     11  C   UNL     1       3.094   3.471  20.324  0.00  0.00    +0.000 C 
ATOM     12  C   UNL     1       2.284   4.624  19.700  0.00  0.00    +0.000 C 
BRANCH   9  13
ATOM     13  O   UNL     1       5.928   4.690  19.787  0.00  0.00    +0.000 OA
ATOM     14  C   UNL     1       6.960   5.475  19.190  0.00  0.00    +0.000 C 
ENDBRANCH   9  13
BRANCH  10  15
ATOM     15  O   UNL     1       5.073   2.072  19.993  0.00  0.00    +0.000 OA
ATOM     16  H   UNL     1       5.969   2.259  19.655  0.00  0.00    +0.000 HD
ENDBRANCH  10  15
BRANCH  11  17
ATOM     17  O   UNL     1       2.245   2.376  20.690  0.00  0.00    +0.000 OA
ATOM     18  H   UNL     1       2.201   1.757  19.940  0.00  0.00    +0.000 HD
ENDBRANCH  11  17
BRANCH  12  19
ATOM     19  O   UNL     1       1.211   4.997  20.562  0.00  0.00    +0.000 OA
ATOM     20  H   UNL     1       1.219   4.415  21.340  0.00  0.00    +0.000 HD
ENDBRANCH  12  19
ENDBRANCH   5   7
BRANCH   1  21
ATOM     21  C   UNL     1       0.505   9.768  20.631  0.00  0.00    +0.000 C 
BRANCH  21  25
ATOM     22  C   UNL     1      -2.928  11.701  18.862  0.00  0.00    +0.000 A 
ATOM     23  C   UNL     1      -2.402  10.543  18.292  0.00  0.00    +0.000 A 
ATOM     24  C   UNL     1      -1.297   9.916  18.865  0.00  0.00    +0.000 A 
ATOM     25  C   UNL     1      -0.685  10.454  20.004  0.00  0.00    +0.000 A 
ATOM     26  C   UNL     1      -1.189  11.644  20.544  0.00  0.00    +0.000 A 
ATOM     27  C   UNL     1      -2.302  12.268  19.972  0.00  0.00    +0.000 A 
BRANCH  22  28
ATOM     28  O   UNL     1      -4.041  12.196  18.244  0.00  0.00    +0.000 OA
BRANCH  28  30
ATOM     29  C   UNL     1      -6.229  11.328  17.888  0.00  0.00    +0.000 C 
ATOM     30  C   UNL     1      -4.776  11.264  17.452  0.00  0.00    +0.000 C 
ENDBRANCH  28  30
ENDBRANCH  22  28
ENDBRANCH  21  25
ENDBRANCH   1  21
TORSDOF 9
ENDMDL
