MODEL 1
REMARK VINA RESULT:      -6.6      0.000      0.000
REMARK  Name = 
REMARK  10 active torsions:
REMARK  status: ('A' for Active; 'I' for Inactive)
REMARK    1  A    between atoms: C_1  and  S_2
REMARK    2  A    between atoms: S_2  and  C_3
REMARK    3  A    between atoms: C_5  and  S_6
REMARK    4  A    between atoms: S_6  and  C_7
REMARK    5  A    between atoms: C_9  and  C_10
REMARK    6  A    between atoms: N_12  and  C_13
REMARK    7  A    between atoms: C_15  and  C_16
REMARK    8  A    between atoms: C_17  and  O_18
REMARK    9  A    between atoms: C_19  and  O_20
REMARK   10  A    between atoms: C_21  and  O_22
REMARK                            x       y       z     vdW  Elec       q    Type
REMARK                         _______ _______ _______ _____ _____    ______ ____
ROOT
ATOM      1  C   UNL     1       1.880   6.698  20.204  0.00  0.00    +0.000 A 
ATOM      2  N   UNL     1       1.377   5.610  20.813  0.00  0.00    +0.000 NA
ATOM      3  C   UNL     1       1.648   4.393  20.295  0.00  0.00    +0.000 A 
ATOM      4  C   UNL     1       2.433   4.279  19.132  0.00  0.00    +0.000 A 
ATOM      5  C   UNL     1       2.943   3.242  18.277  0.00  0.00    +0.000 A 
ATOM      6  C   UNL     1       2.805   1.761  18.366  0.00  0.00    +0.000 C 
ATOM      7  C   UNL     1       3.668   3.869  17.280  0.00  0.00    +0.000 A 
ATOM      8  N   UNL     1       3.684   5.226  17.513  0.00  0.00    +0.000 N 
ATOM      9  C   UNL     1       2.907   5.483  18.617  0.00  0.00    +0.000 A 
ATOM     10  N   UNL     1       2.652   6.702  19.111  0.00  0.00    +0.000 NA
ENDROOT
BRANCH   8  11
ATOM     11  C   UNL     1       4.541   6.152  16.769  0.00  0.00    +0.000 C 
ATOM     12  O   UNL     1       5.655   6.579  17.601  0.00  0.00    +0.000 OA
ATOM     13  C   UNL     1       6.652   5.566  17.811  0.00  0.00    +0.000 C 
ATOM     14  C   UNL     1       7.664   6.121  18.811  0.00  0.00    +0.000 C 
ATOM     15  C   UNL     1       7.289   5.176  16.465  0.00  0.00    +0.000 C 
ATOM     16  C   UNL     1       6.186   4.693  15.508  0.00  0.00    +0.000 C 
ATOM     17  C   UNL     1       5.063   5.739  15.374  0.00  0.00    +0.000 C 
BRANCH  15  18
ATOM     18  O   UNL     1       7.950   6.290  15.835  0.00  0.00    +0.000 OA
ATOM     19  H   UNL     1       7.837   6.228  14.871  0.00  0.00    +0.000 HD
ENDBRANCH  15  18
BRANCH  16  20
ATOM     20  O   UNL     1       6.757   4.422  14.223  0.00  0.00    +0.000 OA
ATOM     21  H   UNL     1       7.388   5.155  14.071  0.00  0.00    +0.000 HD
ENDBRANCH  16  20
BRANCH  17  22
ATOM     22  O   UNL     1       5.548   6.917  14.684  0.00  0.00    +0.000 OA
ATOM     23  H   UNL     1       6.513   6.813  14.581  0.00  0.00    +0.000 HD
ENDBRANCH  17  22
ENDBRANCH   8  11
BRANCH   1  25
ATOM     24  C   UNL     1       1.162   9.271  19.466  0.00  0.00    +0.000 C 
ATOM     25  S   UNL     1       1.455   8.264  20.944  0.00  0.00    +0.000 S 
ENDBRANCH   1  25
BRANCH   3  26
ATOM     26  S   UNL     1       1.006   2.937  21.075  0.00  0.00    +0.000 S 
ATOM     27  C   UNL     1       2.478   2.246  21.869  0.00  0.00    +0.000 C 
ENDBRANCH   3  26
TORSDOF 6
ENDMDL
MODEL 2
REMARK VINA RESULT:      -6.3      1.764      3.917
REMARK  Name = 
REMARK  10 active torsions:
REMARK  status: ('A' for Active; 'I' for Inactive)
REMARK    1  A    between atoms: C_1  and  S_2
REMARK    2  A    between atoms: S_2  and  C_3
REMARK    3  A    between atoms: C_5  and  S_6
REMARK    4  A    between atoms: S_6  and  C_7
REMARK    5  A    between atoms: C_9  and  C_10
REMARK    6  A    between atoms: N_12  and  C_13
REMARK    7  A    between atoms: C_15  and  C_16
REMARK    8  A    between atoms: C_17  and  O_18
REMARK    9  A    between atoms: C_19  and  O_20
REMARK   10  A    between atoms: C_21  and  O_22
REMARK                            x       y       z     vdW  Elec       q    Type
REMARK                         _______ _______ _______ _____ _____    ______ ____
ROOT
ATOM      1  C   UNL     1       2.182   5.428  20.568  0.00  0.00    +0.000 A 
ATOM      2  N   UNL     1       1.326   6.350  21.043  0.00  0.00    +0.000 NA
ATOM      3  C   UNL     1       1.239   7.540  20.411  0.00  0.00    +0.000 A 
ATOM      4  C   UNL     1       2.045   7.804  19.289  0.00  0.00    +0.000 A 
ATOM      5  C   UNL     1       2.274   8.877  18.359  0.00  0.00    +0.000 A 
ATOM      6  C   UNL     1       1.638  10.221  18.257  0.00  0.00    +0.000 C 
ATOM      7  C   UNL     1       3.241   8.436  17.473  0.00  0.00    +0.000 A 
ATOM      8  N   UNL     1       3.570   7.132  17.770  0.00  0.00    +0.000 N 
ATOM      9  C   UNL     1       2.871   6.756  18.892  0.00  0.00    +0.000 A 
ATOM     10  N   UNL     1       2.976   5.567  19.501  0.00  0.00    +0.000 NA
ENDROOT
BRANCH   8  11
ATOM     11  C   UNL     1       4.401   6.302  16.896  0.00  0.00    +0.000 C 
ATOM     12  O   UNL     1       5.659   6.977  16.615  0.00  0.00    +0.000 OA
ATOM     13  C   UNL     1       6.570   7.005  17.726  0.00  0.00    +0.000 C 
ATOM     14  C   UNL     1       7.764   7.865  17.316  0.00  0.00    +0.000 C 
ATOM     15  C   UNL     1       6.967   5.569  18.110  0.00  0.00    +0.000 C 
ATOM     16  C   UNL     1       5.696   4.768  18.441  0.00  0.00    +0.000 C 
ATOM     17  C   UNL     1       4.676   4.833  17.289  0.00  0.00    +0.000 C 
BRANCH  15  18
ATOM     18  O   UNL     1       7.640   4.886  17.035  0.00  0.00    +0.000 OA
ATOM     19  H   UNL     1       8.183   5.522  16.539  0.00  0.00    +0.000 HD
ENDBRANCH  15  18
BRANCH  16  20
ATOM     20  O   UNL     1       6.050   3.404  18.703  0.00  0.00    +0.000 OA
ATOM     21  H   UNL     1       5.412   3.107  19.384  0.00  0.00    +0.000 HD
ENDBRANCH  16  20
BRANCH  17  22
ATOM     22  O   UNL     1       5.174   4.119  16.131  0.00  0.00    +0.000 OA
ATOM     23  H   UNL     1       5.844   3.485  16.450  0.00  0.00    +0.000 HD
ENDBRANCH  17  22
ENDBRANCH   8  11
BRANCH   1  25
ATOM     24  C   UNL     1       1.162   2.853  20.461  0.00  0.00    +0.000 C 
ATOM     25  S   UNL     1       2.245   3.894  21.475  0.00  0.00    +0.000 S 
ENDBRANCH   1  25
BRANCH   3  26
ATOM     26  S   UNL     1       0.116   8.776  21.005  0.00  0.00    +0.000 S 
ATOM     27  C   UNL     1       0.895   9.289  22.556  0.00  0.00    +0.000 C 
ENDBRANCH   3  26
TORSDOF 6
ENDMDL
MODEL 3
REMARK VINA RESULT:      -6.2      1.969      2.965
REMARK  Name = 
REMARK  10 active torsions:
REMARK  status: ('A' for Active; 'I' for Inactive)
REMARK    1  A    between atoms: C_1  and  S_2
REMARK    2  A    between atoms: S_2  and  C_3
REMARK    3  A    between atoms: C_5  and  S_6
REMARK    4  A    between atoms: S_6  and  C_7
REMARK    5  A    between atoms: C_9  and  C_10
REMARK    6  A    between atoms: N_12  and  C_13
REMARK    7  A    between atoms: C_15  and  C_16
REMARK    8  A    between atoms: C_17  and  O_18
REMARK    9  A    between atoms: C_19  and  O_20
REMARK   10  A    between atoms: C_21  and  O_22
REMARK                            x       y       z     vdW  Elec       q    Type
REMARK                         _______ _______ _______ _____ _____    ______ ____
ROOT
ATOM      1  C   UNL     1       2.173   9.617  18.435  0.00  0.00    +0.000 A 
ATOM      2  N   UNL     1       1.447   9.371  19.539  0.00  0.00    +0.000 NA
ATOM      3  C   UNL     1       1.492   8.136  20.083  0.00  0.00    +0.000 A 
ATOM      4  C   UNL     1       2.276   7.131  19.488  0.00  0.00    +0.000 A 
ATOM      5  C   UNL     1       2.601   5.748  19.710  0.00  0.00    +0.000 A 
ATOM      6  C   UNL     1       2.174   4.817  20.792  0.00  0.00    +0.000 C 
ATOM      7  C   UNL     1       3.467   5.374  18.698  0.00  0.00    +0.000 A 
ATOM      8  N   UNL     1       3.740   6.467  17.906  0.00  0.00    +0.000 N 
ATOM      9  C   UNL     1       2.993   7.527  18.361  0.00  0.00    +0.000 A 
ATOM     10  N   UNL     1       2.965   8.744  17.803  0.00  0.00    +0.000 NA
ENDROOT
BRANCH   8  11
ATOM     11  C   UNL     1       4.785   6.465  16.880  0.00  0.00    +0.000 C 
ATOM     12  O   UNL     1       6.072   6.787  17.478  0.00  0.00    +0.000 OA
ATOM     13  C   UNL     1       6.627   5.730  18.278  0.00  0.00    +0.000 C 
ATOM     14  C   UNL     1       7.890   6.276  18.942  0.00  0.00    +0.000 C 
ATOM     15  C   UNL     1       6.895   4.498  17.398  0.00  0.00    +0.000 C 
ATOM     16  C   UNL     1       5.582   4.065  16.724  0.00  0.00    +0.000 C 
ATOM     17  C   UNL     1       4.934   5.234  15.959  0.00  0.00    +0.000 C 
BRANCH  15  18
ATOM     18  O   UNL     1       7.847   4.774  16.351  0.00  0.00    +0.000 OA
ATOM     19  H   UNL     1       8.439   5.490  16.636  0.00  0.00    +0.000 HD
ENDBRANCH  15  18
BRANCH  16  20
ATOM     20  O   UNL     1       5.843   2.980  15.827  0.00  0.00    +0.000 OA
ATOM     21  H   UNL     1       5.238   3.128  15.072  0.00  0.00    +0.000 HD
ENDBRANCH  16  20
BRANCH  17  22
ATOM     22  O   UNL     1       5.741   5.598  14.811  0.00  0.00    +0.000 OA
ATOM     23  H   UNL     1       6.565   5.077  14.862  0.00  0.00    +0.000 HD
ENDBRANCH  17  22
ENDBRANCH   8  11
BRANCH   1  25
ATOM     24  C   UNL     1       1.242  12.126  19.160  0.00  0.00    +0.000 C 
ATOM     25  S   UNL     1       2.038  11.269  17.775  0.00  0.00    +0.000 S 
ENDBRANCH   1  25
BRANCH   3  26
ATOM     26  S   UNL     1       0.552   7.777  21.542  0.00  0.00    +0.000 S 
ATOM     27  C   UNL     1       0.608   9.354  22.431  0.00  0.00    +0.000 C 
ENDBRANCH   3  26
TORSDOF 6
ENDMDL
MODEL 4
REMARK VINA RESULT:      -5.7      2.864      5.548
REMARK  Name = 
REMARK  10 active torsions:
REMARK  status: ('A' for Active; 'I' for Inactive)
REMARK    1  A    between atoms: C_1  and  S_2
REMARK    2  A    between atoms: S_2  and  C_3
REMARK    3  A    between atoms: C_5  and  S_6
REMARK    4  A    between atoms: S_6  and  C_7
REMARK    5  A    between atoms: C_9  and  C_10
REMARK    6  A    between atoms: N_12  and  C_13
REMARK    7  A    between atoms: C_15  and  C_16
REMARK    8  A    between atoms: C_17  and  O_18
REMARK    9  A    between atoms: C_19  and  O_20
REMARK   10  A    between atoms: C_21  and  O_22
REMARK                            x       y       z     vdW  Elec       q    Type
REMARK                         _______ _______ _______ _____ _____    ______ ____
ROOT
ATOM      1  C   UNL     1       3.849   7.204  17.066  0.00  0.00    +0.000 A 
ATOM      2  N   UNL     1       3.294   8.417  17.237  0.00  0.00    +0.000 NA
ATOM      3  C   UNL     1       2.499   8.621  18.310  0.00  0.00    +0.000 A 
ATOM      4  C   UNL     1       2.254   7.573  19.216  0.00  0.00    +0.000 A 
ATOM      5  C   UNL     1       1.511   7.351  20.427  0.00  0.00    +0.000 A 
ATOM      6  C   UNL     1       0.668   8.283  21.228  0.00  0.00    +0.000 C 
ATOM      7  C   UNL     1       1.728   6.035  20.792  0.00  0.00    +0.000 A 
ATOM      8  N   UNL     1       2.612   5.458  19.908  0.00  0.00    +0.000 N 
ATOM      9  C   UNL     1       2.908   6.377  18.931  0.00  0.00    +0.000 A 
ATOM     10  N   UNL     1       3.700   6.149  17.875  0.00  0.00    +0.000 NA
ENDROOT
BRANCH   8  11
ATOM     11  C   UNL     1       3.218   4.143  20.133  0.00  0.00    +0.000 C 
ATOM     12  O   UNL     1       2.191   3.113  20.124  0.00  0.00    +0.000 OA
ATOM     13  C   UNL     1       1.660   2.827  18.819  0.00  0.00    +0.000 C 
ATOM     14  C   UNL     1       0.506   1.842  19.002  0.00  0.00    +0.000 C 
ATOM     15  C   UNL     1       2.776   2.283  17.911  0.00  0.00    +0.000 C 
ATOM     16  C   UNL     1       3.916   3.313  17.843  0.00  0.00    +0.000 C 
ATOM     17  C   UNL     1       4.406   3.700  19.250  0.00  0.00    +0.000 C 
BRANCH  15  18
ATOM     18  O   UNL     1       3.335   1.053  18.414  0.00  0.00    +0.000 OA
ATOM     19  H   UNL     1       2.621   0.407  18.549  0.00  0.00    +0.000 HD
ENDBRANCH  15  18
BRANCH  16  20
ATOM     20  O   UNL     1       5.000   2.772  17.079  0.00  0.00    +0.000 OA
ATOM     21  H   UNL     1       5.769   3.335  17.304  0.00  0.00    +0.000 HD
ENDBRANCH  16  20
BRANCH  17  22
ATOM     22  O   UNL     1       5.070   2.577  19.882  0.00  0.00    +0.000 OA
ATOM     23  H   UNL     1       5.815   2.322  19.305  0.00  0.00    +0.000 HD
ENDBRANCH  17  22
ENDBRANCH   8  11
BRANCH   1  25
ATOM     24  C   UNL     1       6.175   5.937  16.249  0.00  0.00    +0.000 C 
ATOM     25  S   UNL     1       4.867   7.019  15.614  0.00  0.00    +0.000 S 
ENDBRANCH   1  25
BRANCH   3  26
ATOM     26  S   UNL     1       1.756  10.209  18.570  0.00  0.00    +0.000 S 
ATOM     27  C   UNL     1       0.055   9.931  18.018  0.00  0.00    +0.000 C 
ENDBRANCH   3  26
TORSDOF 6
ENDMDL
MODEL 5
REMARK VINA RESULT:      -5.6      7.893     10.454
REMARK  Name = 
REMARK  10 active torsions:
REMARK  status: ('A' for Active; 'I' for Inactive)
REMARK    1  A    between atoms: C_1  and  S_2
REMARK    2  A    between atoms: S_2  and  C_3
REMARK    3  A    between atoms: C_5  and  S_6
REMARK    4  A    between atoms: S_6  and  C_7
REMARK    5  A    between atoms: C_9  and  C_10
REMARK    6  A    between atoms: N_12  and  C_13
REMARK    7  A    between atoms: C_15  and  C_16
REMARK    8  A    between atoms: C_17  and  O_18
REMARK    9  A    between atoms: C_19  and  O_20
REMARK   10  A    between atoms: C_21  and  O_22
REMARK                            x       y       z     vdW  Elec       q    Type
REMARK                         _______ _______ _______ _____ _____    ______ ____
ROOT
ATOM      1  C   UNL     1      -5.454  12.500  19.231  0.00  0.00    +0.000 A 
ATOM      2  N   UNL     1      -6.360  12.612  20.218  0.00  0.00    +0.000 NA
ATOM      3  C   UNL     1      -5.924  12.682  21.494  0.00  0.00    +0.000 A 
ATOM      4  C   UNL     1      -4.547  12.623  21.774  0.00  0.00    +0.000 A 
ATOM      5  C   UNL     1      -3.681  12.655  22.921  0.00  0.00    +0.000 A 
ATOM      6  C   UNL     1      -4.000  12.800  24.370  0.00  0.00    +0.000 C 
ATOM      7  C   UNL     1      -2.386  12.548  22.446  0.00  0.00    +0.000 A 
ATOM      8  N   UNL     1      -2.408  12.516  21.070  0.00  0.00    +0.000 N 
ATOM      9  C   UNL     1      -3.718  12.527  20.658  0.00  0.00    +0.000 A 
ATOM     10  N   UNL     1      -4.125  12.456  19.384  0.00  0.00    +0.000 NA
ENDROOT
BRANCH   8  11
ATOM     11  C   UNL     1      -1.197  12.624  20.252  0.00  0.00    +0.000 C 
ATOM     12  O   UNL     1      -0.101  11.909  20.888  0.00  0.00    +0.000 OA
ATOM     13  C   UNL     1      -0.217  10.478  20.820  0.00  0.00    +0.000 C 
ATOM     14  C   UNL     1       0.922   9.888  21.649  0.00  0.00    +0.000 C 
ATOM     15  C   UNL     1      -0.189  10.023  19.350  0.00  0.00    +0.000 C 
ATOM     16  C   UNL     1      -1.328  10.719  18.587  0.00  0.00    +0.000 C 
ATOM     17  C   UNL     1      -1.263  12.248  18.755  0.00  0.00    +0.000 C 
BRANCH  15  18
ATOM     18  O   UNL     1       1.047  10.374  18.697  0.00  0.00    +0.000 OA
ATOM     19  H   UNL     1       0.931  10.312  17.734  0.00  0.00    +0.000 HD
ENDBRANCH  15  18
BRANCH  16  20
ATOM     20  O   UNL     1      -1.247  10.376  17.198  0.00  0.00    +0.000 OA
ATOM     21  H   UNL     1      -0.979  11.205  16.751  0.00  0.00    +0.000 HD
ENDBRANCH  16  20
BRANCH  17  22
ATOM     22  O   UNL     1      -0.096  12.782  18.082  0.00  0.00    +0.000 OA
ATOM     23  H   UNL     1      -0.341  13.662  17.737  0.00  0.00    +0.000 HD
ENDBRANCH  17  22
ENDBRANCH   8  11
BRANCH   1  25
ATOM     24  C   UNL     1      -4.760  11.561  16.717  0.00  0.00    +0.000 C 
ATOM     25  S   UNL     1      -6.119  12.394  17.580  0.00  0.00    +0.000 S 
ENDBRANCH   1  25
BRANCH   3  26
ATOM     26  S   UNL     1      -7.091  12.837  22.819  0.00  0.00    +0.000 S 
ATOM     27  C   UNL     1      -7.070  14.618  23.142  0.00  0.00    +0.000 C 
ENDBRANCH   3  26
TORSDOF 6
ENDMDL
MODEL 6
REMARK VINA RESULT:      -5.6      9.761     13.119
REMARK  Name = 
REMARK  10 active torsions:
REMARK  status: ('A' for Active; 'I' for Inactive)
REMARK    1  A    between atoms: C_1  and  S_2
REMARK    2  A    between atoms: S_2  and  C_3
REMARK    3  A    between atoms: C_5  and  S_6
REMARK    4  A    between atoms: S_6  and  C_7
REMARK    5  A    between atoms: C_9  and  C_10
REMARK    6  A    between atoms: N_12  and  C_13
REMARK    7  A    between atoms: C_15  and  C_16
REMARK    8  A    between atoms: C_17  and  O_18
REMARK    9  A    between atoms: C_19  and  O_20
REMARK   10  A    between atoms: C_21  and  O_22
REMARK                            x       y       z     vdW  Elec       q    Type
REMARK                         _______ _______ _______ _____ _____    ______ ____
ROOT
ATOM      1  C   UNL     1      -1.630  12.239  19.214  0.00  0.00    +0.000 A 
ATOM      2  N   UNL     1      -2.201  11.864  18.056  0.00  0.00    +0.000 NA
ATOM      3  C   UNL     1      -3.544  11.734  18.006  0.00  0.00    +0.000 A 
ATOM      4  C   UNL     1      -4.319  11.977  19.155  0.00  0.00    +0.000 A 
ATOM      5  C   UNL     1      -5.704  11.958  19.540  0.00  0.00    +0.000 A 
ATOM      6  C   UNL     1      -6.926  11.657  18.742  0.00  0.00    +0.000 C 
ATOM      7  C   UNL     1      -5.751  12.318  20.875  0.00  0.00    +0.000 A 
ATOM      8  N   UNL     1      -4.480  12.617  21.311  0.00  0.00    +0.000 N 
ATOM      9  C   UNL     1      -3.603  12.379  20.280  0.00  0.00    +0.000 A 
ATOM     10  N   UNL     1      -2.273  12.514  20.355  0.00  0.00    +0.000 NA
ENDROOT
BRANCH   8  11
ATOM     11  C   UNL     1      -4.209  13.237  22.610  0.00  0.00    +0.000 C 
ATOM     12  O   UNL     1      -3.977  14.664  22.443  0.00  0.00    +0.000 OA
ATOM     13  C   UNL     1      -5.163  15.420  22.145  0.00  0.00    +0.000 C 
ATOM     14  C   UNL     1      -4.728  16.856  21.859  0.00  0.00    +0.000 C 
ATOM     15  C   UNL     1      -6.155  15.313  23.316  0.00  0.00    +0.000 C 
ATOM     16  C   UNL     1      -6.478  13.831  23.568  0.00  0.00    +0.000 C 
ATOM     17  C   UNL     1      -5.195  13.005  23.776  0.00  0.00    +0.000 C 
BRANCH  15  18
ATOM     18  O   UNL     1      -5.612  15.851  24.538  0.00  0.00    +0.000 OA
ATOM     19  H   UNL     1      -6.339  16.150  25.108  0.00  0.00    +0.000 HD
ENDBRANCH  15  18
BRANCH  16  20
ATOM     20  O   UNL     1      -7.324  13.718  24.718  0.00  0.00    +0.000 OA
ATOM     21  H   UNL     1      -7.511  12.761  24.798  0.00  0.00    +0.000 HD
ENDBRANCH  16  20
BRANCH  17  22
ATOM     22  O   UNL     1      -4.551  13.375  25.020  0.00  0.00    +0.000 OA
ATOM     23  H   UNL     1      -3.649  13.004  24.999  0.00  0.00    +0.000 HD
ENDBRANCH  17  22
ENDBRANCH   8  11
BRANCH   1  25
ATOM     24  C   UNL     1       0.573  11.451  20.700  0.00  0.00    +0.000 C 
ATOM     25  S   UNL     1       0.149  12.365  19.194  0.00  0.00    +0.000 S 
ENDBRANCH   1  25
BRANCH   3  26
ATOM     26  S   UNL     1      -4.330  11.247  16.494  0.00  0.00    +0.000 S 
ATOM     27  C   UNL     1      -2.918  10.786  15.459  0.00  0.00    +0.000 C 
ENDBRANCH   3  26
TORSDOF 6
ENDMDL
MODEL 7
REMARK VINA RESULT:      -5.6      3.559      6.407
REMARK  Name = 
REMARK  10 active torsions:
REMARK  status: ('A' for Active; 'I' for Inactive)
REMARK    1  A    between atoms: C_1  and  S_2
REMARK    2  A    between atoms: S_2  and  C_3
REMARK    3  A    between atoms: C_5  and  S_6
REMARK    4  A    between atoms: S_6  and  C_7
REMARK    5  A    between atoms: C_9  and  C_10
REMARK    6  A    between atoms: N_12  and  C_13
REMARK    7  A    between atoms: C_15  and  C_16
REMARK    8  A    between atoms: C_17  and  O_18
REMARK    9  A    between atoms: C_19  and  O_20
REMARK   10  A    between atoms: C_21  and  O_22
REMARK                            x       y       z     vdW  Elec       q    Type
REMARK                         _______ _______ _______ _____ _____    ______ ____
ROOT
ATOM      1  C   UNL     1       4.128   6.104  17.394  0.00  0.00    +0.000 A 
ATOM      2  N   UNL     1       3.792   4.825  17.152  0.00  0.00    +0.000 NA
ATOM      3  C   UNL     1       2.899   4.223  17.967  0.00  0.00    +0.000 A 
ATOM      4  C   UNL     1       2.349   4.927  19.053  0.00  0.00    +0.000 A 
ATOM      5  C   UNL     1       1.418   4.695  20.124  0.00  0.00    +0.000 A 
ATOM      6  C   UNL     1       0.615   3.485  20.461  0.00  0.00    +0.000 C 
ATOM      7  C   UNL     1       1.344   5.870  20.850  0.00  0.00    +0.000 A 
ATOM      8  N   UNL     1       2.130   6.827  20.248  0.00  0.00    +0.000 N 
ATOM      9  C   UNL     1       2.767   6.250  19.176  0.00  0.00    +0.000 A 
ATOM     10  N   UNL     1       3.651   6.869  18.383  0.00  0.00    +0.000 NA
ENDROOT
BRANCH   8  11
ATOM     11  C   UNL     1       2.105   8.238  20.640  0.00  0.00    +0.000 C 
ATOM     12  O   UNL     1       1.674   9.060  19.519  0.00  0.00    +0.000 OA
ATOM     13  C   UNL     1       0.273   8.950  19.217  0.00  0.00    +0.000 C 
ATOM     14  C   UNL     1       0.017   9.751  17.942  0.00  0.00    +0.000 C 
ATOM     15  C   UNL     1      -0.557   9.444  20.414  0.00  0.00    +0.000 C 
ATOM     16  C   UNL     1      -0.182   8.623  21.659  0.00  0.00    +0.000 C 
ATOM     17  C   UNL     1       1.336   8.653  21.914  0.00  0.00    +0.000 C 
BRANCH  15  18
ATOM     18  O   UNL     1      -0.302  10.829  20.717  0.00  0.00    +0.000 OA
ATOM     19  H   UNL     1      -1.036  11.183  21.247  0.00  0.00    +0.000 HD
ENDBRANCH  15  18
BRANCH  16  20
ATOM     20  O   UNL     1      -0.879   9.142  22.798  0.00  0.00    +0.000 OA
ATOM     21  H   UNL     1      -1.197  10.024  22.516  0.00  0.00    +0.000 HD
ENDBRANCH  16  20
BRANCH  17  22
ATOM     22  O   UNL     1       1.757   9.983  22.308  0.00  0.00    +0.000 OA
ATOM     23  H   UNL     1       2.542  10.206  21.772  0.00  0.00    +0.000 HD
ENDBRANCH  17  22
ENDBRANCH   8  11
BRANCH   1  25
ATOM     24  C   UNL     1       6.813   6.787  17.319  0.00  0.00    +0.000 C 
ATOM     25  S   UNL     1       5.327   6.812  16.280  0.00  0.00    +0.000 S 
ENDBRANCH   1  25
BRANCH   3  26
ATOM     26  S   UNL     1       2.428   2.540  17.672  0.00  0.00    +0.000 S 
ATOM     27  C   UNL     1       3.631   1.626  18.669  0.00  0.00    +0.000 C 
ENDBRANCH   3  26
TORSDOF 6
ENDMDL
MODEL 8
REMARK VINA RESULT:      -5.5      8.333     10.272
REMARK  Name = 
REMARK  10 active torsions:
REMARK  status: ('A' for Active; 'I' for Inactive)
REMARK    1  A    between atoms: C_1  and  S_2
REMARK    2  A    between atoms: S_2  and  C_3
REMARK    3  A    between atoms: C_5  and  S_6
REMARK    4  A    between atoms: S_6  and  C_7
REMARK    5  A    between atoms: C_9  and  C_10
REMARK    6  A    between atoms: N_12  and  C_13
REMARK    7  A    between atoms: C_15  and  C_16
REMARK    8  A    between atoms: C_17  and  O_18
REMARK    9  A    between atoms: C_19  and  O_20
REMARK   10  A    between atoms: C_21  and  O_22
REMARK                            x       y       z     vdW  Elec       q    Type
REMARK                         _______ _______ _______ _____ _____    ______ ____
ROOT
ATOM      1  C   UNL     1       6.836  13.034  22.721  0.00  0.00    +0.000 A 
ATOM      2  N   UNL     1       5.651  13.642  22.538  0.00  0.00    +0.000 NA
ATOM      3  C   UNL     1       5.537  14.559  21.554  0.00  0.00    +0.000 A 
ATOM      4  C   UNL     1       6.649  14.873  20.750  0.00  0.00    +0.000 A 
ATOM      5  C   UNL     1       6.968  15.742  19.650  0.00  0.00    +0.000 A 
ATOM      6  C   UNL     1       6.111  16.698  18.893  0.00  0.00    +0.000 C 
ATOM      7  C   UNL     1       8.301  15.527  19.346  0.00  0.00    +0.000 A 
ATOM      8  N   UNL     1       8.797  14.531  20.158  0.00  0.00    +0.000 N 
ATOM      9  C   UNL     1       7.808  14.155  21.034  0.00  0.00    +0.000 A 
ATOM     10  N   UNL     1       7.947  13.242  22.004  0.00  0.00    +0.000 NA
ENDROOT
BRANCH   8  11
ATOM     11  C   UNL     1      10.109  13.915  19.949  0.00  0.00    +0.000 C 
ATOM     12  O   UNL     1       9.987  12.465  19.955  0.00  0.00    +0.000 OA
ATOM     13  C   UNL     1       9.364  11.925  18.778  0.00  0.00    +0.000 C 
ATOM     14  C   UNL     1       9.182  10.426  19.005  0.00  0.00    +0.000 C 
ATOM     15  C   UNL     1      10.222  12.246  17.542  0.00  0.00    +0.000 C 
ATOM     16  C   UNL     1      10.402  13.769  17.436  0.00  0.00    +0.000 C 
ATOM     17  C   UNL     1      10.967  14.358  18.742  0.00  0.00    +0.000 C 
BRANCH  15  18
ATOM     18  O   UNL     1      11.536  11.660  17.626  0.00  0.00    +0.000 OA
ATOM     19  H   UNL     1      11.779  11.548  18.560  0.00  0.00    +0.000 HD
ENDBRANCH  15  18
BRANCH  16  20
ATOM     20  O   UNL     1      11.281  14.070  16.346  0.00  0.00    +0.000 OA
ATOM     21  H   UNL     1      11.355  13.231  15.846  0.00  0.00    +0.000 HD
ENDBRANCH  16  20
BRANCH  17  22
ATOM     22  O   UNL     1      12.333  13.920  18.947  0.00  0.00    +0.000 OA
ATOM     23  H   UNL     1      12.804  14.646  19.398  0.00  0.00    +0.000 HD
ENDBRANCH  17  22
ENDBRANCH   8  11
BRANCH   1  25
ATOM     24  C   UNL     1       8.556  12.179  24.720  0.00  0.00    +0.000 C 
ATOM     25  S   UNL     1       6.900  11.853  24.056  0.00  0.00    +0.000 S 
ENDBRANCH   1  25
BRANCH   3  26
ATOM     26  S   UNL     1       3.988  15.375  21.280  0.00  0.00    +0.000 S 
ATOM     27  C   UNL     1       3.271  14.396  19.937  0.00  0.00    +0.000 C 
ENDBRANCH   3  26
TORSDOF 6
ENDMDL
MODEL 9
REMARK VINA RESULT:      -5.5      7.574      9.886
REMARK  Name = 
REMARK  10 active torsions:
REMARK  status: ('A' for Active; 'I' for Inactive)
REMARK    1  A    between atoms: C_1  and  S_2
REMARK    2  A    between atoms: S_2  and  C_3
REMARK    3  A    between atoms: C_5  and  S_6
REMARK    4  A    between atoms: S_6  and  C_7
REMARK    5  A    between atoms: C_9  and  C_10
REMARK    6  A    between atoms: N_12  and  C_13
REMARK    7  A    between atoms: C_15  and  C_16
REMARK    8  A    between atoms: C_17  and  O_18
REMARK    9  A    between atoms: C_19  and  O_20
REMARK   10  A    between atoms: C_21  and  O_22
REMARK                            x       y       z     vdW  Elec       q    Type
REMARK                         _______ _______ _______ _____ _____    ______ ____
ROOT
ATOM      1  C   UNL     1      -4.743  12.893  21.488  0.00  0.00    +0.000 A 
ATOM      2  N   UNL     1      -5.783  12.474  20.747  0.00  0.00    +0.000 NA
ATOM      3  C   UNL     1      -5.544  11.989  19.510  0.00  0.00    +0.000 A 
ATOM      4  C   UNL     1      -4.230  11.943  19.012  0.00  0.00    +0.000 A 
ATOM      5  C   UNL     1      -3.548  11.532  17.814  0.00  0.00    +0.000 A 
ATOM      6  C   UNL     1      -4.078  10.927  16.559  0.00  0.00    +0.000 C 
ATOM      7  C   UNL     1      -2.202  11.777  18.018  0.00  0.00    +0.000 A 
ATOM      8  N   UNL     1      -2.015  12.255  19.296  0.00  0.00    +0.000 N 
ATOM      9  C   UNL     1      -3.246  12.389  19.891  0.00  0.00    +0.000 A 
ATOM     10  N   UNL     1      -3.456  12.874  21.122  0.00  0.00    +0.000 NA
ENDROOT
BRANCH   8  11
ATOM     11  C   UNL     1      -0.690  12.409  19.902  0.00  0.00    +0.000 C 
ATOM     12  O   UNL     1      -0.750  12.090  21.320  0.00  0.00    +0.000 OA
ATOM     13  C   UNL     1      -0.896  10.687  21.600  0.00  0.00    +0.000 C 
ATOM     14  C   UNL     1      -1.088  10.540  23.108  0.00  0.00    +0.000 C 
ATOM     15  C   UNL     1       0.330   9.922  21.073  0.00  0.00    +0.000 C 
ATOM     16  C   UNL     1       0.476  10.185  19.564  0.00  0.00    +0.000 C 
ATOM     17  C   UNL     1       0.520  11.694  19.260  0.00  0.00    +0.000 C 
BRANCH  15  18
ATOM     18  O   UNL     1       1.551  10.351  21.706  0.00  0.00    +0.000 OA
ATOM     19  H   UNL     1       1.338  10.837  22.520  0.00  0.00    +0.000 HD
ENDBRANCH  15  18
BRANCH  16  20
ATOM     20  O   UNL     1       1.671   9.556  19.086  0.00  0.00    +0.000 OA
ATOM     21  H   UNL     1       2.046   9.102  19.869  0.00  0.00    +0.000 HD
ENDBRANCH  16  20
BRANCH  17  22
ATOM     22  O   UNL     1       1.742  12.279  19.775  0.00  0.00    +0.000 OA
ATOM     23  H   UNL     1       2.137  11.629  20.386  0.00  0.00    +0.000 HD
ENDBRANCH  17  22
ENDBRANCH   8  11
BRANCH   1  25
ATOM     24  C   UNL     1      -3.954  12.652  24.135  0.00  0.00    +0.000 C 
ATOM     25  S   UNL     1      -5.153  13.535  23.101  0.00  0.00    +0.000 S 
ENDBRANCH   1  25
BRANCH   3  26
ATOM     26  S   UNL     1      -6.891  11.421  18.508  0.00  0.00    +0.000 S 
ATOM     27  C   UNL     1      -7.198  12.846  17.434  0.00  0.00    +0.000 C 
ENDBRANCH   3  26
TORSDOF 6
ENDMDL
