MODEL 1
REMARK VINA RESULT:      -6.9      0.000      0.000
REMARK  Name = 
REMARK  10 active torsions:
REMARK  status: ('A' for Active; 'I' for Inactive)
REMARK    1  A    between atoms: C_1  and  O_2
REMARK    2  A    between atoms: O_2  and  C_3
REMARK    3  A    between atoms: C_10  and  C_11
REMARK    4  A    between atoms: C_10  and  C_12
REMARK    5  A    between atoms: C_13  and  C_14
REMARK    6  A    between atoms: C_20  and  C_21
REMARK    7  A    between atoms: C_26  and  O_27
REMARK    8  A    between atoms: O_27  and  C_28
REMARK    9  A    between atoms: C_28  and  C_29
REMARK   10  A    between atoms: C_29  and  N_30
REMARK                            x       y       z     vdW  Elec       q    Type
REMARK                         _______ _______ _______ _____ _____    ______ ____
ROOT
ATOM      1  C   UNL     1      -2.897  10.693  16.689  0.00  0.00    +0.000 A 
ATOM      2  C   UNL     1      -2.075  11.506  17.448  0.00  0.00    +0.000 A 
ATOM      3  C   UNL     1      -2.557  12.104  18.622  0.00  0.00    +0.000 A 
ATOM      4  C   UNL     1      -3.902  12.001  19.040  0.00  0.00    +0.000 A 
ATOM      5  C   UNL     1      -4.696  11.176  18.256  0.00  0.00    +0.000 A 
ATOM      6  C   UNL     1      -4.202  10.500  17.119  0.00  0.00    +0.000 A 
ATOM      7  O   UNL     1      -5.993  10.915  18.531  0.00  0.00    +0.000 OA
ATOM      8  C   UNL     1      -6.712  11.761  19.453  0.00  0.00    +0.000 C 
ATOM      9  C   UNL     1      -7.489  12.757  18.579  0.00  0.00    +0.000 C 
ATOM     10  C   UNL     1      -7.726  10.723  19.978  0.00  0.00    +0.000 C 
ATOM     11  C   UNL     1      -5.823  12.565  20.471  0.00  0.00    +0.000 C 
ATOM     12  C   UNL     1      -4.457  12.695  20.279  0.00  0.00    +0.000 C 
ENDROOT
BRANCH  11  13
ATOM     13  C   UNL     1      -6.537  13.179  21.675  0.00  0.00    +0.000 A 
ATOM     14  C   UNL     1      -7.028  14.493  21.647  0.00  0.00    +0.000 A 
ATOM     15  C   UNL     1      -7.280  15.211  22.830  0.00  0.00    +0.000 A 
ATOM     16  C   UNL     1      -7.188  14.589  24.070  0.00  0.00    +0.000 A 
ATOM     17  C   UNL     1      -6.879  13.240  24.124  0.00  0.00    +0.000 A 
ATOM     18  C   UNL     1      -6.531  12.557  22.949  0.00  0.00    +0.000 A 
ENDBRANCH  11  13
BRANCH  12  19
ATOM     19  C   UNL     1      -3.512  13.514  21.158  0.00  0.00    +0.000 A 
ATOM     20  C   UNL     1      -3.471  14.922  20.895  0.00  0.00    +0.000 A 
ATOM     21  C   UNL     1      -2.545  15.797  21.468  0.00  0.00    +0.000 A 
ATOM     22  C   UNL     1      -1.713  15.351  22.473  0.00  0.00    +0.000 A 
ATOM     23  C   UNL     1      -1.808  14.021  22.865  0.00  0.00    +0.000 A 
ATOM     24  C   UNL     1      -2.637  13.089  22.184  0.00  0.00    +0.000 A 
BRANCH  24  25
ATOM     25  O   UNL     1      -2.541  11.878  22.788  0.00  0.00    +0.000 OA
BRANCH  25  26
ATOM     26  C   UNL     1      -1.362  11.415  23.413  0.00  0.00    +0.000 C 
BRANCH  26  27
ATOM     27  C   UNL     1      -0.732  10.237  22.703  0.00  0.00    +0.000 C 
BRANCH  27  28
ATOM     28  N   UNL     1       0.639  10.497  22.216  0.00  0.00    +0.000 NA
ATOM     29  C   UNL     1       0.679  10.993  20.827  0.00  0.00    +0.000 C 
ATOM     30  C   UNL     1       0.346   9.775  19.987  0.00  0.00    +0.000 C 
ATOM     31  C   UNL     1       0.933   8.616  20.787  0.00  0.00    +0.000 C 
ATOM     32  C   UNL     1       1.351   9.217  22.127  0.00  0.00    +0.000 C 
ENDBRANCH  27  28
ENDBRANCH  26  27
ENDBRANCH  25  26
ENDBRANCH  24  25
ENDBRANCH  12  19
BRANCH   1  34
ATOM     33  C   UNL     1      -3.076  10.070  14.410  0.00  0.00    +0.000 C 
ATOM     34  O   UNL     1      -2.301  10.127  15.599  0.00  0.00    +0.000 OA
ENDBRANCH   1  34
TORSDOF 7
ENDMDL
MODEL 2
REMARK VINA RESULT:      -6.2      1.836      2.445
REMARK  Name = 
REMARK  10 active torsions:
REMARK  status: ('A' for Active; 'I' for Inactive)
REMARK    1  A    between atoms: C_1  and  O_2
REMARK    2  A    between atoms: O_2  and  C_3
REMARK    3  A    between atoms: C_10  and  C_11
REMARK    4  A    between atoms: C_10  and  C_12
REMARK    5  A    between atoms: C_13  and  C_14
REMARK    6  A    between atoms: C_20  and  C_21
REMARK    7  A    between atoms: C_26  and  O_27
REMARK    8  A    between atoms: O_27  and  C_28
REMARK    9  A    between atoms: C_28  and  C_29
REMARK   10  A    between atoms: C_29  and  N_30
REMARK                            x       y       z     vdW  Elec       q    Type
REMARK                         _______ _______ _______ _____ _____    ______ ____
ROOT
ATOM      1  C   UNL     1      -3.215  10.450  16.798  0.00  0.00    +0.000 A 
ATOM      2  C   UNL     1      -2.204  10.836  17.658  0.00  0.00    +0.000 A 
ATOM      3  C   UNL     1      -2.494  11.602  18.797  0.00  0.00    +0.000 A 
ATOM      4  C   UNL     1      -3.785  12.100  19.078  0.00  0.00    +0.000 A 
ATOM      5  C   UNL     1      -4.774  11.692  18.194  0.00  0.00    +0.000 A 
ATOM      6  C   UNL     1      -4.511  10.851  17.091  0.00  0.00    +0.000 A 
ATOM      7  O   UNL     1      -6.076  12.026  18.333  0.00  0.00    +0.000 OA
ATOM      8  C   UNL     1      -6.446  13.114  19.205  0.00  0.00    +0.000 C 
ATOM      9  C   UNL     1      -6.620  14.336  18.290  0.00  0.00    +0.000 C 
ATOM     10  C   UNL     1      -7.859  12.629  19.596  0.00  0.00    +0.000 C 
ATOM     11  C   UNL     1      -5.405  13.466  20.330  0.00  0.00    +0.000 C 
ATOM     12  C   UNL     1      -4.106  12.985  20.277  0.00  0.00    +0.000 C 
ENDROOT
BRANCH  11  13
ATOM     13  C   UNL     1      -5.900  14.348  21.476  0.00  0.00    +0.000 A 
ATOM     14  C   UNL     1      -5.603  15.718  21.531  0.00  0.00    +0.000 A 
ATOM     15  C   UNL     1      -5.657  16.436  22.739  0.00  0.00    +0.000 A 
ATOM     16  C   UNL     1      -6.149  15.842  23.896  0.00  0.00    +0.000 A 
ATOM     17  C   UNL     1      -6.619  14.541  23.835  0.00  0.00    +0.000 A 
ATOM     18  C   UNL     1      -6.469  13.800  22.654  0.00  0.00    +0.000 A 
ENDBRANCH  11  13
BRANCH  12  19
ATOM     19  C   UNL     1      -2.994  13.325  21.270  0.00  0.00    +0.000 A 
ATOM     20  C   UNL     1      -2.914  12.492  22.433  0.00  0.00    +0.000 A 
ATOM     21  C   UNL     1      -2.087  12.756  23.527  0.00  0.00    +0.000 A 
ATOM     22  C   UNL     1      -1.161  13.775  23.455  0.00  0.00    +0.000 A 
ATOM     23  C   UNL     1      -1.101  14.530  22.289  0.00  0.00    +0.000 A 
ATOM     24  C   UNL     1      -2.039  14.367  21.234  0.00  0.00    +0.000 A 
BRANCH  24  25
ATOM     25  O   UNL     1      -1.734  15.221  20.226  0.00  0.00    +0.000 OA
BRANCH  25  26
ATOM     26  C   UNL     1      -0.421  15.406  19.737  0.00  0.00    +0.000 C 
BRANCH  26  27
ATOM     27  C   UNL     1       0.164  14.161  19.108  0.00  0.00    +0.000 C 
BRANCH  27  28
ATOM     28  N   UNL     1       1.251  13.546  19.899  0.00  0.00    +0.000 NA
ATOM     29  C   UNL     1       2.531  13.472  19.168  0.00  0.00    +0.000 C 
ATOM     30  C   UNL     1       2.314  12.370  18.149  0.00  0.00    +0.000 C 
ATOM     31  C   UNL     1       1.362  11.410  18.855  0.00  0.00    +0.000 C 
ATOM     32  C   UNL     1       0.920  12.134  20.123  0.00  0.00    +0.000 C 
ENDBRANCH  27  28
ENDBRANCH  26  27
ENDBRANCH  25  26
ENDBRANCH  24  25
ENDBRANCH  12  19
BRANCH   1  34
ATOM     33  C   UNL     1      -3.033  10.185  14.450  0.00  0.00    +0.000 C 
ATOM     34  O   UNL     1      -2.816   9.665  15.755  0.00  0.00    +0.000 OA
ENDBRANCH   1  34
TORSDOF 7
ENDMDL
MODEL 3
REMARK VINA RESULT:      -6.0      2.442      3.798
REMARK  Name = 
REMARK  10 active torsions:
REMARK  status: ('A' for Active; 'I' for Inactive)
REMARK    1  A    between atoms: C_1  and  O_2
REMARK    2  A    between atoms: O_2  and  C_3
REMARK    3  A    between atoms: C_10  and  C_11
REMARK    4  A    between atoms: C_10  and  C_12
REMARK    5  A    between atoms: C_13  and  C_14
REMARK    6  A    between atoms: C_20  and  C_21
REMARK    7  A    between atoms: C_26  and  O_27
REMARK    8  A    between atoms: O_27  and  C_28
REMARK    9  A    between atoms: C_28  and  C_29
REMARK   10  A    between atoms: C_29  and  N_30
REMARK                            x       y       z     vdW  Elec       q    Type
REMARK                         _______ _______ _______ _____ _____    ______ ____
ROOT
ATOM      1  C   UNL     1      -2.981  10.731  16.485  0.00  0.00    +0.000 A 
ATOM      2  C   UNL     1      -2.004  11.120  17.383  0.00  0.00    +0.000 A 
ATOM      3  C   UNL     1      -2.355  11.758  18.581  0.00  0.00    +0.000 A 
ATOM      4  C   UNL     1      -3.682  12.126  18.895  0.00  0.00    +0.000 A 
ATOM      5  C   UNL     1      -4.635  11.719  17.973  0.00  0.00    +0.000 A 
ATOM      6  C   UNL     1      -4.305  11.001  16.802  0.00  0.00    +0.000 A 
ATOM      7  O   UNL     1      -5.959  11.935  18.130  0.00  0.00    +0.000 OA
ATOM      8  C   UNL     1      -6.416  12.910  19.091  0.00  0.00    +0.000 C 
ATOM      9  C   UNL     1      -6.687  14.189  18.284  0.00  0.00    +0.000 C 
ATOM     10  C   UNL     1      -7.785  12.282  19.429  0.00  0.00    +0.000 C 
ATOM     11  C   UNL     1      -5.406  13.245  20.249  0.00  0.00    +0.000 C 
ATOM     12  C   UNL     1      -4.073  12.875  20.165  0.00  0.00    +0.000 C 
ENDROOT
BRANCH  11  13
ATOM     13  C   UNL     1      -5.970  13.982  21.464  0.00  0.00    +0.000 A 
ATOM     14  C   UNL     1      -5.923  15.381  21.563  0.00  0.00    +0.000 A 
ATOM     15  C   UNL     1      -6.021  16.035  22.804  0.00  0.00    +0.000 A 
ATOM     16  C   UNL     1      -6.314  15.322  23.961  0.00  0.00    +0.000 A 
ATOM     17  C   UNL     1      -6.543  13.960  23.871  0.00  0.00    +0.000 A 
ATOM     18  C   UNL     1      -6.345  13.299  22.649  0.00  0.00    +0.000 A 
ENDBRANCH  11  13
BRANCH  12  19
ATOM     19  C   UNL     1      -2.992  13.215  21.191  0.00  0.00    +0.000 A 
ATOM     20  C   UNL     1      -2.705  12.200  22.160  0.00  0.00    +0.000 A 
ATOM     21  C   UNL     1      -1.885  12.394  23.275  0.00  0.00    +0.000 A 
ATOM     22  C   UNL     1      -1.162  13.562  23.397  0.00  0.00    +0.000 A 
ATOM     23  C   UNL     1      -1.298  14.528  22.408  0.00  0.00    +0.000 A 
ATOM     24  C   UNL     1      -2.243  14.403  21.354  0.00  0.00    +0.000 A 
BRANCH  24  25
ATOM     25  O   UNL     1      -2.148  15.480  20.535  0.00  0.00    +0.000 OA
BRANCH  25  26
ATOM     26  C   UNL     1      -1.626  16.726  20.950  0.00  0.00    +0.000 C 
BRANCH  26  27
ATOM     27  C   UNL     1      -0.412  17.159  20.158  0.00  0.00    +0.000 C 
BRANCH  27  28
ATOM     28  N   UNL     1      -0.219  16.406  18.901  0.00  0.00    +0.000 NA
ATOM     29  C   UNL     1       1.198  16.121  18.605  0.00  0.00    +0.000 C 
ATOM     30  C   UNL     1       1.766  17.461  18.178  0.00  0.00    +0.000 C 
ATOM     31  C   UNL     1       0.588  18.149  17.495  0.00  0.00    +0.000 C 
ATOM     32  C   UNL     1      -0.622  17.263  17.780  0.00  0.00    +0.000 C 
ENDBRANCH  27  28
ENDBRANCH  26  27
ENDBRANCH  25  26
ENDBRANCH  24  25
ENDBRANCH  12  19
BRANCH   1  34
ATOM     33  C   UNL     1      -3.377  10.062  14.247  0.00  0.00    +0.000 C 
ATOM     34  O   UNL     1      -2.521  10.073  15.381  0.00  0.00    +0.000 OA
ENDBRANCH   1  34
TORSDOF 7
ENDMDL
MODEL 4
REMARK VINA RESULT:      -6.0      2.743      6.073
REMARK  Name = 
REMARK  10 active torsions:
REMARK  status: ('A' for Active; 'I' for Inactive)
REMARK    1  A    between atoms: C_1  and  O_2
REMARK    2  A    between atoms: O_2  and  C_3
REMARK    3  A    between atoms: C_10  and  C_11
REMARK    4  A    between atoms: C_10  and  C_12
REMARK    5  A    between atoms: C_13  and  C_14
REMARK    6  A    between atoms: C_20  and  C_21
REMARK    7  A    between atoms: C_26  and  O_27
REMARK    8  A    between atoms: O_27  and  C_28
REMARK    9  A    between atoms: C_28  and  C_29
REMARK   10  A    between atoms: C_29  and  N_30
REMARK                            x       y       z     vdW  Elec       q    Type
REMARK                         _______ _______ _______ _____ _____    ______ ____
ROOT
ATOM      1  C   UNL     1       1.334   9.907  18.490  0.00  0.00    +0.000 A 
ATOM      2  C   UNL     1       0.305   9.695  19.389  0.00  0.00    +0.000 A 
ATOM      3  C   UNL     1      -0.289  10.775  20.057  0.00  0.00    +0.000 A 
ATOM      4  C   UNL     1       0.179  12.103  19.936  0.00  0.00    +0.000 A 
ATOM      5  C   UNL     1       1.211  12.278  19.026  0.00  0.00    +0.000 A 
ATOM      6  C   UNL     1       1.762  11.211  18.283  0.00  0.00    +0.000 A 
ATOM      7  O   UNL     1       1.750  13.483  18.739  0.00  0.00    +0.000 OA
ATOM      8  C   UNL     1       1.520  14.599  19.626  0.00  0.00    +0.000 C 
ATOM      9  C   UNL     1       2.764  14.676  20.523  0.00  0.00    +0.000 C 
ATOM     10  C   UNL     1       1.626  15.742  18.594  0.00  0.00    +0.000 C 
ATOM     11  C   UNL     1       0.243  14.488  20.537  0.00  0.00    +0.000 C 
ATOM     12  C   UNL     1      -0.415  13.280  20.702  0.00  0.00    +0.000 C 
ENDROOT
BRANCH  11  13
ATOM     13  C   UNL     1      -0.233  15.773  21.215  0.00  0.00    +0.000 A 
ATOM     14  C   UNL     1       0.186  16.122  22.507  0.00  0.00    +0.000 A 
ATOM     15  C   UNL     1      -0.545  17.024  23.301  0.00  0.00    +0.000 A 
ATOM     16  C   UNL     1      -1.633  17.712  22.774  0.00  0.00    +0.000 A 
ATOM     17  C   UNL     1      -1.966  17.524  21.443  0.00  0.00    +0.000 A 
ATOM     18  C   UNL     1      -1.296  16.550  20.688  0.00  0.00    +0.000 A 
ENDBRANCH  11  13
BRANCH  12  19
ATOM     19  C   UNL     1      -1.614  13.042  21.620  0.00  0.00    +0.000 A 
ATOM     20  C   UNL     1      -1.308  12.693  22.976  0.00  0.00    +0.000 A 
ATOM     21  C   UNL     1      -2.258  12.266  23.906  0.00  0.00    +0.000 A 
ATOM     22  C   UNL     1      -3.600  12.327  23.591  0.00  0.00    +0.000 A 
ATOM     23  C   UNL     1      -3.961  12.791  22.332  0.00  0.00    +0.000 A 
ATOM     24  C   UNL     1      -2.997  13.081  21.328  0.00  0.00    +0.000 A 
BRANCH  24  25
ATOM     25  O   UNL     1      -3.629  13.524  20.213  0.00  0.00    +0.000 OA
BRANCH  25  26
ATOM     26  C   UNL     1      -4.297  12.668  19.309  0.00  0.00    +0.000 C 
BRANCH  26  27
ATOM     27  C   UNL     1      -3.362  11.743  18.561  0.00  0.00    +0.000 C 
BRANCH  27  28
ATOM     28  N   UNL     1      -4.055  10.708  17.765  0.00  0.00    +0.000 NA
ATOM     29  C   UNL     1      -3.253   9.485  17.577  0.00  0.00    +0.000 C 
ATOM     30  C   UNL     1      -2.186   9.889  16.578  0.00  0.00    +0.000 C 
ATOM     31  C   UNL     1      -2.887  10.923  15.702  0.00  0.00    +0.000 C 
ATOM     32  C   UNL     1      -4.217  11.208  16.395  0.00  0.00    +0.000 C 
ENDBRANCH  27  28
ENDBRANCH  26  27
ENDBRANCH  25  26
ENDBRANCH  24  25
ENDBRANCH  12  19
BRANCH   1  34
ATOM     33  C   UNL     1       2.378   7.789  18.696  0.00  0.00    +0.000 C 
ATOM     34  O   UNL     1       1.795   8.784  17.865  0.00  0.00    +0.000 OA
ENDBRANCH   1  34
TORSDOF 7
ENDMDL
MODEL 5
REMARK VINA RESULT:      -6.0      1.958      4.357
REMARK  Name = 
REMARK  10 active torsions:
REMARK  status: ('A' for Active; 'I' for Inactive)
REMARK    1  A    between atoms: C_1  and  O_2
REMARK    2  A    between atoms: O_2  and  C_3
REMARK    3  A    between atoms: C_10  and  C_11
REMARK    4  A    between atoms: C_10  and  C_12
REMARK    5  A    between atoms: C_13  and  C_14
REMARK    6  A    between atoms: C_20  and  C_21
REMARK    7  A    between atoms: C_26  and  O_27
REMARK    8  A    between atoms: O_27  and  C_28
REMARK    9  A    between atoms: C_28  and  C_29
REMARK   10  A    between atoms: C_29  and  N_30
REMARK                            x       y       z     vdW  Elec       q    Type
REMARK                         _______ _______ _______ _____ _____    ______ ____
ROOT
ATOM      1  C   UNL     1      -1.900  11.352  17.623  0.00  0.00    +0.000 A 
ATOM      2  C   UNL     1      -2.956  11.164  18.497  0.00  0.00    +0.000 A 
ATOM      3  C   UNL     1      -3.154  12.045  19.570  0.00  0.00    +0.000 A 
ATOM      4  C   UNL     1      -2.258  13.090  19.881  0.00  0.00    +0.000 A 
ATOM      5  C   UNL     1      -1.212  13.250  18.984  0.00  0.00    +0.000 A 
ATOM      6  C   UNL     1      -1.048  12.423  17.850  0.00  0.00    +0.000 A 
ATOM      7  O   UNL     1      -0.287  14.229  19.089  0.00  0.00    +0.000 OA
ATOM      8  C   UNL     1      -0.136  14.939  20.336  0.00  0.00    +0.000 C 
ATOM      9  C   UNL     1       1.043  14.266  21.054  0.00  0.00    +0.000 C 
ATOM     10  C   UNL     1       0.374  16.285  19.778  0.00  0.00    +0.000 C 
ATOM     11  C   UNL     1      -1.390  14.915  21.286  0.00  0.00    +0.000 C 
ATOM     12  C   UNL     1      -2.425  14.018  21.080  0.00  0.00    +0.000 C 
ENDROOT
BRANCH  11  13
ATOM     13  C   UNL     1      -1.408  15.931  22.428  0.00  0.00    +0.000 A 
ATOM     14  C   UNL     1      -1.056  15.571  23.738  0.00  0.00    +0.000 A 
ATOM     15  C   UNL     1      -1.472  16.329  24.847  0.00  0.00    +0.000 A 
ATOM     16  C   UNL     1      -2.125  17.544  24.672  0.00  0.00    +0.000 A 
ATOM     17  C   UNL     1      -2.331  18.016  23.387  0.00  0.00    +0.000 A 
ATOM     18  C   UNL     1      -2.004  17.210  22.287  0.00  0.00    +0.000 A 
ENDBRANCH  11  13
BRANCH  12  19
ATOM     19  C   UNL     1      -3.649  13.855  21.981  0.00  0.00    +0.000 A 
ATOM     20  C   UNL     1      -4.721  14.779  21.759  0.00  0.00    +0.000 A 
ATOM     21  C   UNL     1      -5.834  14.900  22.594  0.00  0.00    +0.000 A 
ATOM     22  C   UNL     1      -6.031  13.986  23.608  0.00  0.00    +0.000 A 
ATOM     23  C   UNL     1      -5.088  12.980  23.781  0.00  0.00    +0.000 A 
ATOM     24  C   UNL     1      -3.879  12.941  23.036  0.00  0.00    +0.000 A 
BRANCH  24  25
ATOM     25  O   UNL     1      -3.160  11.851  23.403  0.00  0.00    +0.000 OA
BRANCH  25  26
ATOM     26  C   UNL     1      -1.749  11.836  23.458  0.00  0.00    +0.000 C 
BRANCH  26  27
ATOM     27  C   UNL     1      -1.153  10.481  23.145  0.00  0.00    +0.000 C 
BRANCH  27  28
ATOM     28  N   UNL     1       0.239  10.540  22.651  0.00  0.00    +0.000 NA
ATOM     29  C   UNL     1       0.335  10.908  21.225  0.00  0.00    +0.000 C 
ATOM     30  C   UNL     1      -0.134   9.668  20.489  0.00  0.00    +0.000 C 
ATOM     31  C   UNL     1       0.316   8.522  21.390  0.00  0.00    +0.000 C 
ATOM     32  C   UNL     1       0.799   9.184  22.678  0.00  0.00    +0.000 C 
ENDBRANCH  27  28
ENDBRANCH  26  27
ENDBRANCH  25  26
ENDBRANCH  24  25
ENDBRANCH  12  19
BRANCH   1  34
ATOM     33  C   UNL     1      -2.877  10.547  15.620  0.00  0.00    +0.000 C 
ATOM     34  O   UNL     1      -1.841  10.463  16.589  0.00  0.00    +0.000 OA
ENDBRANCH   1  34
TORSDOF 7
ENDMDL
MODEL 6
REMARK VINA RESULT:      -5.9      2.113      3.297
REMARK  Name = 
REMARK  10 active torsions:
REMARK  status: ('A' for Active; 'I' for Inactive)
REMARK    1  A    between atoms: C_1  and  O_2
REMARK    2  A    between atoms: O_2  and  C_3
REMARK    3  A    between atoms: C_10  and  C_11
REMARK    4  A    between atoms: C_10  and  C_12
REMARK    5  A    between atoms: C_13  and  C_14
REMARK    6  A    between atoms: C_20  and  C_21
REMARK    7  A    between atoms: C_26  and  O_27
REMARK    8  A    between atoms: O_27  and  C_28
REMARK    9  A    between atoms: C_28  and  C_29
REMARK   10  A    between atoms: C_29  and  N_30
REMARK                            x       y       z     vdW  Elec       q    Type
REMARK                         _______ _______ _______ _____ _____    ______ ____
ROOT
ATOM      1  C   UNL     1      -2.946  10.880  16.745  0.00  0.00    +0.000 A 
ATOM      2  C   UNL     1      -2.000  11.506  17.536  0.00  0.00    +0.000 A 
ATOM      3  C   UNL     1      -2.365  12.065  18.770  0.00  0.00    +0.000 A 
ATOM      4  C   UNL     1      -3.701  12.113  19.226  0.00  0.00    +0.000 A 
ATOM      5  C   UNL     1      -4.621  11.475  18.407  0.00  0.00    +0.000 A 
ATOM      6  C   UNL     1      -4.255  10.834  17.203  0.00  0.00    +0.000 A 
ATOM      7  O   UNL     1      -5.935  11.374  18.706  0.00  0.00    +0.000 OA
ATOM      8  C   UNL     1      -6.506  12.231  19.717  0.00  0.00    +0.000 C 
ATOM      9  C   UNL     1      -7.156  13.394  18.953  0.00  0.00    +0.000 C 
ATOM     10  C   UNL     1      -7.644  11.302  20.194  0.00  0.00    +0.000 C 
ATOM     11  C   UNL     1      -5.489  12.816  20.764  0.00  0.00    +0.000 C 
ATOM     12  C   UNL     1      -4.123  12.771  20.535  0.00  0.00    +0.000 C 
ENDROOT
BRANCH  11  13
ATOM     13  C   UNL     1      -6.080  13.420  22.037  0.00  0.00    +0.000 A 
ATOM     14  C   UNL     1      -6.326  12.640  23.177  0.00  0.00    +0.000 A 
ATOM     15  C   UNL     1      -7.241  13.046  24.165  0.00  0.00    +0.000 A 
ATOM     16  C   UNL     1      -7.825  14.306  24.116  0.00  0.00    +0.000 A 
ATOM     17  C   UNL     1      -7.468  15.173  23.097  0.00  0.00    +0.000 A 
ATOM     18  C   UNL     1      -6.633  14.726  22.062  0.00  0.00    +0.000 A 
ENDBRANCH  11  13
BRANCH  12  19
ATOM     19  C   UNL     1      -3.052  13.376  21.443  0.00  0.00    +0.000 A 
ATOM     20  C   UNL     1      -2.155  12.446  22.063  0.00  0.00    +0.000 A 
ATOM     21  C   UNL     1      -1.235  12.792  23.056  0.00  0.00    +0.000 A 
ATOM     22  C   UNL     1      -1.032  14.120  23.368  0.00  0.00    +0.000 A 
ATOM     23  C   UNL     1      -1.780  15.078  22.694  0.00  0.00    +0.000 A 
ATOM     24  C   UNL     1      -2.824  14.727  21.795  0.00  0.00    +0.000 A 
BRANCH  24  25
ATOM     25  O   UNL     1      -3.370  15.855  21.278  0.00  0.00    +0.000 OA
BRANCH  25  26
ATOM     26  C   UNL     1      -2.761  16.611  20.251  0.00  0.00    +0.000 C 
BRANCH  26  27
ATOM     27  C   UNL     1      -1.249  16.592  20.311  0.00  0.00    +0.000 C 
BRANCH  27  28
ATOM     28  N   UNL     1      -0.608  16.130  19.062  0.00  0.00    +0.000 NA
ATOM     29  C   UNL     1      -0.239  14.701  19.092  0.00  0.00    +0.000 C 
ATOM     30  C   UNL     1       0.960  14.646  20.020  0.00  0.00    +0.000 C 
ATOM     31  C   UNL     1       1.654  15.985  19.790  0.00  0.00    +0.000 C 
ATOM     32  C   UNL     1       0.691  16.801  18.932  0.00  0.00    +0.000 C 
ENDBRANCH  27  28
ENDBRANCH  26  27
ENDBRANCH  25  26
ENDBRANCH  24  25
ENDBRANCH  12  19
BRANCH   1  34
ATOM     33  C   UNL     1      -3.374  10.222  14.509  0.00  0.00    +0.000 C 
ATOM     34  O   UNL     1      -2.461  10.330  15.593  0.00  0.00    +0.000 OA
ENDBRANCH   1  34
TORSDOF 7
ENDMDL
MODEL 7
REMARK VINA RESULT:      -5.9      2.510      3.182
REMARK  Name = 
REMARK  10 active torsions:
REMARK  status: ('A' for Active; 'I' for Inactive)
REMARK    1  A    between atoms: C_1  and  O_2
REMARK    2  A    between atoms: O_2  and  C_3
REMARK    3  A    between atoms: C_10  and  C_11
REMARK    4  A    between atoms: C_10  and  C_12
REMARK    5  A    between atoms: C_13  and  C_14
REMARK    6  A    between atoms: C_20  and  C_21
REMARK    7  A    between atoms: C_26  and  O_27
REMARK    8  A    between atoms: O_27  and  C_28
REMARK    9  A    between atoms: C_28  and  C_29
REMARK   10  A    between atoms: C_29  and  N_30
REMARK                            x       y       z     vdW  Elec       q    Type
REMARK                         _______ _______ _______ _____ _____    ______ ____
ROOT
ATOM      1  C   UNL     1      -2.871  10.452  16.687  0.00  0.00    +0.000 A 
ATOM      2  C   UNL     1      -1.891  10.905  17.551  0.00  0.00    +0.000 A 
ATOM      3  C   UNL     1      -2.237  11.627  18.702  0.00  0.00    +0.000 A 
ATOM      4  C   UNL     1      -3.563  12.017  18.994  0.00  0.00    +0.000 A 
ATOM      5  C   UNL     1      -4.519  11.544  18.108  0.00  0.00    +0.000 A 
ATOM      6  C   UNL     1      -4.194  10.744  16.990  0.00  0.00    +0.000 A 
ATOM      7  O   UNL     1      -5.843  11.770  18.255  0.00  0.00    +0.000 OA
ATOM      8  C   UNL     1      -6.296  12.812  19.145  0.00  0.00    +0.000 C 
ATOM      9  C   UNL     1      -6.571  14.029  18.250  0.00  0.00    +0.000 C 
ATOM     10  C   UNL     1      -7.663  12.209  19.533  0.00  0.00    +0.000 C 
ATOM     11  C   UNL     1      -5.281  13.229  20.272  0.00  0.00    +0.000 C 
ATOM     12  C   UNL     1      -3.948  12.854  20.209  0.00  0.00    +0.000 C 
ENDROOT
BRANCH  11  13
ATOM     13  C   UNL     1      -5.840  14.051  21.434  0.00  0.00    +0.000 A 
ATOM     14  C   UNL     1      -5.647  15.438  21.513  0.00  0.00    +0.000 A 
ATOM     15  C   UNL     1      -5.755  16.128  22.734  0.00  0.00    +0.000 A 
ATOM     16  C   UNL     1      -6.200  15.478  23.879  0.00  0.00    +0.000 A 
ATOM     17  C   UNL     1      -6.571  14.147  23.795  0.00  0.00    +0.000 A 
ATOM     18  C   UNL     1      -6.366  13.440  22.601  0.00  0.00    +0.000 A 
ENDBRANCH  11  13
BRANCH  12  19
ATOM     19  C   UNL     1      -2.863  13.267  21.203  0.00  0.00    +0.000 A 
ATOM     20  C   UNL     1      -2.783  12.490  22.404  0.00  0.00    +0.000 A 
ATOM     21  C   UNL     1      -1.983  12.824  23.499  0.00  0.00    +0.000 A 
ATOM     22  C   UNL     1      -1.081  13.862  23.395  0.00  0.00    +0.000 A 
ATOM     23  C   UNL     1      -1.019  14.564  22.198  0.00  0.00    +0.000 A 
ATOM     24  C   UNL     1      -1.933  14.330  21.136  0.00  0.00    +0.000 A 
BRANCH  24  25
ATOM     25  O   UNL     1      -1.631  15.145  20.095  0.00  0.00    +0.000 OA
BRANCH  25  26
ATOM     26  C   UNL     1      -0.560  16.066  20.117  0.00  0.00    +0.000 C 
BRANCH  26  27
ATOM     27  C   UNL     1       0.495  15.781  19.070  0.00  0.00    +0.000 C 
BRANCH  27  28
ATOM     28  N   UNL     1       1.854  16.214  19.459  0.00  0.00    +0.000 NA
ATOM     29  C   UNL     1       2.778  16.326  18.314  0.00  0.00    +0.000 C 
ATOM     30  C   UNL     1       3.077  14.888  17.935  0.00  0.00    +0.000 C 
ATOM     31  C   UNL     1       3.016  14.146  19.266  0.00  0.00    +0.000 C 
ATOM     32  C   UNL     1       2.464  15.155  20.270  0.00  0.00    +0.000 C 
ENDBRANCH  27  28
ENDBRANCH  26  27
ENDBRANCH  25  26
ENDBRANCH  24  25
ENDBRANCH  12  19
BRANCH   1  34
ATOM     33  C   UNL     1      -2.982  10.012  14.361  0.00  0.00    +0.000 C 
ATOM     34  O   UNL     1      -2.415   9.717  15.631  0.00  0.00    +0.000 OA
ENDBRANCH   1  34
TORSDOF 7
ENDMDL
MODEL 8
REMARK VINA RESULT:      -5.8      2.761      6.213
REMARK  Name = 
REMARK  10 active torsions:
REMARK  status: ('A' for Active; 'I' for Inactive)
REMARK    1  A    between atoms: C_1  and  O_2
REMARK    2  A    between atoms: O_2  and  C_3
REMARK    3  A    between atoms: C_10  and  C_11
REMARK    4  A    between atoms: C_10  and  C_12
REMARK    5  A    between atoms: C_13  and  C_14
REMARK    6  A    between atoms: C_20  and  C_21
REMARK    7  A    between atoms: C_26  and  O_27
REMARK    8  A    between atoms: O_27  and  C_28
REMARK    9  A    between atoms: C_28  and  C_29
REMARK   10  A    between atoms: C_29  and  N_30
REMARK                            x       y       z     vdW  Elec       q    Type
REMARK                         _______ _______ _______ _____ _____    ______ ____
ROOT
ATOM      1  C   UNL     1       0.373   9.047  21.542  0.00  0.00    +0.000 A 
ATOM      2  C   UNL     1      -0.294   9.485  22.672  0.00  0.00    +0.000 A 
ATOM      3  C   UNL     1      -0.807  10.788  22.733  0.00  0.00    +0.000 A 
ATOM      4  C   UNL     1      -0.596  11.745  21.717  0.00  0.00    +0.000 A 
ATOM      5  C   UNL     1       0.075  11.271  20.598  0.00  0.00    +0.000 A 
ATOM      6  C   UNL     1       0.524   9.937  20.487  0.00  0.00    +0.000 A 
ATOM      7  O   UNL     1       0.321  12.027  19.506  0.00  0.00    +0.000 OA
ATOM      8  C   UNL     1       0.212  13.464  19.590  0.00  0.00    +0.000 C 
ATOM      9  C   UNL     1       1.644  13.975  19.803  0.00  0.00    +0.000 C 
ATOM     10  C   UNL     1      -0.167  13.755  18.122  0.00  0.00    +0.000 C 
ATOM     11  C   UNL     1      -0.699  14.007  20.752  0.00  0.00    +0.000 C 
ATOM     12  C   UNL     1      -1.094  13.184  21.795  0.00  0.00    +0.000 C 
ENDROOT
BRANCH  11  13
ATOM     13  C   UNL     1      -1.129  15.471  20.663  0.00  0.00    +0.000 A 
ATOM     14  C   UNL     1      -0.245  16.517  20.970  0.00  0.00    +0.000 A 
ATOM     15  C   UNL     1      -0.712  17.797  21.317  0.00  0.00    +0.000 A 
ATOM     16  C   UNL     1      -2.064  18.109  21.226  0.00  0.00    +0.000 A 
ATOM     17  C   UNL     1      -2.944  17.150  20.755  0.00  0.00    +0.000 A 
ATOM     18  C   UNL     1      -2.488  15.847  20.507  0.00  0.00    +0.000 A 
ENDBRANCH  11  13
BRANCH  12  19
ATOM     19  C   UNL     1      -1.911  13.624  23.010  0.00  0.00    +0.000 A 
ATOM     20  C   UNL     1      -1.288  14.585  23.871  0.00  0.00    +0.000 A 
ATOM     21  C   UNL     1      -1.799  14.967  25.114  0.00  0.00    +0.000 A 
ATOM     22  C   UNL     1      -3.054  14.542  25.497  0.00  0.00    +0.000 A 
ATOM     23  C   UNL     1      -3.763  13.716  24.633  0.00  0.00    +0.000 A 
ATOM     24  C   UNL     1      -3.190  13.201  23.440  0.00  0.00    +0.000 A 
BRANCH  24  25
ATOM     25  O   UNL     1      -4.107  12.440  22.793  0.00  0.00    +0.000 OA
BRANCH  25  26
ATOM     26  C   UNL     1      -5.219  12.980  22.109  0.00  0.00    +0.000 C 
BRANCH  26  27
ATOM     27  C   UNL     1      -5.519  12.273  20.805  0.00  0.00    +0.000 C 
BRANCH  27  28
ATOM     28  N   UNL     1      -6.942  11.912  20.635  0.00  0.00    +0.000 NA
ATOM     29  C   UNL     1      -7.136  10.579  20.032  0.00  0.00    +0.000 C 
ATOM     30  C   UNL     1      -6.755  10.770  18.577  0.00  0.00    +0.000 C 
ATOM     31  C   UNL     1      -7.165  12.210  18.283  0.00  0.00    +0.000 C 
ATOM     32  C   UNL     1      -7.533  12.811  19.637  0.00  0.00    +0.000 C 
ENDBRANCH  27  28
ENDBRANCH  26  27
ENDBRANCH  25  26
ENDBRANCH  24  25
ENDBRANCH  12  19
BRANCH   1  34
ATOM     33  C   UNL     1       1.741   7.352  20.609  0.00  0.00    +0.000 C 
ATOM     34  O   UNL     1       0.781   7.745  21.580  0.00  0.00    +0.000 OA
ENDBRANCH   1  34
TORSDOF 7
ENDMDL
MODEL 9
REMARK VINA RESULT:      -5.8      2.930      4.698
REMARK  Name = 
REMARK  10 active torsions:
REMARK  status: ('A' for Active; 'I' for Inactive)
REMARK    1  A    between atoms: C_1  and  O_2
REMARK    2  A    between atoms: O_2  and  C_3
REMARK    3  A    between atoms: C_10  and  C_11
REMARK    4  A    between atoms: C_10  and  C_12
REMARK    5  A    between atoms: C_13  and  C_14
REMARK    6  A    between atoms: C_20  and  C_21
REMARK    7  A    between atoms: C_26  and  O_27
REMARK    8  A    between atoms: O_27  and  C_28
REMARK    9  A    between atoms: C_28  and  C_29
REMARK   10  A    between atoms: C_29  and  N_30
REMARK                            x       y       z     vdW  Elec       q    Type
REMARK                         _______ _______ _______ _____ _____    ______ ____
ROOT
ATOM      1  C   UNL     1      -3.897  10.879  16.000  0.00  0.00    +0.000 A 
ATOM      2  C   UNL     1      -2.557  11.025  16.310  0.00  0.00    +0.000 A 
ATOM      3  C   UNL     1      -2.166  11.449  17.589  0.00  0.00    +0.000 A 
ATOM      4  C   UNL     1      -3.089  11.840  18.583  0.00  0.00    +0.000 A 
ATOM      5  C   UNL     1      -4.423  11.679  18.238  0.00  0.00    +0.000 A 
ATOM      6  C   UNL     1      -4.831  11.173  16.984  0.00  0.00    +0.000 A 
ATOM      7  O   UNL     1      -5.445  11.951  19.080  0.00  0.00    +0.000 OA
ATOM      8  C   UNL     1      -5.210  12.757  20.253  0.00  0.00    +0.000 C 
ATOM      9  C   UNL     1      -5.643  14.180  19.871  0.00  0.00    +0.000 C 
ATOM     10  C   UNL     1      -6.310  12.171  21.163  0.00  0.00    +0.000 C 
ATOM     11  C   UNL     1      -3.721  12.798  20.760  0.00  0.00    +0.000 C 
ATOM     12  C   UNL     1      -2.680  12.362  19.956  0.00  0.00    +0.000 C 
ENDROOT
BRANCH  11  13
ATOM     13  C   UNL     1      -3.489  13.330  22.174  0.00  0.00    +0.000 A 
ATOM     14  C   UNL     1      -3.532  12.486  23.294  0.00  0.00    +0.000 A 
ATOM     15  C   UNL     1      -3.758  12.989  24.588  0.00  0.00    +0.000 A 
ATOM     16  C   UNL     1      -3.801  14.359  24.819  0.00  0.00    +0.000 A 
ATOM     17  C   UNL     1      -3.583  15.226  23.761  0.00  0.00    +0.000 A 
ATOM     18  C   UNL     1      -3.459  14.719  22.459  0.00  0.00    +0.000 A 
ENDBRANCH  11  13
BRANCH  12  19
ATOM     19  C   UNL     1      -1.195  12.428  20.315  0.00  0.00    +0.000 A 
ATOM     20  C   UNL     1      -0.498  11.177  20.340  0.00  0.00    +0.000 A 
ATOM     21  C   UNL     1       0.805  11.018  20.817  0.00  0.00    +0.000 A 
ATOM     22  C   UNL     1       1.556  12.129  21.137  0.00  0.00    +0.000 A 
ATOM     23  C   UNL     1       0.972  13.383  20.998  0.00  0.00    +0.000 A 
ATOM     24  C   UNL     1      -0.399  13.544  20.662  0.00  0.00    +0.000 A 
BRANCH  24  25
ATOM     25  O   UNL     1      -0.690  14.867  20.584  0.00  0.00    +0.000 OA
BRANCH  25  26
ATOM     26  C   UNL     1      -1.187  15.484  19.415  0.00  0.00    +0.000 C 
BRANCH  26  27
ATOM     27  C   UNL     1      -0.114  16.170  18.599  0.00  0.00    +0.000 C 
BRANCH  27  28
ATOM     28  N   UNL     1      -0.011  17.624  18.849  0.00  0.00    +0.000 NA
ATOM     29  C   UNL     1      -0.875  18.428  17.964  0.00  0.00    +0.000 C 
ATOM     30  C   UNL     1      -0.190  18.362  16.613  0.00  0.00    +0.000 C 
ATOM     31  C   UNL     1       1.292  18.274  16.965  0.00  0.00    +0.000 C 
ATOM     32  C   UNL     1       1.338  18.064  18.476  0.00  0.00    +0.000 C 
ENDBRANCH  27  28
ENDBRANCH  26  27
ENDBRANCH  25  26
ENDBRANCH  24  25
ENDBRANCH  12  19
BRANCH   1  34
ATOM     33  C   UNL     1      -3.031   9.950  13.999  0.00  0.00    +0.000 C 
ATOM     34  O   UNL     1      -4.151  10.412  14.743  0.00  0.00    +0.000 OA
ENDBRANCH   1  34
TORSDOF 7
ENDMDL
