MODEL 1
REMARK VINA RESULT:      -6.0      0.000      0.000
REMARK  Name = 
REMARK  1 active torsions:
REMARK  status: ('A' for Active; 'I' for Inactive)
REMARK    1  A    between atoms: N_1  and  N_2
REMARK                            x       y       z     vdW  Elec       q    Type
REMARK                         _______ _______ _______ _____ _____    ______ ____
ROOT
ATOM      1  N   UNL     1       7.154   5.226  20.047  0.00  0.00    +0.000 NA
ATOM      2  C   UNL     1       6.393   5.172  18.991  0.00  0.00    +0.000 C 
ATOM      3  C   UNL     1       4.879   5.297  19.186  0.00  0.00    +0.000 C 
ATOM      4  C   UNL     1       4.252   6.159  18.077  0.00  0.00    +0.000 C 
ATOM      5  C   UNL     1       4.510   5.587  16.668  0.00  0.00    +0.000 C 
ATOM      6  C   UNL     1       5.928   5.179  16.532  0.00  0.00    +0.000 A 
ATOM      7  N   UNL     1       6.537   4.913  15.379  0.00  0.00    +0.000 NA
ATOM      8  O   UNL     1       7.835   4.550  15.756  0.00  0.00    +0.000 OA
ATOM      9  N   UNL     1       7.995   4.585  17.147  0.00  0.00    +0.000 NA
ATOM     10  C   UNL     1       6.808   4.988  17.608  0.00  0.00    +0.000 A 
ENDROOT
BRANCH   1  11
ATOM     11  N   UNL     1       8.494   5.209  19.887  0.00  0.00    +0.000 N 
ATOM     12  H   UNL     1       8.967   5.666  20.668  0.00  0.00    +0.000 HD
ATOM     13  H   UNL     1       8.896   4.273  19.772  0.00  0.00    +0.000 HD
ENDBRANCH   1  11
TORSDOF 1
ENDMDL
MODEL 2
REMARK VINA RESULT:      -5.7      4.138      4.725
REMARK  Name = 
REMARK  1 active torsions:
REMARK  status: ('A' for Active; 'I' for Inactive)
REMARK    1  A    between atoms: N_1  and  N_2
REMARK                            x       y       z     vdW  Elec       q    Type
REMARK                         _______ _______ _______ _____ _____    ______ ____
ROOT
ATOM      1  N   UNL     1       5.092   3.138  19.873  0.00  0.00    +0.000 NA
ATOM      2  C   UNL     1       3.792   3.067  19.846  0.00  0.00    +0.000 C 
ATOM      3  C   UNL     1       3.064   2.659  21.130  0.00  0.00    +0.000 C 
ATOM      4  C   UNL     1       1.783   3.488  21.323  0.00  0.00    +0.000 C 
ATOM      5  C   UNL     1       0.800   3.336  20.144  0.00  0.00    +0.000 C 
ATOM      6  C   UNL     1       1.524   3.440  18.856  0.00  0.00    +0.000 A 
ATOM      7  N   UNL     1       0.947   3.630  17.671  0.00  0.00    +0.000 NA
ATOM      8  O   UNL     1       2.018   3.630  16.769  0.00  0.00    +0.000 OA
ATOM      9  N   UNL     1       3.240   3.422  17.422  0.00  0.00    +0.000 NA
ATOM     10  C   UNL     1       2.914   3.319  18.713  0.00  0.00    +0.000 A 
ENDROOT
BRANCH   1  11
ATOM     11  N   UNL     1       5.745   3.584  18.779  0.00  0.00    +0.000 N 
ATOM     12  H   UNL     1       5.213   3.399  17.928  0.00  0.00    +0.000 HD
ATOM     13  H   UNL     1       5.978   4.582  18.802  0.00  0.00    +0.000 HD
ENDBRANCH   1  11
TORSDOF 1
ENDMDL
MODEL 3
REMARK VINA RESULT:      -5.6      2.250      3.175
REMARK  Name = 
REMARK  1 active torsions:
REMARK  status: ('A' for Active; 'I' for Inactive)
REMARK    1  A    between atoms: N_1  and  N_2
REMARK                            x       y       z     vdW  Elec       q    Type
REMARK                         _______ _______ _______ _____ _____    ______ ____
ROOT
ATOM      1  N   UNL     1       3.322   5.040  18.778  0.00  0.00    +0.000 NA
ATOM      2  C   UNL     1       4.392   4.695  18.120  0.00  0.00    +0.000 C 
ATOM      3  C   UNL     1       4.216   4.028  16.753  0.00  0.00    +0.000 C 
ATOM      4  C   UNL     1       5.263   4.543  15.752  0.00  0.00    +0.000 C 
ATOM      5  C   UNL     1       6.708   4.290  16.227  0.00  0.00    +0.000 C 
ATOM      6  C   UNL     1       6.851   4.661  17.654  0.00  0.00    +0.000 A 
ATOM      7  N   UNL     1       8.010   4.827  18.286  0.00  0.00    +0.000 NA
ATOM      8  O   UNL     1       7.640   5.136  19.600  0.00  0.00    +0.000 OA
ATOM      9  N   UNL     1       6.248   5.137  19.755  0.00  0.00    +0.000 NA
ATOM     10  C   UNL     1       5.778   4.853  18.537  0.00  0.00    +0.000 A 
ENDROOT
BRANCH   1  11
ATOM     11  N   UNL     1       3.458   5.710  19.941  0.00  0.00    +0.000 N 
ATOM     12  H   UNL     1       2.900   5.285  20.683  0.00  0.00    +0.000 HD
ATOM     13  H   UNL     1       4.425   5.792  20.273  0.00  0.00    +0.000 HD
ENDBRANCH   1  11
TORSDOF 1
ENDMDL
MODEL 4
REMARK VINA RESULT:      -5.6      4.654      4.952
REMARK  Name = 
REMARK  1 active torsions:
REMARK  status: ('A' for Active; 'I' for Inactive)
REMARK    1  A    between atoms: N_1  and  N_2
REMARK                            x       y       z     vdW  Elec       q    Type
REMARK                         _______ _______ _______ _____ _____    ______ ____
ROOT
ATOM      1  N   UNL     1       4.374   1.997  20.963  0.00  0.00    +0.000 NA
ATOM      2  C   UNL     1       3.288   2.606  20.580  0.00  0.00    +0.000 C 
ATOM      3  C   UNL     1       2.409   3.256  21.653  0.00  0.00    +0.000 C 
ATOM      4  C   UNL     1       1.864   4.610  21.169  0.00  0.00    +0.000 C 
ATOM      5  C   UNL     1       1.031   4.482  19.877  0.00  0.00    +0.000 C 
ATOM      6  C   UNL     1       1.726   3.610  18.903  0.00  0.00    +0.000 A 
ATOM      7  N   UNL     1       1.422   3.518  17.610  0.00  0.00    +0.000 NA
ATOM      8  O   UNL     1       2.319   2.562  17.118  0.00  0.00    +0.000 OA
ATOM      9  N   UNL     1       3.151   2.069  18.131  0.00  0.00    +0.000 NA
ATOM     10  C   UNL     1       2.777   2.738  19.224  0.00  0.00    +0.000 A 
ENDROOT
BRANCH   1  11
ATOM     11  N   UNL     1       5.207   1.497  20.026  0.00  0.00    +0.000 N 
ATOM     12  H   UNL     1       5.733   2.239  19.563  0.00  0.00    +0.000 HD
ATOM     13  H   UNL     1       5.874   0.802  20.379  0.00  0.00    +0.000 HD
ENDBRANCH   1  11
TORSDOF 1
ENDMDL
MODEL 5
REMARK VINA RESULT:      -5.6      1.326      3.168
REMARK  Name = 
REMARK  1 active torsions:
REMARK  status: ('A' for Active; 'I' for Inactive)
REMARK    1  A    between atoms: N_1  and  N_2
REMARK                            x       y       z     vdW  Elec       q    Type
REMARK                         _______ _______ _______ _____ _____    ______ ____
ROOT
ATOM      1  N   UNL     1       6.098   5.880  15.314  0.00  0.00    +0.000 NA
ATOM      2  C   UNL     1       5.727   5.893  16.563  0.00  0.00    +0.000 C 
ATOM      3  C   UNL     1       4.307   6.366  16.889  0.00  0.00    +0.000 C 
ATOM      4  C   UNL     1       3.681   5.500  17.995  0.00  0.00    +0.000 C 
ATOM      5  C   UNL     1       4.507   5.520  19.298  0.00  0.00    +0.000 C 
ATOM      6  C   UNL     1       5.947   5.350  18.996  0.00  0.00    +0.000 A 
ATOM      7  N   UNL     1       6.883   5.048  19.892  0.00  0.00    +0.000 NA
ATOM      8  O   UNL     1       8.069   5.026  19.150  0.00  0.00    +0.000 OA
ATOM      9  N   UNL     1       7.838   5.334  17.803  0.00  0.00    +0.000 NA
ATOM     10  C   UNL     1       6.518   5.520  17.726  0.00  0.00    +0.000 A 
ENDROOT
BRANCH   1  11
ATOM     11  N   UNL     1       7.312   5.381  14.998  0.00  0.00    +0.000 N 
ATOM     12  H   UNL     1       7.948   6.119  14.695  0.00  0.00    +0.000 HD
ATOM     13  H   UNL     1       7.764   4.856  15.754  0.00  0.00    +0.000 HD
ENDBRANCH   1  11
TORSDOF 1
ENDMDL
MODEL 6
REMARK VINA RESULT:      -5.6      4.929      5.736
REMARK  Name = 
REMARK  1 active torsions:
REMARK  status: ('A' for Active; 'I' for Inactive)
REMARK    1  A    between atoms: N_1  and  N_2
REMARK                            x       y       z     vdW  Elec       q    Type
REMARK                         _______ _______ _______ _____ _____    ______ ____
ROOT
ATOM      1  N   UNL     1       5.180   2.018  19.880  0.00  0.00    +0.000 NA
ATOM      2  C   UNL     1       4.025   2.545  19.582  0.00  0.00    +0.000 C 
ATOM      3  C   UNL     1       3.840   3.130  18.180  0.00  0.00    +0.000 C 
ATOM      4  C   UNL     1       2.443   2.799  17.627  0.00  0.00    +0.000 C 
ATOM      5  C   UNL     1       1.311   3.337  18.526  0.00  0.00    +0.000 C 
ATOM      6  C   UNL     1       1.600   3.037  19.948  0.00  0.00    +0.000 A 
ATOM      7  N   UNL     1       0.712   3.113  20.938  0.00  0.00    +0.000 NA
ATOM      8  O   UNL     1       1.448   2.772  22.079  0.00  0.00    +0.000 OA
ATOM      9  N   UNL     1       2.788   2.509  21.768  0.00  0.00    +0.000 NA
ATOM     10  C   UNL     1       2.858   2.666  20.443  0.00  0.00    +0.000 A 
ENDROOT
BRANCH   1  11
ATOM     11  N   UNL     1       5.333   1.417  21.078  0.00  0.00    +0.000 N 
ATOM     12  H   UNL     1       5.391   2.101  21.833  0.00  0.00    +0.000 HD
ATOM     13  H   UNL     1       4.596   0.742  21.312  0.00  0.00    +0.000 HD
ENDBRANCH   1  11
TORSDOF 1
ENDMDL
MODEL 7
REMARK VINA RESULT:      -5.5      3.892      4.329
REMARK  Name = 
REMARK  1 active torsions:
REMARK  status: ('A' for Active; 'I' for Inactive)
REMARK    1  A    between atoms: N_1  and  N_2
REMARK                            x       y       z     vdW  Elec       q    Type
REMARK                         _______ _______ _______ _____ _____    ______ ____
ROOT
ATOM      1  N   UNL     1       5.168   2.869  19.808  0.00  0.00    +0.000 NA
ATOM      2  C   UNL     1       4.344   3.753  19.321  0.00  0.00    +0.000 C 
ATOM      3  C   UNL     1       4.740   5.230  19.404  0.00  0.00    +0.000 C 
ATOM      4  C   UNL     1       4.358   5.974  18.113  0.00  0.00    +0.000 C 
ATOM      5  C   UNL     1       2.847   5.897  17.814  0.00  0.00    +0.000 C 
ATOM      6  C   UNL     1       2.356   4.513  18.005  0.00  0.00    +0.000 A 
ATOM      7  N   UNL     1       1.186   4.053  17.569  0.00  0.00    +0.000 NA
ATOM      8  O   UNL     1       1.159   2.724  18.008  0.00  0.00    +0.000 OA
ATOM      9  N   UNL     1       2.317   2.396  18.725  0.00  0.00    +0.000 NA
ATOM     10  C   UNL     1       3.050   3.512  18.702  0.00  0.00    +0.000 A 
ENDROOT
BRANCH   1  11
ATOM     11  N   UNL     1       4.879   1.558  19.663  0.00  0.00    +0.000 N 
ATOM     12  H   UNL     1       5.419   0.985  20.312  0.00  0.00    +0.000 HD
ATOM     13  H   UNL     1       3.886   1.327  19.780  0.00  0.00    +0.000 HD
ENDBRANCH   1  11
TORSDOF 1
ENDMDL
MODEL 8
REMARK VINA RESULT:      -5.5      4.041      5.188
REMARK  Name = 
REMARK  1 active torsions:
REMARK  status: ('A' for Active; 'I' for Inactive)
REMARK    1  A    between atoms: N_1  and  N_2
REMARK                            x       y       z     vdW  Elec       q    Type
REMARK                         _______ _______ _______ _____ _____    ______ ____
ROOT
ATOM      1  N   UNL     1       3.763   3.783  17.143  0.00  0.00    +0.000 NA
ATOM      2  C   UNL     1       3.128   3.623  18.269  0.00  0.00    +0.000 C 
ATOM      3  C   UNL     1       1.703   4.171  18.378  0.00  0.00    +0.000 C 
ATOM      4  C   UNL     1       0.798   3.197  19.152  0.00  0.00    +0.000 C 
ATOM      5  C   UNL     1       1.317   2.917  20.578  0.00  0.00    +0.000 C 
ATOM      6  C   UNL     1       2.775   2.660  20.552  0.00  0.00    +0.000 A 
ATOM      7  N   UNL     1       3.472   2.121  21.550  0.00  0.00    +0.000 NA
ATOM      8  O   UNL     1       4.789   2.108  21.076  0.00  0.00    +0.000 OA
ATOM      9  N   UNL     1       4.878   2.659  19.792  0.00  0.00    +0.000 NA
ATOM     10  C   UNL     1       3.621   2.983  19.480  0.00  0.00    +0.000 A 
ENDROOT
BRANCH   1  11
ATOM     11  N   UNL     1       4.985   3.228  16.997  0.00  0.00    +0.000 N 
ATOM     12  H   UNL     1       5.095   2.409  17.595  0.00  0.00    +0.000 HD
ATOM     13  H   UNL     1       5.215   2.957  16.035  0.00  0.00    +0.000 HD
ENDBRANCH   1  11
TORSDOF 1
ENDMDL
MODEL 9
REMARK VINA RESULT:      -5.5      4.808      5.172
REMARK  Name = 
REMARK  1 active torsions:
REMARK  status: ('A' for Active; 'I' for Inactive)
REMARK    1  A    between atoms: N_1  and  N_2
REMARK                            x       y       z     vdW  Elec       q    Type
REMARK                         _______ _______ _______ _____ _____    ______ ____
ROOT
ATOM      1  N   UNL     1       2.045   3.605  21.867  0.00  0.00    +0.000 NA
ATOM      2  C   UNL     1       1.982   4.168  20.694  0.00  0.00    +0.000 C 
ATOM      3  C   UNL     1       1.863   5.694  20.632  0.00  0.00    +0.000 C 
ATOM      4  C   UNL     1       2.725   6.265  19.494  0.00  0.00    +0.000 C 
ATOM      5  C   UNL     1       2.334   5.696  18.115  0.00  0.00    +0.000 C 
ATOM      6  C   UNL     1       2.154   4.228  18.199  0.00  0.00    +0.000 A 
ATOM      7  N   UNL     1       2.091   3.407  17.152  0.00  0.00    +0.000 NA
ATOM      8  O   UNL     1       1.889   2.145  17.723  0.00  0.00    +0.000 OA
ATOM      9  N   UNL     1       1.815   2.219  19.120  0.00  0.00    +0.000 NA
ATOM     10  C   UNL     1       1.993   3.513  19.395  0.00  0.00    +0.000 A 
ENDROOT
BRANCH   1  11
ATOM     11  N   UNL     1       2.241   2.271  21.941  0.00  0.00    +0.000 N 
ATOM     12  H   UNL     1       1.377   1.781  22.172  0.00  0.00    +0.000 HD
ATOM     13  H   UNL     1       2.632   1.852  21.090  0.00  0.00    +0.000 HD
ENDBRANCH   1  11
TORSDOF 1
ENDMDL
