MODEL 1
REMARK VINA RESULT:      -7.2      0.000      0.000
REMARK  Name = 
REMARK  8 active torsions:
REMARK  status: ('A' for Active; 'I' for Inactive)
REMARK    1  A    between atoms: C_2  and  O_3
REMARK    2  A    between atoms: C_2  and  C_4
REMARK    3  A    between atoms: N_6  and  C_7
REMARK    4  A    between atoms: N_6  and  C_20
REMARK    5  A    between atoms: C_12  and  C_13
REMARK    6  A    between atoms: C_13  and  C_14
REMARK    7  A    between atoms: C_25  and  C_26
REMARK    8  A    between atoms: C_26  and  O_28
REMARK                            x       y       z     vdW  Elec       q    Type
REMARK                         _______ _______ _______ _____ _____    ______ ____
ROOT
ATOM      1  C   UNL     1       3.601   3.614  16.809  0.00  0.00    +0.000 C 
ATOM      2  O   UNL     1       2.614   2.924  16.567  0.00  0.00    +0.000 OA
ATOM      3  N   UNL     1       3.843   4.294  18.011  0.00  0.00    +0.000 N 
ENDROOT
BRANCH   3   4
ATOM      4  C   UNL     1       4.907   5.234  18.187  0.00  0.00    +0.000 A 
ATOM      5  C   UNL     1       6.098   4.747  18.764  0.00  0.00    +0.000 A 
ATOM      6  C   UNL     1       7.229   5.554  18.869  0.00  0.00    +0.000 A 
ATOM      7  C   UNL     1       7.184   6.863  18.410  0.00  0.00    +0.000 A 
ATOM      8  C   UNL     1       5.998   7.376  17.882  0.00  0.00    +0.000 A 
ATOM      9  C   UNL     1       4.834   6.588  17.777  0.00  0.00    +0.000 A 
BRANCH   9  10
ATOM     10  C   UNL     1       3.595   7.234  17.183  0.00  0.00    +0.000 C 
BRANCH  10  11
ATOM     11  C   UNL     1       2.742   8.112  18.089  0.00  0.00    +0.000 A 
ATOM     12  C   UNL     1       2.085   9.237  17.564  0.00  0.00    +0.000 A 
ATOM     13  C   UNL     1       1.144   9.939  18.324  0.00  0.00    +0.000 A 
ATOM     14  C   UNL     1       0.849   9.532  19.622  0.00  0.00    +0.000 A 
ATOM     15  C   UNL     1       1.524   8.446  20.173  0.00  0.00    +0.000 A 
ATOM     16  C   UNL     1       2.469   7.748  19.414  0.00  0.00    +0.000 A 
ENDBRANCH  10  11
ENDBRANCH   9  10
ENDBRANCH   3   4
BRANCH   3  17
ATOM     17  C   UNL     1       3.102   3.946  19.193  0.00  0.00    +0.000 A 
ATOM     18  C   UNL     1       2.123   4.864  19.613  0.00  0.00    +0.000 A 
ATOM     19  C   UNL     1       1.296   4.611  20.708  0.00  0.00    +0.000 A 
ATOM     20  C   UNL     1       1.432   3.427  21.416  0.00  0.00    +0.000 A 
ATOM     21  C   UNL     1       2.411   2.509  21.040  0.00  0.00    +0.000 A 
ATOM     22  C   UNL     1       3.263   2.757  19.938  0.00  0.00    +0.000 A 
BRANCH  22  23
ATOM     23  C   UNL     1       4.412   1.826  19.721  0.00  0.00    +0.000 C 
ATOM     24  O   UNL     1       5.326   1.590  20.492  0.00  0.00    +0.000 OA
BRANCH  23  25
ATOM     25  O   UNL     1       4.306   1.154  18.555  0.00  0.00    +0.000 OA
ATOM     26  H   UNL     1       3.622   1.621  18.032  0.00  0.00    +0.000 HD
ENDBRANCH  23  25
ENDBRANCH  22  23
ENDBRANCH   3  17
BRANCH   1  28
ATOM     27  O   UNL     1       4.833   4.397  14.857  0.00  0.00    +0.000 OA
ATOM     28  C   UNL     1       4.741   3.604  15.769  0.00  0.00    +0.000 C 
BRANCH  28  29
ATOM     29  O   UNL     1       5.570   2.558  15.972  0.00  0.00    +0.000 OA
ATOM     30  H   UNL     1       5.065   1.708  16.020  0.00  0.00    +0.000 HD
ENDBRANCH  28  29
ENDBRANCH   1  28
TORSDOF 8
ENDMDL
MODEL 2
REMARK VINA RESULT:      -7.2      2.383      5.249
REMARK  Name = 
REMARK  8 active torsions:
REMARK  status: ('A' for Active; 'I' for Inactive)
REMARK    1  A    between atoms: C_2  and  O_3
REMARK    2  A    between atoms: C_2  and  C_4
REMARK    3  A    between atoms: N_6  and  C_7
REMARK    4  A    between atoms: N_6  and  C_20
REMARK    5  A    between atoms: C_12  and  C_13
REMARK    6  A    between atoms: C_13  and  C_14
REMARK    7  A    between atoms: C_25  and  C_26
REMARK    8  A    between atoms: C_26  and  O_28
REMARK                            x       y       z     vdW  Elec       q    Type
REMARK                         _______ _______ _______ _____ _____    ______ ____
ROOT
ATOM      1  C   UNL     1       2.792   3.771  17.948  0.00  0.00    +0.000 C 
ATOM      2  O   UNL     1       1.569   3.738  17.844  0.00  0.00    +0.000 OA
ATOM      3  N   UNL     1       3.567   4.933  18.078  0.00  0.00    +0.000 N 
ENDROOT
BRANCH   3   4
ATOM      4  C   UNL     1       4.996   4.942  18.009  0.00  0.00    +0.000 A 
ATOM      5  C   UNL     1       5.689   5.205  19.208  0.00  0.00    +0.000 A 
ATOM      6  C   UNL     1       7.078   5.120  19.269  0.00  0.00    +0.000 A 
ATOM      7  C   UNL     1       7.797   4.784  18.130  0.00  0.00    +0.000 A 
ATOM      8  C   UNL     1       7.129   4.570  16.923  0.00  0.00    +0.000 A 
ATOM      9  C   UNL     1       5.727   4.663  16.828  0.00  0.00    +0.000 A 
BRANCH   9  10
ATOM     10  C   UNL     1       5.091   4.407  15.472  0.00  0.00    +0.000 C 
BRANCH  10  11
ATOM     11  C   UNL     1       6.009   4.300  14.261  0.00  0.00    +0.000 A 
ATOM     12  C   UNL     1       5.692   3.419  13.213  0.00  0.00    +0.000 A 
ATOM     13  C   UNL     1       6.405   3.448  12.011  0.00  0.00    +0.000 A 
ATOM     14  C   UNL     1       7.450   4.352  11.839  0.00  0.00    +0.000 A 
ATOM     15  C   UNL     1       7.805   5.201  12.884  0.00  0.00    +0.000 A 
ATOM     16  C   UNL     1       7.095   5.168  14.088  0.00  0.00    +0.000 A 
ENDBRANCH  10  11
ENDBRANCH   9  10
ENDBRANCH   3   4
BRANCH   3  17
ATOM     17  C   UNL     1       2.941   6.173  18.450  0.00  0.00    +0.000 A 
ATOM     18  C   UNL     1       3.202   7.281  17.623  0.00  0.00    +0.000 A 
ATOM     19  C   UNL     1       2.604   8.522  17.843  0.00  0.00    +0.000 A 
ATOM     20  C   UNL     1       1.728   8.687  18.905  0.00  0.00    +0.000 A 
ATOM     21  C   UNL     1       1.470   7.615  19.757  0.00  0.00    +0.000 A 
ATOM     22  C   UNL     1       2.077   6.354  19.552  0.00  0.00    +0.000 A 
BRANCH  22  23
ATOM     23  C   UNL     1       1.909   5.318  20.616  0.00  0.00    +0.000 C 
ATOM     24  O   UNL     1       2.686   5.056  21.518  0.00  0.00    +0.000 OA
BRANCH  23  25
ATOM     25  O   UNL     1       0.706   4.709  20.545  0.00  0.00    +0.000 OA
ATOM     26  H   UNL     1       0.051   5.361  20.870  0.00  0.00    +0.000 HD
ENDBRANCH  23  25
ENDBRANCH  22  23
ENDBRANCH   3  17
BRANCH   1  28
ATOM     27  O   UNL     1       3.780   1.676  17.189  0.00  0.00    +0.000 OA
ATOM     28  C   UNL     1       3.523   2.422  18.109  0.00  0.00    +0.000 C 
BRANCH  28  29
ATOM     29  O   UNL     1       3.769   2.159  19.411  0.00  0.00    +0.000 OA
ATOM     30  H   UNL     1       2.928   2.136  19.933  0.00  0.00    +0.000 HD
ENDBRANCH  28  29
ENDBRANCH   1  28
TORSDOF 8
ENDMDL
MODEL 3
REMARK VINA RESULT:      -7.0      2.326      5.234
REMARK  Name = 
REMARK  8 active torsions:
REMARK  status: ('A' for Active; 'I' for Inactive)
REMARK    1  A    between atoms: C_2  and  O_3
REMARK    2  A    between atoms: C_2  and  C_4
REMARK    3  A    between atoms: N_6  and  C_7
REMARK    4  A    between atoms: N_6  and  C_20
REMARK    5  A    between atoms: C_12  and  C_13
REMARK    6  A    between atoms: C_13  and  C_14
REMARK    7  A    between atoms: C_25  and  C_26
REMARK    8  A    between atoms: C_26  and  O_28
REMARK                            x       y       z     vdW  Elec       q    Type
REMARK                         _______ _______ _______ _____ _____    ______ ____
ROOT
ATOM      1  C   UNL     1       3.058   3.588  18.375  0.00  0.00    +0.000 C 
ATOM      2  O   UNL     1       1.834   3.485  18.343  0.00  0.00    +0.000 OA
ATOM      3  N   UNL     1       3.775   4.790  18.299  0.00  0.00    +0.000 N 
ENDROOT
BRANCH   3   4
ATOM      4  C   UNL     1       5.196   4.855  18.151  0.00  0.00    +0.000 A 
ATOM      5  C   UNL     1       5.934   5.293  19.269  0.00  0.00    +0.000 A 
ATOM      6  C   UNL     1       7.327   5.279  19.262  0.00  0.00    +0.000 A 
ATOM      7  C   UNL     1       8.005   4.838  18.135  0.00  0.00    +0.000 A 
ATOM      8  C   UNL     1       7.290   4.447  17.001  0.00  0.00    +0.000 A 
ATOM      9  C   UNL     1       5.882   4.465  16.973  0.00  0.00    +0.000 A 
BRANCH   9  10
ATOM     10  C   UNL     1       5.194   4.016  15.695  0.00  0.00    +0.000 C 
BRANCH  10  11
ATOM     11  C   UNL     1       5.908   4.265  14.374  0.00  0.00    +0.000 A 
ATOM     12  C   UNL     1       6.989   5.161  14.315  0.00  0.00    +0.000 A 
ATOM     13  C   UNL     1       7.782   5.255  13.167  0.00  0.00    +0.000 A 
ATOM     14  C   UNL     1       7.505   4.461  12.058  0.00  0.00    +0.000 A 
ATOM     15  C   UNL     1       6.410   3.600  12.084  0.00  0.00    +0.000 A 
ATOM     16  C   UNL     1       5.614   3.510  13.230  0.00  0.00    +0.000 A 
ENDBRANCH  10  11
ENDBRANCH   9  10
ENDBRANCH   3   4
BRANCH   3  17
ATOM     17  C   UNL     1       3.104   6.042  18.529  0.00  0.00    +0.000 A 
ATOM     18  C   UNL     1       3.410   7.091  17.644  0.00  0.00    +0.000 A 
ATOM     19  C   UNL     1       2.778   8.332  17.725  0.00  0.00    +0.000 A 
ATOM     20  C   UNL     1       1.821   8.556  18.702  0.00  0.00    +0.000 A 
ATOM     21  C   UNL     1       1.515   7.544  19.610  0.00  0.00    +0.000 A 
ATOM     22  C   UNL     1       2.155   6.284  19.547  0.00  0.00    +0.000 A 
BRANCH  22  23
ATOM     23  C   UNL     1       1.922   5.325  20.669  0.00  0.00    +0.000 C 
ATOM     24  O   UNL     1       2.672   5.085  21.600  0.00  0.00    +0.000 OA
BRANCH  23  25
ATOM     25  O   UNL     1       0.693   4.770  20.615  0.00  0.00    +0.000 OA
ATOM     26  H   UNL     1       0.179   5.174  21.343  0.00  0.00    +0.000 HD
ENDBRANCH  23  25
ENDBRANCH  22  23
ENDBRANCH   3  17
BRANCH   1  28
ATOM     27  O   UNL     1       4.394   2.081  19.747  0.00  0.00    +0.000 OA
ATOM     28  C   UNL     1       3.865   2.310  18.680  0.00  0.00    +0.000 C 
BRANCH  28  29
ATOM     29  O   UNL     1       3.961   1.527  17.585  0.00  0.00    +0.000 OA
ATOM     30  H   UNL     1       4.907   1.391  17.326  0.00  0.00    +0.000 HD
ENDBRANCH  28  29
ENDBRANCH   1  28
TORSDOF 8
ENDMDL
MODEL 4
REMARK VINA RESULT:      -6.8      5.529      8.661
REMARK  Name = 
REMARK  8 active torsions:
REMARK  status: ('A' for Active; 'I' for Inactive)
REMARK    1  A    between atoms: C_2  and  O_3
REMARK    2  A    between atoms: C_2  and  C_4
REMARK    3  A    between atoms: N_6  and  C_7
REMARK    4  A    between atoms: N_6  and  C_20
REMARK    5  A    between atoms: C_12  and  C_13
REMARK    6  A    between atoms: C_13  and  C_14
REMARK    7  A    between atoms: C_25  and  C_26
REMARK    8  A    between atoms: C_26  and  O_28
REMARK                            x       y       z     vdW  Elec       q    Type
REMARK                         _______ _______ _______ _____ _____    ______ ____
ROOT
ATOM      1  C   UNL     1       0.459  12.680  18.736  0.00  0.00    +0.000 C 
ATOM      2  O   UNL     1      -0.010  13.621  18.102  0.00  0.00    +0.000 OA
ATOM      3  N   UNL     1      -0.260  11.565  19.191  0.00  0.00    +0.000 N 
ENDROOT
BRANCH   3   4
ATOM      4  C   UNL     1       0.279  10.585  20.082  0.00  0.00    +0.000 A 
ATOM      5  C   UNL     1      -0.005  10.748  21.454  0.00  0.00    +0.000 A 
ATOM      6  C   UNL     1       0.376   9.784  22.385  0.00  0.00    +0.000 A 
ATOM      7  C   UNL     1       1.055   8.650  21.964  0.00  0.00    +0.000 A 
ATOM      8  C   UNL     1       1.388   8.498  20.616  0.00  0.00    +0.000 A 
ATOM      9  C   UNL     1       1.029   9.462  19.653  0.00  0.00    +0.000 A 
BRANCH   9  10
ATOM     10  C   UNL     1       1.430   9.205  18.211  0.00  0.00    +0.000 C 
BRANCH  10  11
ATOM     11  C   UNL     1       2.227   7.944  17.905  0.00  0.00    +0.000 A 
ATOM     12  C   UNL     1       3.559   8.041  17.468  0.00  0.00    +0.000 A 
ATOM     13  C   UNL     1       4.368   6.904  17.373  0.00  0.00    +0.000 A 
ATOM     14  C   UNL     1       3.857   5.653  17.705  0.00  0.00    +0.000 A 
ATOM     15  C   UNL     1       2.526   5.533  18.097  0.00  0.00    +0.000 A 
ATOM     16  C   UNL     1       1.716   6.669  18.187  0.00  0.00    +0.000 A 
ENDBRANCH  10  11
ENDBRANCH   9  10
ENDBRANCH   3   4
BRANCH   3  17
ATOM     17  C   UNL     1      -1.556  11.275  18.638  0.00  0.00    +0.000 A 
ATOM     18  C   UNL     1      -1.581  10.475  17.482  0.00  0.00    +0.000 A 
ATOM     19  C   UNL     1      -2.778  10.072  16.888  0.00  0.00    +0.000 A 
ATOM     20  C   UNL     1      -3.987  10.467  17.439  0.00  0.00    +0.000 A 
ATOM     21  C   UNL     1      -3.995  11.282  18.569  0.00  0.00    +0.000 A 
ATOM     22  C   UNL     1      -2.789  11.707  19.176  0.00  0.00    +0.000 A 
BRANCH  22  23
ATOM     23  C   UNL     1      -2.875  12.735  20.256  0.00  0.00    +0.000 C 
ATOM     24  O   UNL     1      -3.136  12.549  21.432  0.00  0.00    +0.000 OA
BRANCH  23  25
ATOM     25  O   UNL     1      -2.533  13.964  19.813  0.00  0.00    +0.000 OA
ATOM     26  H   UNL     1      -1.608  13.893  19.500  0.00  0.00    +0.000 HD
ENDBRANCH  23  25
ENDBRANCH  22  23
ENDBRANCH   3  17
BRANCH   1  28
ATOM     27  O   UNL     1       2.566  12.975  19.925  0.00  0.00    +0.000 OA
ATOM     28  C   UNL     1       1.991  12.641  18.912  0.00  0.00    +0.000 C 
BRANCH  28  29
ATOM     29  O   UNL     1       2.598  12.258  17.768  0.00  0.00    +0.000 OA
ATOM     30  H   UNL     1       3.361  12.851  17.554  0.00  0.00    +0.000 HD
ENDBRANCH  28  29
ENDBRANCH   1  28
TORSDOF 8
ENDMDL
MODEL 5
REMARK VINA RESULT:      -6.7      2.226      4.988
REMARK  Name = 
REMARK  8 active torsions:
REMARK  status: ('A' for Active; 'I' for Inactive)
REMARK    1  A    between atoms: C_2  and  O_3
REMARK    2  A    between atoms: C_2  and  C_4
REMARK    3  A    between atoms: N_6  and  C_7
REMARK    4  A    between atoms: N_6  and  C_20
REMARK    5  A    between atoms: C_12  and  C_13
REMARK    6  A    between atoms: C_13  and  C_14
REMARK    7  A    between atoms: C_25  and  C_26
REMARK    8  A    between atoms: C_26  and  O_28
REMARK                            x       y       z     vdW  Elec       q    Type
REMARK                         _______ _______ _______ _____ _____    ______ ____
ROOT
ATOM      1  C   UNL     1       5.509   3.833  19.230  0.00  0.00    +0.000 C 
ATOM      2  O   UNL     1       5.555   2.835  19.945  0.00  0.00    +0.000 OA
ATOM      3  N   UNL     1       4.342   4.401  18.700  0.00  0.00    +0.000 N 
ENDROOT
BRANCH   3   4
ATOM      4  C   UNL     1       4.344   5.447  17.725  0.00  0.00    +0.000 A 
ATOM      5  C   UNL     1       3.848   6.701  18.135  0.00  0.00    +0.000 A 
ATOM      6  C   UNL     1       3.917   7.811  17.296  0.00  0.00    +0.000 A 
ATOM      7  C   UNL     1       4.471   7.684  16.031  0.00  0.00    +0.000 A 
ATOM      8  C   UNL     1       4.923   6.438  15.590  0.00  0.00    +0.000 A 
ATOM      9  C   UNL     1       4.852   5.295  16.411  0.00  0.00    +0.000 A 
BRANCH   9  10
ATOM     10  C   UNL     1       5.374   3.985  15.845  0.00  0.00    +0.000 C 
BRANCH  10  11
ATOM     11  C   UNL     1       6.108   4.025  14.511  0.00  0.00    +0.000 A 
ATOM     12  C   UNL     1       5.556   3.392  13.385  0.00  0.00    +0.000 A 
ATOM     13  C   UNL     1       6.106   3.581  12.113  0.00  0.00    +0.000 A 
ATOM     14  C   UNL     1       7.219   4.400  11.948  0.00  0.00    +0.000 A 
ATOM     15  C   UNL     1       7.805   4.999  13.060  0.00  0.00    +0.000 A 
ATOM     16  C   UNL     1       7.258   4.805  14.332  0.00  0.00    +0.000 A 
ENDBRANCH  10  11
ENDBRANCH   9  10
ENDBRANCH   3   4
BRANCH   3  17
ATOM     17  C   UNL     1       3.060   4.047  19.249  0.00  0.00    +0.000 A 
ATOM     18  C   UNL     1       2.625   4.793  20.359  0.00  0.00    +0.000 A 
ATOM     19  C   UNL     1       1.373   4.588  20.940  0.00  0.00    +0.000 A 
ATOM     20  C   UNL     1       0.523   3.622  20.423  0.00  0.00    +0.000 A 
ATOM     21  C   UNL     1       0.937   2.849  19.341  0.00  0.00    +0.000 A 
ATOM     22  C   UNL     1       2.207   3.039  18.747  0.00  0.00    +0.000 A 
BRANCH  22  23
ATOM     23  C   UNL     1       2.657   2.045  17.727  0.00  0.00    +0.000 C 
ATOM     24  O   UNL     1       2.428   2.062  16.529  0.00  0.00    +0.000 OA
BRANCH  23  25
ATOM     25  O   UNL     1       3.468   1.105  18.258  0.00  0.00    +0.000 OA
ATOM     26  H   UNL     1       2.938   0.283  18.305  0.00  0.00    +0.000 HD
ENDBRANCH  23  25
ENDBRANCH  22  23
ENDBRANCH   3  17
BRANCH   1  28
ATOM     27  O   UNL     1       7.627   4.378  18.154  0.00  0.00    +0.000 OA
ATOM     28  C   UNL     1       6.822   4.617  19.029  0.00  0.00    +0.000 C 
BRANCH  28  29
ATOM     29  O   UNL     1       6.982   5.547  19.995  0.00  0.00    +0.000 OA
ATOM     30  H   UNL     1       7.538   6.300  19.675  0.00  0.00    +0.000 HD
ENDBRANCH  28  29
ENDBRANCH   1  28
TORSDOF 8
ENDMDL
MODEL 6
REMARK VINA RESULT:      -6.7      7.092      9.832
REMARK  Name = 
REMARK  8 active torsions:
REMARK  status: ('A' for Active; 'I' for Inactive)
REMARK    1  A    between atoms: C_2  and  O_3
REMARK    2  A    between atoms: C_2  and  C_4
REMARK    3  A    between atoms: N_6  and  C_7
REMARK    4  A    between atoms: N_6  and  C_20
REMARK    5  A    between atoms: C_12  and  C_13
REMARK    6  A    between atoms: C_13  and  C_14
REMARK    7  A    between atoms: C_25  and  C_26
REMARK    8  A    between atoms: C_26  and  O_28
REMARK                            x       y       z     vdW  Elec       q    Type
REMARK                         _______ _______ _______ _____ _____    ______ ____
ROOT
ATOM      1  C   UNL     1      -0.327  12.741  18.934  0.00  0.00    +0.000 C 
ATOM      2  O   UNL     1      -0.594  13.655  18.158  0.00  0.00    +0.000 OA
ATOM      3  N   UNL     1      -1.263  11.977  19.644  0.00  0.00    +0.000 N 
ENDROOT
BRANCH   3   4
ATOM      4  C   UNL     1      -0.910  11.052  20.676  0.00  0.00    +0.000 A 
ATOM      5  C   UNL     1      -0.734   9.707  20.292  0.00  0.00    +0.000 A 
ATOM      6  C   UNL     1      -0.275   8.754  21.200  0.00  0.00    +0.000 A 
ATOM      7  C   UNL     1       0.002   9.127  22.507  0.00  0.00    +0.000 A 
ATOM      8  C   UNL     1      -0.214  10.444  22.917  0.00  0.00    +0.000 A 
ATOM      9  C   UNL     1      -0.691  11.426  22.025  0.00  0.00    +0.000 A 
BRANCH   9  10
ATOM     10  C   UNL     1      -0.889  12.833  22.563  0.00  0.00    +0.000 C 
BRANCH  10  11
ATOM     11  C   UNL     1      -2.286  13.235  23.015  0.00  0.00    +0.000 A 
ATOM     12  C   UNL     1      -3.129  12.289  23.623  0.00  0.00    +0.000 A 
ATOM     13  C   UNL     1      -4.330  12.679  24.223  0.00  0.00    +0.000 A 
ATOM     14  C   UNL     1      -4.712  14.017  24.219  0.00  0.00    +0.000 A 
ATOM     15  C   UNL     1      -3.910  14.961  23.582  0.00  0.00    +0.000 A 
ATOM     16  C   UNL     1      -2.711  14.570  22.978  0.00  0.00    +0.000 A 
ENDBRANCH  10  11
ENDBRANCH   9  10
ENDBRANCH   3   4
BRANCH   3  17
ATOM     17  C   UNL     1      -2.645  11.982  19.243  0.00  0.00    +0.000 A 
ATOM     18  C   UNL     1      -3.569  12.480  20.178  0.00  0.00    +0.000 A 
ATOM     19  C   UNL     1      -4.928  12.595  19.883  0.00  0.00    +0.000 A 
ATOM     20  C   UNL     1      -5.398  12.208  18.638  0.00  0.00    +0.000 A 
ATOM     21  C   UNL     1      -4.511  11.686  17.699  0.00  0.00    +0.000 A 
ATOM     22  C   UNL     1      -3.132  11.554  17.988  0.00  0.00    +0.000 A 
BRANCH  22  23
ATOM     23  C   UNL     1      -2.283  10.805  17.013  0.00  0.00    +0.000 C 
ATOM     24  O   UNL     1      -1.957   9.632  17.068  0.00  0.00    +0.000 OA
BRANCH  23  25
ATOM     25  O   UNL     1      -1.951  11.561  15.944  0.00  0.00    +0.000 OA
ATOM     26  H   UNL     1      -2.644  11.400  15.271  0.00  0.00    +0.000 HD
ENDBRANCH  23  25
ENDBRANCH  22  23
ENDBRANCH   3  17
BRANCH   1  28
ATOM     27  O   UNL     1       1.953  12.754  19.796  0.00  0.00    +0.000 OA
ATOM     28  C   UNL     1       1.147  12.294  19.016  0.00  0.00    +0.000 C 
BRANCH  28  29
ATOM     29  O   UNL     1       1.428  11.382  18.061  0.00  0.00    +0.000 OA
ATOM     30  H   UNL     1       0.839  11.498  17.274  0.00  0.00    +0.000 HD
ENDBRANCH  28  29
ENDBRANCH   1  28
TORSDOF 8
ENDMDL
MODEL 7
REMARK VINA RESULT:      -6.6      5.553      8.719
REMARK  Name = 
REMARK  8 active torsions:
REMARK  status: ('A' for Active; 'I' for Inactive)
REMARK    1  A    between atoms: C_2  and  O_3
REMARK    2  A    between atoms: C_2  and  C_4
REMARK    3  A    between atoms: N_6  and  C_7
REMARK    4  A    between atoms: N_6  and  C_20
REMARK    5  A    between atoms: C_12  and  C_13
REMARK    6  A    between atoms: C_13  and  C_14
REMARK    7  A    between atoms: C_25  and  C_26
REMARK    8  A    between atoms: C_26  and  O_28
REMARK                            x       y       z     vdW  Elec       q    Type
REMARK                         _______ _______ _______ _____ _____    ______ ____
ROOT
ATOM      1  C   UNL     1       0.419  12.621  18.708  0.00  0.00    +0.000 C 
ATOM      2  O   UNL     1      -0.023  13.537  18.019  0.00  0.00    +0.000 OA
ATOM      3  N   UNL     1      -0.324  11.536  19.192  0.00  0.00    +0.000 N 
ENDROOT
BRANCH   3   4
ATOM      4  C   UNL     1       0.180  10.593  20.142  0.00  0.00    +0.000 A 
ATOM      5  C   UNL     1      -0.114  10.837  21.499  0.00  0.00    +0.000 A 
ATOM      6  C   UNL     1       0.231   9.916  22.486  0.00  0.00    +0.000 A 
ATOM      7  C   UNL     1       0.886   8.744  22.136  0.00  0.00    +0.000 A 
ATOM      8  C   UNL     1       1.228   8.510  20.802  0.00  0.00    +0.000 A 
ATOM      9  C   UNL     1       0.905   9.429  19.784  0.00  0.00    +0.000 A 
BRANCH   9  10
ATOM     10  C   UNL     1       1.314   9.083  18.363  0.00  0.00    +0.000 C 
BRANCH  10  11
ATOM     11  C   UNL     1       2.260   7.907  18.158  0.00  0.00    +0.000 A 
ATOM     12  C   UNL     1       1.807   6.594  18.373  0.00  0.00    +0.000 A 
ATOM     13  C   UNL     1       2.589   5.495  18.002  0.00  0.00    +0.000 A 
ATOM     14  C   UNL     1       3.837   5.690  17.417  0.00  0.00    +0.000 A 
ATOM     15  C   UNL     1       4.319   6.985  17.238  0.00  0.00    +0.000 A 
ATOM     16  C   UNL     1       3.539   8.083  17.614  0.00  0.00    +0.000 A 
ENDBRANCH  10  11
ENDBRANCH   9  10
ENDBRANCH   3   4
BRANCH   3  17
ATOM     17  C   UNL     1      -1.607  11.233  18.617  0.00  0.00    +0.000 A 
ATOM     18  C   UNL     1      -1.605  10.411  17.475  0.00  0.00    +0.000 A 
ATOM     19  C   UNL     1      -2.789   9.996  16.864  0.00  0.00    +0.000 A 
ATOM     20  C   UNL     1      -4.010  10.397  17.381  0.00  0.00    +0.000 A 
ATOM     21  C   UNL     1      -4.044  11.233  18.496  0.00  0.00    +0.000 A 
ATOM     22  C   UNL     1      -2.852  11.670  19.120  0.00  0.00    +0.000 A 
BRANCH  22  23
ATOM     23  C   UNL     1      -2.963  12.718  20.180  0.00  0.00    +0.000 C 
ATOM     24  O   UNL     1      -3.359  12.571  21.324  0.00  0.00    +0.000 OA
BRANCH  23  25
ATOM     25  O   UNL     1      -2.476  13.908  19.769  0.00  0.00    +0.000 OA
ATOM     26  H   UNL     1      -2.192  13.780  18.840  0.00  0.00    +0.000 HD
ENDBRANCH  23  25
ENDBRANCH  22  23
ENDBRANCH   3  17
BRANCH   1  28
ATOM     27  O   UNL     1       2.732  12.113  18.131  0.00  0.00    +0.000 OA
ATOM     28  C   UNL     1       1.945  12.577  18.928  0.00  0.00    +0.000 C 
BRANCH  28  29
ATOM     29  O   UNL     1       2.270  13.054  20.148  0.00  0.00    +0.000 OA
ATOM     30  H   UNL     1       1.568  13.660  20.492  0.00  0.00    +0.000 HD
ENDBRANCH  28  29
ENDBRANCH   1  28
TORSDOF 8
ENDMDL
MODEL 8
REMARK VINA RESULT:      -6.6      5.568      8.228
REMARK  Name = 
REMARK  8 active torsions:
REMARK  status: ('A' for Active; 'I' for Inactive)
REMARK    1  A    between atoms: C_2  and  O_3
REMARK    2  A    between atoms: C_2  and  C_4
REMARK    3  A    between atoms: N_6  and  C_7
REMARK    4  A    between atoms: N_6  and  C_20
REMARK    5  A    between atoms: C_12  and  C_13
REMARK    6  A    between atoms: C_13  and  C_14
REMARK    7  A    between atoms: C_25  and  C_26
REMARK    8  A    between atoms: C_26  and  O_28
REMARK                            x       y       z     vdW  Elec       q    Type
REMARK                         _______ _______ _______ _____ _____    ______ ____
ROOT
ATOM      1  C   UNL     1      -1.148  10.685  18.825  0.00  0.00    +0.000 C 
ATOM      2  O   UNL     1      -1.799   9.682  18.545  0.00  0.00    +0.000 OA
ATOM      3  N   UNL     1       0.181  10.693  19.272  0.00  0.00    +0.000 N 
ENDROOT
BRANCH   3   4
ATOM      4  C   UNL     1       0.842  11.862  19.765  0.00  0.00    +0.000 A 
ATOM      5  C   UNL     1       1.748  12.497  18.892  0.00  0.00    +0.000 A 
ATOM      6  C   UNL     1       2.351  13.705  19.236  0.00  0.00    +0.000 A 
ATOM      7  C   UNL     1       2.069  14.291  20.462  0.00  0.00    +0.000 A 
ATOM      8  C   UNL     1       1.213  13.649  21.359  0.00  0.00    +0.000 A 
ATOM      9  C   UNL     1       0.599  12.420  21.045  0.00  0.00    +0.000 A 
BRANCH   9  10
ATOM     10  C   UNL     1      -0.321  11.803  22.084  0.00  0.00    +0.000 C 
BRANCH  10  11
ATOM     11  C   UNL     1      -1.409  12.681  22.686  0.00  0.00    +0.000 A 
ATOM     12  C   UNL     1      -2.748  12.254  22.673  0.00  0.00    +0.000 A 
ATOM     13  C   UNL     1      -3.730  12.944  23.391  0.00  0.00    +0.000 A 
ATOM     14  C   UNL     1      -3.391  14.075  24.127  0.00  0.00    +0.000 A 
ATOM     15  C   UNL     1      -2.078  14.538  24.115  0.00  0.00    +0.000 A 
ATOM     16  C   UNL     1      -1.098  13.851  23.393  0.00  0.00    +0.000 A 
ENDBRANCH  10  11
ENDBRANCH   9  10
ENDBRANCH   3   4
BRANCH   3  17
ATOM     17  C   UNL     1       1.002   9.525  19.101  0.00  0.00    +0.000 A 
ATOM     18  C   UNL     1       1.537   9.315  17.817  0.00  0.00    +0.000 A 
ATOM     19  C   UNL     1       2.398   8.253  17.541  0.00  0.00    +0.000 A 
ATOM     20  C   UNL     1       2.744   7.366  18.549  0.00  0.00    +0.000 A 
ATOM     21  C   UNL     1       2.209   7.532  19.825  0.00  0.00    +0.000 A 
ATOM     22  C   UNL     1       1.327   8.599  20.117  0.00  0.00    +0.000 A 
BRANCH  22  23
ATOM     23  C   UNL     1       0.641   8.594  21.445  0.00  0.00    +0.000 C 
ATOM     24  O   UNL     1      -0.528   8.332  21.669  0.00  0.00    +0.000 OA
BRANCH  23  25
ATOM     25  O   UNL     1       1.499   8.837  22.458  0.00  0.00    +0.000 OA
ATOM     26  H   UNL     1       0.989   9.327  23.135  0.00  0.00    +0.000 HD
ENDBRANCH  23  25
ENDBRANCH  22  23
ENDBRANCH   3  17
BRANCH   1  28
ATOM     27  O   UNL     1      -2.545  12.634  19.260  0.00  0.00    +0.000 OA
ATOM     28  C   UNL     1      -1.789  12.053  18.512  0.00  0.00    +0.000 C 
BRANCH  28  29
ATOM     29  O   UNL     1      -1.452  12.470  17.274  0.00  0.00    +0.000 OA
ATOM     30  H   UNL     1      -0.655  13.056  17.301  0.00  0.00    +0.000 HD
ENDBRANCH  28  29
ENDBRANCH   1  28
TORSDOF 8
ENDMDL
MODEL 9
REMARK VINA RESULT:      -6.5      8.871     11.819
REMARK  Name = 
REMARK  8 active torsions:
REMARK  status: ('A' for Active; 'I' for Inactive)
REMARK    1  A    between atoms: C_2  and  O_3
REMARK    2  A    between atoms: C_2  and  C_4
REMARK    3  A    between atoms: N_6  and  C_7
REMARK    4  A    between atoms: N_6  and  C_20
REMARK    5  A    between atoms: C_12  and  C_13
REMARK    6  A    between atoms: C_13  and  C_14
REMARK    7  A    between atoms: C_25  and  C_26
REMARK    8  A    between atoms: C_26  and  O_28
REMARK                            x       y       z     vdW  Elec       q    Type
REMARK                         _______ _______ _______ _____ _____    ______ ____
ROOT
ATOM      1  C   UNL     1      -2.644  12.433  22.685  0.00  0.00    +0.000 C 
ATOM      2  O   UNL     1      -3.400  11.877  23.478  0.00  0.00    +0.000 OA
ATOM      3  N   UNL     1      -3.042  13.159  21.554  0.00  0.00    +0.000 N 
ENDROOT
BRANCH   3   4
ATOM      4  C   UNL     1      -2.132  13.631  20.556  0.00  0.00    +0.000 A 
ATOM      5  C   UNL     1      -1.767  14.991  20.619  0.00  0.00    +0.000 A 
ATOM      6  C   UNL     1      -0.799  15.516  19.766  0.00  0.00    +0.000 A 
ATOM      7  C   UNL     1      -0.189  14.694  18.829  0.00  0.00    +0.000 A 
ATOM      8  C   UNL     1      -0.574  13.356  18.721  0.00  0.00    +0.000 A 
ATOM      9  C   UNL     1      -1.561  12.801  19.560  0.00  0.00    +0.000 A 
BRANCH   9  10
ATOM     10  C   UNL     1      -1.907  11.334  19.369  0.00  0.00    +0.000 C 
BRANCH  10  11
ATOM     11  C   UNL     1      -2.574  10.921  18.064  0.00  0.00    +0.000 A 
ATOM     12  C   UNL     1      -3.794  11.504  17.681  0.00  0.00    +0.000 A 
ATOM     13  C   UNL     1      -4.321  11.291  16.404  0.00  0.00    +0.000 A 
ATOM     14  C   UNL     1      -3.643  10.487  15.492  0.00  0.00    +0.000 A 
ATOM     15  C   UNL     1      -2.456   9.866  15.871  0.00  0.00    +0.000 A 
ATOM     16  C   UNL     1      -1.931  10.075  17.150  0.00  0.00    +0.000 A 
ENDBRANCH  10  11
ENDBRANCH   9  10
ENDBRANCH   3   4
BRANCH   3  17
ATOM     17  C   UNL     1      -4.404  13.604  21.431  0.00  0.00    +0.000 A 
ATOM     18  C   UNL     1      -5.142  13.077  20.355  0.00  0.00    +0.000 A 
ATOM     19  C   UNL     1      -6.490  13.382  20.166  0.00  0.00    +0.000 A 
ATOM     20  C   UNL     1      -7.136  14.231  21.052  0.00  0.00    +0.000 A 
ATOM     21  C   UNL     1      -6.425  14.789  22.112  0.00  0.00    +0.000 A 
ATOM     22  C   UNL     1      -5.055  14.497  22.311  0.00  0.00    +0.000 A 
BRANCH  22  23
ATOM     23  C   UNL     1      -4.315  15.285  23.343  0.00  0.00    +0.000 C 
ATOM     24  O   UNL     1      -3.767  16.363  23.193  0.00  0.00    +0.000 OA
BRANCH  23  25
ATOM     25  O   UNL     1      -4.379  14.709  24.562  0.00  0.00    +0.000 OA
ATOM     26  H   UNL     1      -4.867  15.335  25.134  0.00  0.00    +0.000 HD
ENDBRANCH  23  25
ENDBRANCH  22  23
ENDBRANCH   3  17
BRANCH   1  28
ATOM     27  O   UNL     1      -0.372  11.562  22.826  0.00  0.00    +0.000 OA
ATOM     28  C   UNL     1      -1.145  12.469  23.047  0.00  0.00    +0.000 C 
BRANCH  28  29
ATOM     29  O   UNL     1      -0.835  13.608  23.702  0.00  0.00    +0.000 OA
ATOM     30  H   UNL     1      -1.258  13.631  24.596  0.00  0.00    +0.000 HD
ENDBRANCH  28  29
ENDBRANCH   1  28
TORSDOF 8
ENDMDL
