MODEL 1
REMARK VINA RESULT:      -8.7      0.000      0.000
REMARK  Name = 
REMARK  8 active torsions:
REMARK  status: ('A' for Active; 'I' for Inactive)
REMARK    1  A    between atoms: C_1  and  O_2
REMARK    2  A    between atoms: O_2  and  C_3
REMARK    3  A    between atoms: C_6  and  N_7
REMARK    4  A    between atoms: N_10  and  C_11
REMARK    5  A    between atoms: C_14  and  O_15
REMARK    6  A    between atoms: O_15  and  C_16
REMARK    7  A    between atoms: C_20  and  C_21
REMARK    8  A    between atoms: C_24  and  C_25
REMARK                            x       y       z     vdW  Elec       q    Type
REMARK                         _______ _______ _______ _____ _____    ______ ____
ROOT
ATOM      1  C   UNL     1       1.596   9.063  19.169  0.00  0.00    +0.000 A 
ATOM      2  C   UNL     1       1.637   8.120  20.204  0.00  0.00    +0.000 A 
ATOM      3  C   UNL     1       2.279   6.889  20.017  0.00  0.00    +0.000 A 
ATOM      4  C   UNL     1       2.897   6.601  18.799  0.00  0.00    +0.000 A 
ATOM      5  C   UNL     1       2.910   7.572  17.790  0.00  0.00    +0.000 A 
ATOM      6  C   UNL     1       2.217   8.775  17.955  0.00  0.00    +0.000 A 
ENDROOT
BRANCH   1  10
ATOM      7  N   UNL     1      -0.841  11.719  19.540  0.00  0.00    +0.000 N 
ATOM      8  C   UNL     1      -0.415  10.414  19.342  0.00  0.00    +0.000 C 
ATOM      9  O   UNL     1      -1.155   9.444  19.216  0.00  0.00    +0.000 OA
ATOM     10  N   UNL     1       0.971  10.321  19.328  0.00  0.00    +0.000 N 
ATOM     11  H   UNL     1      -0.207  12.443  19.233  0.00  0.00    +0.000 HD
ATOM     12  H   UNL     1       1.427  10.972  19.952  0.00  0.00    +0.000 HD
BRANCH   7  16
ATOM     13  C   UNL     1      -4.924  12.674  20.107  0.00  0.00    +0.000 A 
ATOM     14  C   UNL     1      -3.998  12.954  21.106  0.00  0.00    +0.000 A 
ATOM     15  C   UNL     1      -2.644  12.679  20.915  0.00  0.00    +0.000 A 
ATOM     16  C   UNL     1      -2.194  12.083  19.735  0.00  0.00    +0.000 A 
ATOM     17  C   UNL     1      -3.121  11.835  18.716  0.00  0.00    +0.000 A 
ATOM     18  C   UNL     1      -4.483  12.117  18.908  0.00  0.00    +0.000 A 
BRANCH  13  20
ATOM     19  C   UNL     1      -6.945  11.897  21.058  0.00  0.00    +0.000 C 
ATOM     20  O   UNL     1      -6.221  12.950  20.438  0.00  0.00    +0.000 OA
ENDBRANCH  13  20
ENDBRANCH   7  16
ENDBRANCH   1  10
BRANCH   4  21
ATOM     21  O   UNL     1       3.513   5.372  18.690  0.00  0.00    +0.000 OA
BRANCH  21  22
ATOM     22  C   UNL     1       4.834   5.300  18.300  0.00  0.00    +0.000 A 
ATOM     23  C   UNL     1       5.912   5.470  19.166  0.00  0.00    +0.000 A 
ATOM     24  C   UNL     1       7.191   5.319  18.660  0.00  0.00    +0.000 A 
ATOM     25  N   UNL     1       7.462   5.079  17.359  0.00  0.00    +0.000 NA
ATOM     26  C   UNL     1       6.397   4.999  16.518  0.00  0.00    +0.000 A 
ATOM     27  C   UNL     1       5.077   5.098  16.943  0.00  0.00    +0.000 A 
BRANCH  26  28
ATOM     28  C   UNL     1       6.741   4.798  15.115  0.00  0.00    +0.000 A 
ATOM     29  N   UNL     1       7.636   5.459  14.393  0.00  0.00    +0.000 NA
ATOM     30  C   UNL     1       7.598   4.913  13.138  0.00  0.00    +0.000 A 
ATOM     31  C   UNL     1       6.661   3.903  13.069  0.00  0.00    +0.000 A 
ATOM     32  N   UNL     1       6.138   3.833  14.340  0.00  0.00    +0.000 N 
ATOM     33  H   UNL     1       5.425   3.202  14.682  0.00  0.00    +0.000 HD
BRANCH  31  34
ATOM     34  C   UNL     1       6.226   3.038  11.964  0.00  0.00    +0.000 C 
ATOM     35  F   UNL     1       7.264   2.625  11.196  0.00  0.00    +0.000 F 
ATOM     36  F   UNL     1       5.597   1.927  12.417  0.00  0.00    +0.000 F 
ATOM     37  F   UNL     1       5.355   3.676  11.148  0.00  0.00    +0.000 F 
ENDBRANCH  31  34
ENDBRANCH  26  28
ENDBRANCH  21  22
ENDBRANCH   4  21
TORSDOF 7
ENDMDL
MODEL 2
REMARK VINA RESULT:      -8.5      0.564      1.084
REMARK  Name = 
REMARK  8 active torsions:
REMARK  status: ('A' for Active; 'I' for Inactive)
REMARK    1  A    between atoms: C_1  and  O_2
REMARK    2  A    between atoms: O_2  and  C_3
REMARK    3  A    between atoms: C_6  and  N_7
REMARK    4  A    between atoms: N_10  and  C_11
REMARK    5  A    between atoms: C_14  and  O_15
REMARK    6  A    between atoms: O_15  and  C_16
REMARK    7  A    between atoms: C_20  and  C_21
REMARK    8  A    between atoms: C_24  and  C_25
REMARK                            x       y       z     vdW  Elec       q    Type
REMARK                         _______ _______ _______ _____ _____    ______ ____
ROOT
ATOM      1  C   UNL     1       1.593   9.067  18.922  0.00  0.00    +0.000 A 
ATOM      2  C   UNL     1       2.253   8.561  17.795  0.00  0.00    +0.000 A 
ATOM      3  C   UNL     1       2.912   7.328  17.853  0.00  0.00    +0.000 A 
ATOM      4  C   UNL     1       2.901   6.585  19.035  0.00  0.00    +0.000 A 
ATOM      5  C   UNL     1       2.185   7.064  20.139  0.00  0.00    +0.000 A 
ATOM      6  C   UNL     1       1.579   8.323  20.100  0.00  0.00    +0.000 A 
ENDROOT
BRANCH   1  10
ATOM      7  N   UNL     1      -0.978  11.622  18.882  0.00  0.00    +0.000 N 
ATOM      8  C   UNL     1      -0.485  10.325  18.875  0.00  0.00    +0.000 C 
ATOM      9  O   UNL     1      -1.174   9.311  18.878  0.00  0.00    +0.000 OA
ATOM     10  N   UNL     1       0.904  10.302  18.893  0.00  0.00    +0.000 N 
ATOM     11  H   UNL     1      -0.374  12.327  18.484  0.00  0.00    +0.000 HD
ATOM     12  H   UNL     1       1.315  11.057  19.425  0.00  0.00    +0.000 HD
BRANCH   7  16
ATOM     13  C   UNL     1      -5.115  12.437  19.242  0.00  0.00    +0.000 A 
ATOM     14  C   UNL     1      -4.239  12.816  20.255  0.00  0.00    +0.000 A 
ATOM     15  C   UNL     1      -2.868  12.587  20.129  0.00  0.00    +0.000 A 
ATOM     16  C   UNL     1      -2.351  11.940  19.005  0.00  0.00    +0.000 A 
ATOM     17  C   UNL     1      -3.227  11.591  17.971  0.00  0.00    +0.000 A 
ATOM     18  C   UNL     1      -4.606  11.827  18.097  0.00  0.00    +0.000 A 
BRANCH  13  20
ATOM     19  C   UNL     1      -7.073  11.755  20.378  0.00  0.00    +0.000 C 
ATOM     20  O   UNL     1      -6.433  12.678  19.509  0.00  0.00    +0.000 OA
ENDBRANCH  13  20
ENDBRANCH   7  16
ENDBRANCH   1  10
BRANCH   4  21
ATOM     21  O   UNL     1       3.566   5.377  19.016  0.00  0.00    +0.000 OA
BRANCH  21  22
ATOM     22  C   UNL     1       4.869   5.319  18.566  0.00  0.00    +0.000 A 
ATOM     23  C   UNL     1       5.984   5.510  19.379  0.00  0.00    +0.000 A 
ATOM     24  C   UNL     1       7.239   5.371  18.815  0.00  0.00    +0.000 A 
ATOM     25  N   UNL     1       7.453   5.124  17.505  0.00  0.00    +0.000 NA
ATOM     26  C   UNL     1       6.351   5.024  16.715  0.00  0.00    +0.000 A 
ATOM     27  C   UNL     1       5.051   5.109  17.201  0.00  0.00    +0.000 A 
BRANCH  26  28
ATOM     28  C   UNL     1       6.632   4.816  15.299  0.00  0.00    +0.000 A 
ATOM     29  N   UNL     1       7.620   5.332  14.581  0.00  0.00    +0.000 NA
ATOM     30  C   UNL     1       7.466   4.848  13.309  0.00  0.00    +0.000 A 
ATOM     31  C   UNL     1       6.363   4.024  13.227  0.00  0.00    +0.000 A 
ATOM     32  N   UNL     1       5.855   4.003  14.505  0.00  0.00    +0.000 N 
ATOM     33  H   UNL     1       5.046   3.497  14.842  0.00  0.00    +0.000 HD
BRANCH  31  34
ATOM     34  C   UNL     1       5.763   3.291  12.104  0.00  0.00    +0.000 C 
ATOM     35  F   UNL     1       5.877   1.947  12.248  0.00  0.00    +0.000 F 
ATOM     36  F   UNL     1       4.443   3.568  11.974  0.00  0.00    +0.000 F 
ATOM     37  F   UNL     1       6.350   3.617  10.928  0.00  0.00    +0.000 F 
ENDBRANCH  31  34
ENDBRANCH  26  28
ENDBRANCH  21  22
ENDBRANCH   4  21
TORSDOF 7
ENDMDL
MODEL 3
REMARK VINA RESULT:      -8.5      0.929      1.227
REMARK  Name = 
REMARK  8 active torsions:
REMARK  status: ('A' for Active; 'I' for Inactive)
REMARK    1  A    between atoms: C_1  and  O_2
REMARK    2  A    between atoms: O_2  and  C_3
REMARK    3  A    between atoms: C_6  and  N_7
REMARK    4  A    between atoms: N_10  and  C_11
REMARK    5  A    between atoms: C_14  and  O_15
REMARK    6  A    between atoms: O_15  and  C_16
REMARK    7  A    between atoms: C_20  and  C_21
REMARK    8  A    between atoms: C_24  and  C_25
REMARK                            x       y       z     vdW  Elec       q    Type
REMARK                         _______ _______ _______ _____ _____    ______ ____
ROOT
ATOM      1  C   UNL     1       1.385   9.248  19.308  0.00  0.00    +0.000 A 
ATOM      2  C   UNL     1       1.601   8.377  20.383  0.00  0.00    +0.000 A 
ATOM      3  C   UNL     1       2.140   7.103  20.166  0.00  0.00    +0.000 A 
ATOM      4  C   UNL     1       2.482   6.699  18.875  0.00  0.00    +0.000 A 
ATOM      5  C   UNL     1       2.326   7.597  17.812  0.00  0.00    +0.000 A 
ATOM      6  C   UNL     1       1.731   8.845  18.019  0.00  0.00    +0.000 A 
ENDROOT
BRANCH   1  10
ATOM      7  N   UNL     1      -0.781  12.052  20.066  0.00  0.00    +0.000 N 
ATOM      8  C   UNL     1      -0.456  10.712  19.912  0.00  0.00    +0.000 C 
ATOM      9  O   UNL     1      -1.213   9.775  20.136  0.00  0.00    +0.000 OA
ATOM     10  N   UNL     1       0.857  10.547  19.491  0.00  0.00    +0.000 N 
ATOM     11  H   UNL     1      -0.262  12.703  19.495  0.00  0.00    +0.000 HD
ATOM     12  H   UNL     1       1.492  11.240  19.863  0.00  0.00    +0.000 HD
BRANCH   7  16
ATOM     13  C   UNL     1      -4.495  13.283  21.680  0.00  0.00    +0.000 A 
ATOM     14  C   UNL     1      -3.351  13.301  22.471  0.00  0.00    +0.000 A 
ATOM     15  C   UNL     1      -2.115  12.934  21.939  0.00  0.00    +0.000 A 
ATOM     16  C   UNL     1      -2.005  12.505  20.614  0.00  0.00    +0.000 A 
ATOM     17  C   UNL     1      -3.149  12.522  19.809  0.00  0.00    +0.000 A 
ATOM     18  C   UNL     1      -4.392  12.896  20.344  0.00  0.00    +0.000 A 
BRANCH  13  20
ATOM     19  C   UNL     1      -5.846  13.014  23.602  0.00  0.00    +0.000 C 
ATOM     20  O   UNL     1      -5.646  13.621  22.333  0.00  0.00    +0.000 OA
ENDBRANCH  13  20
ENDBRANCH   7  16
ENDBRANCH   1  10
BRANCH   4  21
ATOM     21  O   UNL     1       3.013   5.433  18.740  0.00  0.00    +0.000 OA
BRANCH  21  22
ATOM     22  C   UNL     1       4.354   5.279  18.458  0.00  0.00    +0.000 A 
ATOM     23  C   UNL     1       5.363   5.330  19.417  0.00  0.00    +0.000 A 
ATOM     24  C   UNL     1       6.666   5.106  19.012  0.00  0.00    +0.000 A 
ATOM     25  N   UNL     1       7.031   4.901  17.728  0.00  0.00    +0.000 NA
ATOM     26  C   UNL     1       6.039   4.937  16.799  0.00  0.00    +0.000 A 
ATOM     27  C   UNL     1       4.698   5.117  17.118  0.00  0.00    +0.000 A 
BRANCH  26  28
ATOM     28  C   UNL     1       6.488   4.770  15.421  0.00  0.00    +0.000 A 
ATOM     29  N   UNL     1       7.585   5.257  14.858  0.00  0.00    +0.000 NA
ATOM     30  C   UNL     1       7.569   4.834  13.555  0.00  0.00    +0.000 A 
ATOM     31  C   UNL     1       6.444   4.080  13.297  0.00  0.00    +0.000 A 
ATOM     32  N   UNL     1       5.776   4.037  14.499  0.00  0.00    +0.000 N 
ATOM     33  H   UNL     1       4.905   3.566  14.706  0.00  0.00    +0.000 HD
BRANCH  31  34
ATOM     34  C   UNL     1       5.954   3.429  12.073  0.00  0.00    +0.000 C 
ATOM     35  F   UNL     1       4.614   3.566  11.920  0.00  0.00    +0.000 F 
ATOM     36  F   UNL     1       6.538   3.945  10.965  0.00  0.00    +0.000 F 
ATOM     37  F   UNL     1       6.222   2.102  12.076  0.00  0.00    +0.000 F 
ENDBRANCH  31  34
ENDBRANCH  26  28
ENDBRANCH  21  22
ENDBRANCH   4  21
TORSDOF 7
ENDMDL
MODEL 4
REMARK VINA RESULT:      -8.4      1.327      2.098
REMARK  Name = 
REMARK  8 active torsions:
REMARK  status: ('A' for Active; 'I' for Inactive)
REMARK    1  A    between atoms: C_1  and  O_2
REMARK    2  A    between atoms: O_2  and  C_3
REMARK    3  A    between atoms: C_6  and  N_7
REMARK    4  A    between atoms: N_10  and  C_11
REMARK    5  A    between atoms: C_14  and  O_15
REMARK    6  A    between atoms: O_15  and  C_16
REMARK    7  A    between atoms: C_20  and  C_21
REMARK    8  A    between atoms: C_24  and  C_25
REMARK                            x       y       z     vdW  Elec       q    Type
REMARK                         _______ _______ _______ _____ _____    ______ ____
ROOT
ATOM      1  C   UNL     1       1.498   9.250  19.279  0.00  0.00    +0.000 A 
ATOM      2  C   UNL     1       1.876   8.826  17.999  0.00  0.00    +0.000 A 
ATOM      3  C   UNL     1       2.385   7.537  17.801  0.00  0.00    +0.000 A 
ATOM      4  C   UNL     1       2.504   6.658  18.879  0.00  0.00    +0.000 A 
ATOM      5  C   UNL     1       2.064   7.064  20.145  0.00  0.00    +0.000 A 
ATOM      6  C   UNL     1       1.613   8.370  20.354  0.00  0.00    +0.000 A 
ENDROOT
BRANCH   1  10
ATOM      7  N   UNL     1      -0.484  12.033  20.487  0.00  0.00    +0.000 N 
ATOM      8  C   UNL     1      -0.127  10.699  20.356  0.00  0.00    +0.000 C 
ATOM      9  O   UNL     1      -0.681   9.764  20.925  0.00  0.00    +0.000 OA
ATOM     10  N   UNL     1       0.965  10.539  19.513  0.00  0.00    +0.000 N 
ATOM     11  H   UNL     1      -0.251  12.632  19.709  0.00  0.00    +0.000 HD
ATOM     12  H   UNL     1       1.632  11.297  19.566  0.00  0.00    +0.000 HD
BRANCH   7  16
ATOM     13  C   UNL     1      -3.370  13.544  23.188  0.00  0.00    +0.000 A 
ATOM     14  C   UNL     1      -3.759  13.107  21.926  0.00  0.00    +0.000 A 
ATOM     15  C   UNL     1      -2.822  12.571  21.042  0.00  0.00    +0.000 A 
ATOM     16  C   UNL     1      -1.471  12.497  21.389  0.00  0.00    +0.000 A 
ATOM     17  C   UNL     1      -1.087  12.902  22.671  0.00  0.00    +0.000 A 
ATOM     18  C   UNL     1      -2.032  13.437  23.563  0.00  0.00    +0.000 A 
BRANCH  13  20
ATOM     19  C   UNL     1      -4.999  15.244  23.402  0.00  0.00    +0.000 C 
ATOM     20  O   UNL     1      -4.375  14.087  23.938  0.00  0.00    +0.000 OA
ENDBRANCH  13  20
ENDBRANCH   7  16
ENDBRANCH   1  10
BRANCH   4  21
ATOM     21  O   UNL     1       3.008   5.404  18.606  0.00  0.00    +0.000 OA
BRANCH  21  22
ATOM     22  C   UNL     1       4.352   5.250  18.336  0.00  0.00    +0.000 A 
ATOM     23  C   UNL     1       5.351   5.288  19.306  0.00  0.00    +0.000 A 
ATOM     24  C   UNL     1       6.658   5.064  18.913  0.00  0.00    +0.000 A 
ATOM     25  N   UNL     1       7.036   4.873  17.630  0.00  0.00    +0.000 NA
ATOM     26  C   UNL     1       6.054   4.922  16.691  0.00  0.00    +0.000 A 
ATOM     27  C   UNL     1       4.709   5.102  16.998  0.00  0.00    +0.000 A 
BRANCH  26  28
ATOM     28  C   UNL     1       6.516   4.770  15.317  0.00  0.00    +0.000 A 
ATOM     29  N   UNL     1       7.518   5.401  14.720  0.00  0.00    +0.000 NA
ATOM     30  C   UNL     1       7.564   4.925  13.436  0.00  0.00    +0.000 A 
ATOM     31  C   UNL     1       6.573   3.990  13.224  0.00  0.00    +0.000 A 
ATOM     32  N   UNL     1       5.928   3.892  14.434  0.00  0.00    +0.000 N 
ATOM     33  H   UNL     1       5.145   3.296  14.672  0.00  0.00    +0.000 HD
BRANCH  31  34
ATOM     34  C   UNL     1       6.190   3.216  12.035  0.00  0.00    +0.000 C 
ATOM     35  F   UNL     1       5.708   1.989  12.354  0.00  0.00    +0.000 F 
ATOM     36  F   UNL     1       5.231   3.847  11.316  0.00  0.00    +0.000 F 
ATOM     37  F   UNL     1       7.242   3.027  11.204  0.00  0.00    +0.000 F 
ENDBRANCH  31  34
ENDBRANCH  26  28
ENDBRANCH  21  22
ENDBRANCH   4  21
TORSDOF 7
ENDMDL
MODEL 5
REMARK VINA RESULT:      -8.4      4.679     11.215
REMARK  Name = 
REMARK  8 active torsions:
REMARK  status: ('A' for Active; 'I' for Inactive)
REMARK    1  A    between atoms: C_1  and  O_2
REMARK    2  A    between atoms: O_2  and  C_3
REMARK    3  A    between atoms: C_6  and  N_7
REMARK    4  A    between atoms: N_10  and  C_11
REMARK    5  A    between atoms: C_14  and  O_15
REMARK    6  A    between atoms: O_15  and  C_16
REMARK    7  A    between atoms: C_20  and  C_21
REMARK    8  A    between atoms: C_24  and  C_25
REMARK                            x       y       z     vdW  Elec       q    Type
REMARK                         _______ _______ _______ _____ _____    ______ ____
ROOT
ATOM      1  C   UNL     1       0.918   8.841  21.663  0.00  0.00    +0.000 A 
ATOM      2  C   UNL     1       1.367   9.993  21.005  0.00  0.00    +0.000 A 
ATOM      3  C   UNL     1       0.747  11.228  21.234  0.00  0.00    +0.000 A 
ATOM      4  C   UNL     1      -0.316  11.320  22.134  0.00  0.00    +0.000 A 
ATOM      5  C   UNL     1      -0.719  10.178  22.838  0.00  0.00    +0.000 A 
ATOM      6  C   UNL     1      -0.140   8.935  22.565  0.00  0.00    +0.000 A 
ENDROOT
BRANCH   1  10
ATOM      7  N   UNL     1       2.639   5.989  20.237  0.00  0.00    +0.000 N 
ATOM      8  C   UNL     1       2.052   7.246  20.225  0.00  0.00    +0.000 C 
ATOM      9  O   UNL     1       2.009   7.992  19.253  0.00  0.00    +0.000 OA
ATOM     10  N   UNL     1       1.531   7.582  21.468  0.00  0.00    +0.000 N 
ATOM     11  H   UNL     1       2.276   5.336  20.917  0.00  0.00    +0.000 HD
ATOM     12  H   UNL     1       2.068   7.220  22.244  0.00  0.00    +0.000 HD
BRANCH   7  16
ATOM     13  C   UNL     1       4.894   4.309  17.073  0.00  0.00    +0.000 A 
ATOM     14  C   UNL     1       3.520   4.098  17.139  0.00  0.00    +0.000 A 
ATOM     15  C   UNL     1       2.761   4.678  18.156  0.00  0.00    +0.000 A 
ATOM     16  C   UNL     1       3.367   5.451  19.149  0.00  0.00    +0.000 A 
ATOM     17  C   UNL     1       4.742   5.694  19.062  0.00  0.00    +0.000 A 
ATOM     18  C   UNL     1       5.505   5.113  18.035  0.00  0.00    +0.000 A 
BRANCH  13  20
ATOM     19  C   UNL     1       6.581   4.350  15.417  0.00  0.00    +0.000 C 
ATOM     20  O   UNL     1       5.524   3.649  16.057  0.00  0.00    +0.000 OA
ENDBRANCH  13  20
ENDBRANCH   7  16
ENDBRANCH   1  10
BRANCH   4  21
ATOM     21  O   UNL     1      -0.873  12.569  22.312  0.00  0.00    +0.000 OA
BRANCH  21  22
ATOM     22  C   UNL     1      -2.171  12.803  21.908  0.00  0.00    +0.000 A 
ATOM     23  C   UNL     1      -3.146  13.382  22.717  0.00  0.00    +0.000 A 
ATOM     24  C   UNL     1      -4.397  13.614  22.174  0.00  0.00    +0.000 A 
ATOM     25  N   UNL     1      -4.753  13.255  20.922  0.00  0.00    +0.000 NA
ATOM     26  C   UNL     1      -3.810  12.617  20.179  0.00  0.00    +0.000 A 
ATOM     27  C   UNL     1      -2.515  12.377  20.627  0.00  0.00    +0.000 A 
BRANCH  26  28
ATOM     28  C   UNL     1      -4.257  12.196  18.857  0.00  0.00    +0.000 A 
ATOM     29  N   UNL     1      -5.457  12.352  18.315  0.00  0.00    +0.000 NA
ATOM     30  C   UNL     1      -5.392  11.794  17.065  0.00  0.00    +0.000 A 
ATOM     31  C   UNL     1      -4.138  11.274  16.825  0.00  0.00    +0.000 A 
ATOM     32  N   UNL     1      -3.426  11.553  17.968  0.00  0.00    +0.000 N 
ATOM     33  H   UNL     1      -2.457  11.331  18.164  0.00  0.00    +0.000 HD
BRANCH  31  34
ATOM     34  C   UNL     1      -3.572  10.562  15.670  0.00  0.00    +0.000 C 
ATOM     35  F   UNL     1      -4.466  10.434  14.658  0.00  0.00    +0.000 F 
ATOM     36  F   UNL     1      -2.490  11.204  15.169  0.00  0.00    +0.000 F 
ATOM     37  F   UNL     1      -3.168   9.314  16.005  0.00  0.00    +0.000 F 
ENDBRANCH  31  34
ENDBRANCH  26  28
ENDBRANCH  21  22
ENDBRANCH   4  21
TORSDOF 7
ENDMDL
MODEL 6
REMARK VINA RESULT:      -8.3      2.365      2.938
REMARK  Name = 
REMARK  8 active torsions:
REMARK  status: ('A' for Active; 'I' for Inactive)
REMARK    1  A    between atoms: C_1  and  O_2
REMARK    2  A    between atoms: O_2  and  C_3
REMARK    3  A    between atoms: C_6  and  N_7
REMARK    4  A    between atoms: N_10  and  C_11
REMARK    5  A    between atoms: C_14  and  O_15
REMARK    6  A    between atoms: O_15  and  C_16
REMARK    7  A    between atoms: C_20  and  C_21
REMARK    8  A    between atoms: C_24  and  C_25
REMARK                            x       y       z     vdW  Elec       q    Type
REMARK                         _______ _______ _______ _____ _____    ______ ____
ROOT
ATOM      1  C   UNL     1       1.685   8.585  19.102  0.00  0.00    +0.000 A 
ATOM      2  C   UNL     1       2.466   8.261  17.985  0.00  0.00    +0.000 A 
ATOM      3  C   UNL     1       3.190   7.064  17.950  0.00  0.00    +0.000 A 
ATOM      4  C   UNL     1       3.125   6.175  19.024  0.00  0.00    +0.000 A 
ATOM      5  C   UNL     1       2.293   6.472  20.110  0.00  0.00    +0.000 A 
ATOM      6  C   UNL     1       1.618   7.695  20.173  0.00  0.00    +0.000 A 
ENDROOT
BRANCH   1  10
ATOM      7  N   UNL     1       0.090  11.643  20.214  0.00  0.00    +0.000 N 
ATOM      8  C   UNL     1       0.847  10.489  20.356  0.00  0.00    +0.000 C 
ATOM      9  O   UNL     1       1.403  10.136  21.390  0.00  0.00    +0.000 OA
ATOM     10  N   UNL     1       0.928   9.778  19.165  0.00  0.00    +0.000 N 
ATOM     11  H   UNL     1      -0.616  11.624  19.492  0.00  0.00    +0.000 HD
ATOM     12  H   UNL     1       0.947  10.365  18.343  0.00  0.00    +0.000 HD
BRANCH   7  16
ATOM     13  C   UNL     1      -0.342  14.670  23.140  0.00  0.00    +0.000 A 
ATOM     14  C   UNL     1      -1.146  13.535  23.187  0.00  0.00    +0.000 A 
ATOM     15  C   UNL     1      -0.986  12.514  22.250  0.00  0.00    +0.000 A 
ATOM     16  C   UNL     1      -0.044  12.624  21.225  0.00  0.00    +0.000 A 
ATOM     17  C   UNL     1       0.789  13.748  21.200  0.00  0.00    +0.000 A 
ATOM     18  C   UNL     1       0.630  14.773  22.147  0.00  0.00    +0.000 A 
BRANCH  13  20
ATOM     19  C   UNL     1      -1.526  15.213  25.114  0.00  0.00    +0.000 C 
ATOM     20  O   UNL     1      -0.631  15.613  24.086  0.00  0.00    +0.000 OA
ENDBRANCH  13  20
ENDBRANCH   7  16
ENDBRANCH   1  10
BRANCH   4  21
ATOM     21  O   UNL     1       3.861   5.014  18.916  0.00  0.00    +0.000 OA
BRANCH  21  22
ATOM     22  C   UNL     1       5.151   5.063  18.428  0.00  0.00    +0.000 A 
ATOM     23  C   UNL     1       6.272   5.319  19.215  0.00  0.00    +0.000 A 
ATOM     24  C   UNL     1       7.517   5.286  18.614  0.00  0.00    +0.000 A 
ATOM     25  N   UNL     1       7.711   5.083  17.293  0.00  0.00    +0.000 NA
ATOM     26  C   UNL     1       6.597   4.917  16.532  0.00  0.00    +0.000 A 
ATOM     27  C   UNL     1       5.308   4.895  17.055  0.00  0.00    +0.000 A 
BRANCH  26  28
ATOM     28  C   UNL     1       6.851   4.760  15.104  0.00  0.00    +0.000 A 
ATOM     29  N   UNL     1       7.661   5.478  14.338  0.00  0.00    +0.000 NA
ATOM     30  C   UNL     1       7.562   4.955  13.076  0.00  0.00    +0.000 A 
ATOM     31  C   UNL     1       6.672   3.901  13.050  0.00  0.00    +0.000 A 
ATOM     32  N   UNL     1       6.243   3.782  14.351  0.00  0.00    +0.000 N 
ATOM     33  H   UNL     1       5.587   3.109  14.727  0.00  0.00    +0.000 HD
BRANCH  31  34
ATOM     34  C   UNL     1       6.203   3.036  11.958  0.00  0.00    +0.000 C 
ATOM     35  F   UNL     1       5.364   2.065  12.396  0.00  0.00    +0.000 F 
ATOM     36  F   UNL     1       5.538   3.742  11.012  0.00  0.00    +0.000 F 
ATOM     37  F   UNL     1       7.235   2.420  11.335  0.00  0.00    +0.000 F 
ENDBRANCH  31  34
ENDBRANCH  26  28
ENDBRANCH  21  22
ENDBRANCH   4  21
TORSDOF 7
ENDMDL
MODEL 7
REMARK VINA RESULT:      -8.1      4.630     11.069
REMARK  Name = 
REMARK  8 active torsions:
REMARK  status: ('A' for Active; 'I' for Inactive)
REMARK    1  A    between atoms: C_1  and  O_2
REMARK    2  A    between atoms: O_2  and  C_3
REMARK    3  A    between atoms: C_6  and  N_7
REMARK    4  A    between atoms: N_10  and  C_11
REMARK    5  A    between atoms: C_14  and  O_15
REMARK    6  A    between atoms: O_15  and  C_16
REMARK    7  A    between atoms: C_20  and  C_21
REMARK    8  A    between atoms: C_24  and  C_25
REMARK                            x       y       z     vdW  Elec       q    Type
REMARK                         _______ _______ _______ _____ _____    ______ ____
ROOT
ATOM      1  C   UNL     1       0.893   8.633  21.681  0.00  0.00    +0.000 A 
ATOM      2  C   UNL     1      -0.122   8.844  22.623  0.00  0.00    +0.000 A 
ATOM      3  C   UNL     1      -0.675  10.119  22.796  0.00  0.00    +0.000 A 
ATOM      4  C   UNL     1      -0.228  11.187  22.016  0.00  0.00    +0.000 A 
ATOM      5  C   UNL     1       0.741  10.958  21.032  0.00  0.00    +0.000 A 
ATOM      6  C   UNL     1       1.337   9.700  20.901  0.00  0.00    +0.000 A 
ENDROOT
BRANCH   1  10
ATOM      7  N   UNL     1       2.642   5.791  20.269  0.00  0.00    +0.000 N 
ATOM      8  C   UNL     1       2.125   7.078  20.280  0.00  0.00    +0.000 C 
ATOM      9  O   UNL     1       2.246   7.892  19.371  0.00  0.00    +0.000 OA
ATOM     10  N   UNL     1       1.463   7.357  21.469  0.00  0.00    +0.000 N 
ATOM     11  H   UNL     1       2.162   5.115  20.846  0.00  0.00    +0.000 HD
ATOM     12  H   UNL     1       1.876   6.910  22.276  0.00  0.00    +0.000 HD
BRANCH   7  16
ATOM     13  C   UNL     1       5.081   4.375  17.114  0.00  0.00    +0.000 A 
ATOM     14  C   UNL     1       5.661   4.971  18.229  0.00  0.00    +0.000 A 
ATOM     15  C   UNL     1       4.870   5.407  19.292  0.00  0.00    +0.000 A 
ATOM     16  C   UNL     1       3.479   5.289  19.244  0.00  0.00    +0.000 A 
ATOM     17  C   UNL     1       2.898   4.657  18.139  0.00  0.00    +0.000 A 
ATOM     18  C   UNL     1       3.697   4.214  17.071  0.00  0.00    +0.000 A 
BRANCH  13  20
ATOM     19  C   UNL     1       5.527   4.269  14.794  0.00  0.00    +0.000 C 
ATOM     20  O   UNL     1       5.961   4.035  16.126  0.00  0.00    +0.000 OA
ENDBRANCH  13  20
ENDBRANCH   7  16
ENDBRANCH   1  10
BRANCH   4  21
ATOM     21  O   UNL     1      -0.823  12.411  22.239  0.00  0.00    +0.000 OA
BRANCH  21  22
ATOM     22  C   UNL     1      -2.127  12.620  21.844  0.00  0.00    +0.000 A 
ATOM     23  C   UNL     1      -3.119  13.137  22.675  0.00  0.00    +0.000 A 
ATOM     24  C   UNL     1      -4.377  13.351  22.141  0.00  0.00    +0.000 A 
ATOM     25  N   UNL     1      -4.724  13.029  20.877  0.00  0.00    +0.000 NA
ATOM     26  C   UNL     1      -3.762  12.450  20.110  0.00  0.00    +0.000 A 
ATOM     27  C   UNL     1      -2.460  12.234  20.548  0.00  0.00    +0.000 A 
BRANCH  26  28
ATOM     28  C   UNL     1      -4.198  12.066  18.772  0.00  0.00    +0.000 A 
ATOM     29  N   UNL     1      -5.370  12.298  18.199  0.00  0.00    +0.000 NA
ATOM     30  C   UNL     1      -5.305  11.747  16.947  0.00  0.00    +0.000 A 
ATOM     31  C   UNL     1      -4.078  11.153  16.736  0.00  0.00    +0.000 A 
ATOM     32  N   UNL     1      -3.382  11.380  17.900  0.00  0.00    +0.000 N 
ATOM     33  H   UNL     1      -2.434  11.099  18.120  0.00  0.00    +0.000 HD
BRANCH  31  34
ATOM     34  C   UNL     1      -3.525  10.418  15.590  0.00  0.00    +0.000 C 
ATOM     35  F   UNL     1      -2.561  11.121  14.945  0.00  0.00    +0.000 F 
ATOM     36  F   UNL     1      -2.973   9.241  15.971  0.00  0.00    +0.000 F 
ATOM     37  F   UNL     1      -4.483  10.126  14.679  0.00  0.00    +0.000 F 
ENDBRANCH  31  34
ENDBRANCH  26  28
ENDBRANCH  21  22
ENDBRANCH   4  21
TORSDOF 7
ENDMDL
MODEL 8
REMARK VINA RESULT:      -8.1      1.578      1.850
REMARK  Name = 
REMARK  8 active torsions:
REMARK  status: ('A' for Active; 'I' for Inactive)
REMARK    1  A    between atoms: C_1  and  O_2
REMARK    2  A    between atoms: O_2  and  C_3
REMARK    3  A    between atoms: C_6  and  N_7
REMARK    4  A    between atoms: N_10  and  C_11
REMARK    5  A    between atoms: C_14  and  O_15
REMARK    6  A    between atoms: O_15  and  C_16
REMARK    7  A    between atoms: C_20  and  C_21
REMARK    8  A    between atoms: C_24  and  C_25
REMARK                            x       y       z     vdW  Elec       q    Type
REMARK                         _______ _______ _______ _____ _____    ______ ____
ROOT
ATOM      1  C   UNL     1       1.300   8.540  20.828  0.00  0.00    +0.000 A 
ATOM      2  C   UNL     1       1.318   7.224  21.308  0.00  0.00    +0.000 A 
ATOM      3  C   UNL     1       1.779   6.180  20.497  0.00  0.00    +0.000 A 
ATOM      4  C   UNL     1       2.241   6.448  19.208  0.00  0.00    +0.000 A 
ATOM      5  C   UNL     1       2.282   7.772  18.756  0.00  0.00    +0.000 A 
ATOM      6  C   UNL     1       1.765   8.806  19.541  0.00  0.00    +0.000 A 
ENDROOT
BRANCH   1  10
ATOM      7  N   UNL     1      -0.552  11.359  22.154  0.00  0.00    +0.000 N 
ATOM      8  C   UNL     1      -0.249  10.367  21.233  0.00  0.00    +0.000 C 
ATOM      9  O   UNL     1      -0.881  10.145  20.205  0.00  0.00    +0.000 OA
ATOM     10  N   UNL     1       0.855   9.620  21.624  0.00  0.00    +0.000 N 
ATOM     11  H   UNL     1       0.221  11.700  22.707  0.00  0.00    +0.000 HD
ATOM     12  H   UNL     1       0.928   9.500  22.625  0.00  0.00    +0.000 HD
BRANCH   7  16
ATOM     13  C   UNL     1      -3.969  13.853  22.053  0.00  0.00    +0.000 A 
ATOM     14  C   UNL     1      -2.982  13.984  21.081  0.00  0.00    +0.000 A 
ATOM     15  C   UNL     1      -1.870  13.141  21.082  0.00  0.00    +0.000 A 
ATOM     16  C   UNL     1      -1.705  12.176  22.078  0.00  0.00    +0.000 A 
ATOM     17  C   UNL     1      -2.714  12.021  23.034  0.00  0.00    +0.000 A 
ATOM     18  C   UNL     1      -3.836  12.867  23.029  0.00  0.00    +0.000 A 
BRANCH  13  20
ATOM     19  C   UNL     1      -5.105  15.444  20.723  0.00  0.00    +0.000 C 
ATOM     20  O   UNL     1      -4.980  14.768  21.965  0.00  0.00    +0.000 OA
ENDBRANCH  13  20
ENDBRANCH   7  16
ENDBRANCH   1  10
BRANCH   4  21
ATOM     21  O   UNL     1       2.685   5.370  18.470  0.00  0.00    +0.000 OA
BRANCH  21  22
ATOM     22  C   UNL     1       4.039   5.170  18.297  0.00  0.00    +0.000 A 
ATOM     23  C   UNL     1       4.956   5.098  19.344  0.00  0.00    +0.000 A 
ATOM     24  C   UNL     1       6.280   4.838  19.040  0.00  0.00    +0.000 A 
ATOM     25  N   UNL     1       6.753   4.712  17.782  0.00  0.00    +0.000 NA
ATOM     26  C   UNL     1       5.854   4.866  16.774  0.00  0.00    +0.000 A 
ATOM     27  C   UNL     1       4.498   5.090  16.984  0.00  0.00    +0.000 A 
BRANCH  26  28
ATOM     28  C   UNL     1       6.421   4.780  15.433  0.00  0.00    +0.000 A 
ATOM     29  N   UNL     1       7.521   5.362  14.975  0.00  0.00    +0.000 NA
ATOM     30  C   UNL     1       7.639   4.985  13.663  0.00  0.00    +0.000 A 
ATOM     31  C   UNL     1       6.595   4.163  13.292  0.00  0.00    +0.000 A 
ATOM     32  N   UNL     1       5.840   4.031  14.434  0.00  0.00    +0.000 N 
ATOM     33  H   UNL     1       4.992   3.493  14.557  0.00  0.00    +0.000 HD
BRANCH  31  34
ATOM     34  C   UNL     1       6.253   3.523  12.015  0.00  0.00    +0.000 C 
ATOM     35  F   UNL     1       6.771   2.274  11.911  0.00  0.00    +0.000 F 
ATOM     36  F   UNL     1       4.913   3.413  11.854  0.00  0.00    +0.000 F 
ATOM     37  F   UNL     1       6.718   4.236  10.962  0.00  0.00    +0.000 F 
ENDBRANCH  31  34
ENDBRANCH  26  28
ENDBRANCH  21  22
ENDBRANCH   4  21
TORSDOF 7
ENDMDL
MODEL 9
REMARK VINA RESULT:      -8.0      5.685     12.183
REMARK  Name = 
REMARK  8 active torsions:
REMARK  status: ('A' for Active; 'I' for Inactive)
REMARK    1  A    between atoms: C_1  and  O_2
REMARK    2  A    between atoms: O_2  and  C_3
REMARK    3  A    between atoms: C_6  and  N_7
REMARK    4  A    between atoms: N_10  and  C_11
REMARK    5  A    between atoms: C_14  and  O_15
REMARK    6  A    between atoms: O_15  and  C_16
REMARK    7  A    between atoms: C_20  and  C_21
REMARK    8  A    between atoms: C_24  and  C_25
REMARK                            x       y       z     vdW  Elec       q    Type
REMARK                         _______ _______ _______ _____ _____    ______ ____
ROOT
ATOM      1  C   UNL     1       0.715  10.186  20.169  0.00  0.00    +0.000 A 
ATOM      2  C   UNL     1       0.058   9.526  21.216  0.00  0.00    +0.000 A 
ATOM      3  C   UNL     1      -0.482  10.253  22.284  0.00  0.00    +0.000 A 
ATOM      4  C   UNL     1      -0.383  11.645  22.303  0.00  0.00    +0.000 A 
ATOM      5  C   UNL     1       0.217  12.304  21.223  0.00  0.00    +0.000 A 
ATOM      6  C   UNL     1       0.810  11.576  20.188  0.00  0.00    +0.000 A 
ENDROOT
BRANCH   1  10
ATOM      7  N   UNL     1       2.280   7.692  18.057  0.00  0.00    +0.000 N 
ATOM      8  C   UNL     1       1.834   8.234  19.253  0.00  0.00    +0.000 C 
ATOM      9  O   UNL     1       1.909   7.683  20.346  0.00  0.00    +0.000 OA
ATOM     10  N   UNL     1       1.258   9.485  19.068  0.00  0.00    +0.000 N 
ATOM     11  H   UNL     1       2.533   8.354  17.337  0.00  0.00    +0.000 HD
ATOM     12  H   UNL     1       0.766   9.578  18.190  0.00  0.00    +0.000 HD
BRANCH   7  16
ATOM     13  C   UNL     1       3.847   3.769  17.798  0.00  0.00    +0.000 A 
ATOM     14  C   UNL     1       2.470   3.970  17.825  0.00  0.00    +0.000 A 
ATOM     15  C   UNL     1       1.943   5.260  17.872  0.00  0.00    +0.000 A 
ATOM     16  C   UNL     1       2.782   6.375  17.930  0.00  0.00    +0.000 A 
ATOM     17  C   UNL     1       4.165   6.175  17.866  0.00  0.00    +0.000 A 
ATOM     18  C   UNL     1       4.695   4.875  17.814  0.00  0.00    +0.000 A 
BRANCH  13  20
ATOM     19  C   UNL     1       3.421   1.568  18.550  0.00  0.00    +0.000 C 
ATOM     20  O   UNL     1       4.233   2.459  17.798  0.00  0.00    +0.000 OA
ENDBRANCH  13  20
ENDBRANCH   7  16
ENDBRANCH   1  10
BRANCH   4  21
ATOM     21  O   UNL     1      -0.943  12.293  23.384  0.00  0.00    +0.000 OA
BRANCH  21  22
ATOM     22  C   UNL     1      -2.112  13.008  23.224  0.00  0.00    +0.000 A 
ATOM     23  C   UNL     1      -2.350  14.252  23.804  0.00  0.00    +0.000 A 
ATOM     24  C   UNL     1      -3.544  14.891  23.520  0.00  0.00    +0.000 A 
ATOM     25  N   UNL     1      -4.524  14.353  22.763  0.00  0.00    +0.000 NA
ATOM     26  C   UNL     1      -4.303  13.104  22.275  0.00  0.00    +0.000 A 
ATOM     27  C   UNL     1      -3.119  12.403  22.475  0.00  0.00    +0.000 A 
BRANCH  26  28
ATOM     28  C   UNL     1      -5.412  12.541  21.514  0.00  0.00    +0.000 A 
ATOM     29  N   UNL     1      -6.635  12.260  21.943  0.00  0.00    +0.000 NA
ATOM     30  C   UNL     1      -7.314  11.751  20.867  0.00  0.00    +0.000 A 
ATOM     31  C   UNL     1      -6.503  11.705  19.752  0.00  0.00    +0.000 A 
ATOM     32  N   UNL     1      -5.304  12.226  20.178  0.00  0.00    +0.000 N 
ATOM     33  H   UNL     1      -4.460  12.362  19.635  0.00  0.00    +0.000 HD
BRANCH  31  34
ATOM     34  C   UNL     1      -6.741  11.230  18.382  0.00  0.00    +0.000 C 
ATOM     35  F   UNL     1      -5.592  11.114  17.672  0.00  0.00    +0.000 F 
ATOM     36  F   UNL     1      -7.341  10.016  18.371  0.00  0.00    +0.000 F 
ATOM     37  F   UNL     1      -7.549  12.074  17.697  0.00  0.00    +0.000 F 
ENDBRANCH  31  34
ENDBRANCH  26  28
ENDBRANCH  21  22
ENDBRANCH   4  21
TORSDOF 7
ENDMDL
