MODEL 1
REMARK VINA RESULT:      -6.4      0.000      0.000
REMARK  Name = 
REMARK  14 active torsions:
REMARK  status: ('A' for Active; 'I' for Inactive)
REMARK    1  A    between atoms: C_1  and  O_2
REMARK    2  A    between atoms: O_2  and  C_3
REMARK    3  A    between atoms: C_8  and  O_9
REMARK    4  A    between atoms: O_9  and  C_10
REMARK    5  A    between atoms: C_11  and  C_12
REMARK    6  A    between atoms: C_12  and  C_13
REMARK    7  A    between atoms: N_15  and  C_16
REMARK    8  A    between atoms: C_16  and  C_17
REMARK    9  A    between atoms: C_17  and  C_18
REMARK   10  A    between atoms: C_18  and  C_19
REMARK   11  A    between atoms: C_19  and  N_20
REMARK   12  A    between atoms: N_21  and  S_22
REMARK   13  A    between atoms: S_22  and  C_25
REMARK   14  A    between atoms: C_28  and  C_29
REMARK                            x       y       z     vdW  Elec       q    Type
REMARK                         _______ _______ _______ _____ _____    ______ ____
ROOT
ATOM      1  C   UNL     1       1.599  17.120  19.698  0.00  0.00    +0.000 A 
ATOM      2  C   UNL     1       2.107  15.964  20.296  0.00  0.00    +0.000 A 
ATOM      3  C   UNL     1       1.423  14.751  20.189  0.00  0.00    +0.000 A 
ATOM      4  C   UNL     1       0.199  14.684  19.511  0.00  0.00    +0.000 A 
ATOM      5  C   UNL     1      -0.297  15.841  18.886  0.00  0.00    +0.000 A 
ATOM      6  C   UNL     1       0.397  17.058  18.961  0.00  0.00    +0.000 A 
ATOM      7  C   UNL     1      -0.591  13.370  19.546  0.00  0.00    +0.000 C 
ATOM      8  N   UNL     1       0.288  12.141  19.411  0.00  0.00    +0.000 NA
ATOM      9  C   UNL     1       1.756  12.403  19.647  0.00  0.00    +0.000 C 
ATOM     10  C   UNL     1       1.989  13.467  20.724  0.00  0.00    +0.000 C 
ENDROOT
BRANCH   8  11
ATOM     11  S   UNL     1      -0.216  10.608  19.978  0.00  0.00    +0.000 S 
ATOM     12  O   UNL     1      -0.113  10.635  21.427  0.00  0.00    +0.000 OA
ATOM     13  O   UNL     1      -1.480  10.316  19.338  0.00  0.00    +0.000 OA
BRANCH  11  14
ATOM     14  C   UNL     1       0.985   9.409  19.421  0.00  0.00    +0.000 A 
ATOM     15  C   UNL     1       1.412   8.390  20.278  0.00  0.00    +0.000 A 
ATOM     16  C   UNL     1       2.272   7.396  19.796  0.00  0.00    +0.000 A 
ATOM     17  C   UNL     1       2.684   7.391  18.454  0.00  0.00    +0.000 A 
ATOM     18  C   UNL     1       3.569   6.297  17.920  0.00  0.00    +0.000 C 
ATOM     19  C   UNL     1       2.216   8.395  17.598  0.00  0.00    +0.000 A 
ATOM     20  C   UNL     1       1.381   9.405  18.079  0.00  0.00    +0.000 A 
ENDBRANCH  11  14
ENDBRANCH   8  11
BRANCH   1  22
ATOM     21  C   UNL     1       3.559  18.057  20.663  0.00  0.00    +0.000 C 
ATOM     22  O   UNL     1       2.405  18.224  19.844  0.00  0.00    +0.000 OA
ENDBRANCH   1  22
BRANCH   6  23
ATOM     23  O   UNL     1       0.001  18.198  18.328  0.00  0.00    +0.000 OA
ATOM     24  C   UNL     1       0.337  18.396  16.971  0.00  0.00    +0.000 C 
ENDBRANCH   6  23
BRANCH   7  25
ATOM     25  C   UNL     1      -1.469  13.380  20.804  0.00  0.00    +0.000 C 
BRANCH  25  26
ATOM     26  C   UNL     1      -2.868  12.858  20.586  0.00  0.00    +0.000 C 
ATOM     27  O   UNL     1      -3.613  12.586  21.528  0.00  0.00    +0.000 OA
ATOM     28  N   UNL     1      -3.218  12.622  19.273  0.00  0.00    +0.000 N 
ATOM     29  H   UNL     1      -2.721  13.095  18.533  0.00  0.00    +0.000 HD
BRANCH  28  30
ATOM     30  C   UNL     1      -4.512  12.061  18.932  0.00  0.00    +0.000 C 
BRANCH  30  31
ATOM     31  C   UNL     1      -4.676  11.869  17.430  0.00  0.00    +0.000 C 
BRANCH  31  32
ATOM     32  C   UNL     1      -3.990  10.592  16.912  0.00  0.00    +0.000 C 
BRANCH  32  33
ATOM     33  C   UNL     1      -2.735  10.905  16.096  0.00  0.00    +0.000 C 
BRANCH  33  34
ATOM     34  N   UNL     1      -1.933  11.941  16.737  0.00  0.00    +0.000 NA
ATOM     35  H   UNL     1      -2.544  12.598  17.218  0.00  0.00    +0.000 HD
ATOM     36  H   UNL     1      -1.431  12.474  16.031  0.00  0.00    +0.000 HD
ENDBRANCH  33  34
ENDBRANCH  32  33
ENDBRANCH  31  32
ENDBRANCH  30  31
ENDBRANCH  28  30
ENDBRANCH  25  26
ENDBRANCH   7  25
TORSDOF 11
ENDMDL
MODEL 2
REMARK VINA RESULT:      -5.9      3.002      8.010
REMARK  Name = 
REMARK  14 active torsions:
REMARK  status: ('A' for Active; 'I' for Inactive)
REMARK    1  A    between atoms: C_1  and  O_2
REMARK    2  A    between atoms: O_2  and  C_3
REMARK    3  A    between atoms: C_8  and  O_9
REMARK    4  A    between atoms: O_9  and  C_10
REMARK    5  A    between atoms: C_11  and  C_12
REMARK    6  A    between atoms: C_12  and  C_13
REMARK    7  A    between atoms: N_15  and  C_16
REMARK    8  A    between atoms: C_16  and  C_17
REMARK    9  A    between atoms: C_17  and  C_18
REMARK   10  A    between atoms: C_18  and  C_19
REMARK   11  A    between atoms: C_19  and  N_20
REMARK   12  A    between atoms: N_21  and  S_22
REMARK   13  A    between atoms: S_22  and  C_25
REMARK   14  A    between atoms: C_28  and  C_29
REMARK                            x       y       z     vdW  Elec       q    Type
REMARK                         _______ _______ _______ _____ _____    ______ ____
ROOT
ATOM      1  C   UNL     1       2.089   7.478  19.999  0.00  0.00    +0.000 A 
ATOM      2  C   UNL     1       1.616   7.974  21.217  0.00  0.00    +0.000 A 
ATOM      3  C   UNL     1       0.976   9.214  21.277  0.00  0.00    +0.000 A 
ATOM      4  C   UNL     1       0.833   9.996  20.123  0.00  0.00    +0.000 A 
ATOM      5  C   UNL     1       1.284   9.484  18.895  0.00  0.00    +0.000 A 
ATOM      6  C   UNL     1       1.901   8.226  18.818  0.00  0.00    +0.000 A 
ATOM      7  C   UNL     1       0.263  11.413  20.260  0.00  0.00    +0.000 C 
ATOM      8  N   UNL     1      -0.889  11.501  21.244  0.00  0.00    +0.000 NA
ATOM      9  C   UNL     1      -1.007  10.309  22.163  0.00  0.00    +0.000 C 
ATOM     10  C   UNL     1       0.358   9.732  22.545  0.00  0.00    +0.000 C 
ENDROOT
BRANCH   8  11
ATOM     11  S   UNL     1      -1.312  12.974  22.004  0.00  0.00    +0.000 S 
ATOM     12  O   UNL     1      -0.481  13.096  23.188  0.00  0.00    +0.000 OA
ATOM     13  O   UNL     1      -1.289  13.998  20.981  0.00  0.00    +0.000 OA
BRANCH  11  14
ATOM     14  C   UNL     1      -2.989  12.810  22.594  0.00  0.00    +0.000 A 
ATOM     15  C   UNL     1      -3.244  12.670  23.962  0.00  0.00    +0.000 A 
ATOM     16  C   UNL     1      -4.566  12.648  24.421  0.00  0.00    +0.000 A 
ATOM     17  C   UNL     1      -5.640  12.799  23.528  0.00  0.00    +0.000 A 
ATOM     18  C   UNL     1      -7.060  12.825  24.024  0.00  0.00    +0.000 C 
ATOM     19  C   UNL     1      -5.368  12.977  22.166  0.00  0.00    +0.000 A 
ATOM     20  C   UNL     1      -4.053  12.972  21.698  0.00  0.00    +0.000 A 
ENDBRANCH  11  14
ENDBRANCH   8  11
BRANCH   1  22
ATOM     21  C   UNL     1       1.817   5.202  20.625  0.00  0.00    +0.000 C 
ATOM     22  O   UNL     1       2.648   6.226  20.087  0.00  0.00    +0.000 OA
ENDBRANCH   1  22
BRANCH   6  23
ATOM     23  O   UNL     1       2.304   7.649  17.651  0.00  0.00    +0.000 OA
ATOM     24  C   UNL     1       3.682   7.484  17.393  0.00  0.00    +0.000 C 
ENDBRANCH   6  23
BRANCH   7  25
ATOM     25  C   UNL     1       1.427  12.364  20.569  0.00  0.00    +0.000 C 
BRANCH  25  26
ATOM     26  C   UNL     1       1.670  13.409  19.507  0.00  0.00    +0.000 C 
ATOM     27  O   UNL     1       2.188  13.127  18.426  0.00  0.00    +0.000 OA
ATOM     28  N   UNL     1       1.360  14.704  19.864  0.00  0.00    +0.000 N 
ATOM     29  H   UNL     1       0.704  14.871  20.614  0.00  0.00    +0.000 HD
BRANCH  28  30
ATOM     30  C   UNL     1       1.605  15.811  18.957  0.00  0.00    +0.000 C 
BRANCH  30  31
ATOM     31  C   UNL     1       2.903  16.539  19.280  0.00  0.00    +0.000 C 
BRANCH  31  32
ATOM     32  C   UNL     1       3.890  16.552  18.098  0.00  0.00    +0.000 C 
BRANCH  32  33
ATOM     33  C   UNL     1       5.113  15.672  18.361  0.00  0.00    +0.000 C 
BRANCH  33  34
ATOM     34  N   UNL     1       4.943  14.345  17.781  0.00  0.00    +0.000 NA
ATOM     35  H   UNL     1       5.852  13.961  17.531  0.00  0.00    +0.000 HD
ATOM     36  H   UNL     1       4.408  14.412  16.919  0.00  0.00    +0.000 HD
ENDBRANCH  33  34
ENDBRANCH  32  33
ENDBRANCH  31  32
ENDBRANCH  30  31
ENDBRANCH  28  30
ENDBRANCH  25  26
ENDBRANCH   7  25
TORSDOF 11
ENDMDL
MODEL 3
REMARK VINA RESULT:      -5.9      2.765      6.091
REMARK  Name = 
REMARK  14 active torsions:
REMARK  status: ('A' for Active; 'I' for Inactive)
REMARK    1  A    between atoms: C_1  and  O_2
REMARK    2  A    between atoms: O_2  and  C_3
REMARK    3  A    between atoms: C_8  and  O_9
REMARK    4  A    between atoms: O_9  and  C_10
REMARK    5  A    between atoms: C_11  and  C_12
REMARK    6  A    between atoms: C_12  and  C_13
REMARK    7  A    between atoms: N_15  and  C_16
REMARK    8  A    between atoms: C_16  and  C_17
REMARK    9  A    between atoms: C_17  and  C_18
REMARK   10  A    between atoms: C_18  and  C_19
REMARK   11  A    between atoms: C_19  and  N_20
REMARK   12  A    between atoms: N_21  and  S_22
REMARK   13  A    between atoms: S_22  and  C_25
REMARK   14  A    between atoms: C_28  and  C_29
REMARK                            x       y       z     vdW  Elec       q    Type
REMARK                         _______ _______ _______ _____ _____    ______ ____
ROOT
ATOM      1  C   UNL     1      -5.749  12.276  18.280  0.00  0.00    +0.000 A 
ATOM      2  C   UNL     1      -4.605  11.884  17.580  0.00  0.00    +0.000 A 
ATOM      3  C   UNL     1      -3.375  11.777  18.234  0.00  0.00    +0.000 A 
ATOM      4  C   UNL     1      -3.264  12.097  19.594  0.00  0.00    +0.000 A 
ATOM      5  C   UNL     1      -4.420  12.465  20.303  0.00  0.00    +0.000 A 
ATOM      6  C   UNL     1      -5.666  12.546  19.662  0.00  0.00    +0.000 A 
ATOM      7  C   UNL     1      -1.871  12.112  20.236  0.00  0.00    +0.000 C 
ATOM      8  N   UNL     1      -0.986  10.972  19.769  0.00  0.00    +0.000 NA
ATOM      9  C   UNL     1      -1.477  10.282  18.519  0.00  0.00    +0.000 C 
ATOM     10  C   UNL     1      -2.147  11.255  17.545  0.00  0.00    +0.000 C 
ENDROOT
BRANCH   8  11
ATOM     11  S   UNL     1       0.720  11.063  19.855  0.00  0.00    +0.000 S 
ATOM     12  O   UNL     1       1.145  12.021  18.849  0.00  0.00    +0.000 OA
ATOM     13  O   UNL     1       1.062  11.260  21.247  0.00  0.00    +0.000 OA
BRANCH  11  14
ATOM     14  C   UNL     1       1.368   9.483  19.335  0.00  0.00    +0.000 A 
ATOM     15  C   UNL     1       1.902   9.328  18.051  0.00  0.00    +0.000 A 
ATOM     16  C   UNL     1       2.501   8.115  17.694  0.00  0.00    +0.000 A 
ATOM     17  C   UNL     1       2.605   7.064  18.618  0.00  0.00    +0.000 A 
ATOM     18  C   UNL     1       3.294   5.776  18.253  0.00  0.00    +0.000 C 
ATOM     19  C   UNL     1       2.102   7.247  19.912  0.00  0.00    +0.000 A 
ATOM     20  C   UNL     1       1.477   8.444  20.267  0.00  0.00    +0.000 A 
ENDBRANCH  11  14
ENDBRANCH   8  11
BRANCH   1  22
ATOM     21  C   UNL     1      -7.192  13.509  16.849  0.00  0.00    +0.000 C 
ATOM     22  O   UNL     1      -6.892  12.287  17.518  0.00  0.00    +0.000 OA
ENDBRANCH   1  22
BRANCH   6  23
ATOM     23  O   UNL     1      -6.833  12.837  20.306  0.00  0.00    +0.000 OA
ATOM     24  C   UNL     1      -7.568  11.801  20.921  0.00  0.00    +0.000 C 
ENDBRANCH   6  23
BRANCH   7  25
ATOM     25  C   UNL     1      -1.266  13.506  20.020  0.00  0.00    +0.000 C 
BRANCH  25  26
ATOM     26  C   UNL     1      -0.904  14.227  21.296  0.00  0.00    +0.000 C 
ATOM     27  O   UNL     1       0.204  14.738  21.459  0.00  0.00    +0.000 OA
ATOM     28  N   UNL     1      -1.859  14.193  22.291  0.00  0.00    +0.000 N 
ATOM     29  H   UNL     1      -2.824  14.021  22.049  0.00  0.00    +0.000 HD
BRANCH  28  30
ATOM     30  C   UNL     1      -1.610  14.793  23.588  0.00  0.00    +0.000 C 
BRANCH  30  31
ATOM     31  C   UNL     1      -2.901  15.176  24.300  0.00  0.00    +0.000 C 
BRANCH  31  32
ATOM     32  C   UNL     1      -3.971  15.729  23.341  0.00  0.00    +0.000 C 
BRANCH  32  33
ATOM     33  C   UNL     1      -5.387  15.363  23.788  0.00  0.00    +0.000 C 
BRANCH  33  34
ATOM     34  N   UNL     1      -5.886  14.200  23.063  0.00  0.00    +0.000 NA
ATOM     35  H   UNL     1      -5.249  13.972  22.302  0.00  0.00    +0.000 HD
ATOM     36  H   UNL     1      -6.783  14.418  22.637  0.00  0.00    +0.000 HD
ENDBRANCH  33  34
ENDBRANCH  32  33
ENDBRANCH  31  32
ENDBRANCH  30  31
ENDBRANCH  28  30
ENDBRANCH  25  26
ENDBRANCH   7  25
TORSDOF 11
ENDMDL
MODEL 4
REMARK VINA RESULT:      -5.8      2.787      6.040
REMARK  Name = 
REMARK  14 active torsions:
REMARK  status: ('A' for Active; 'I' for Inactive)
REMARK    1  A    between atoms: C_1  and  O_2
REMARK    2  A    between atoms: O_2  and  C_3
REMARK    3  A    between atoms: C_8  and  O_9
REMARK    4  A    between atoms: O_9  and  C_10
REMARK    5  A    between atoms: C_11  and  C_12
REMARK    6  A    between atoms: C_12  and  C_13
REMARK    7  A    between atoms: N_15  and  C_16
REMARK    8  A    between atoms: C_16  and  C_17
REMARK    9  A    between atoms: C_17  and  C_18
REMARK   10  A    between atoms: C_18  and  C_19
REMARK   11  A    between atoms: C_19  and  N_20
REMARK   12  A    between atoms: N_21  and  S_22
REMARK   13  A    between atoms: S_22  and  C_25
REMARK   14  A    between atoms: C_28  and  C_29
REMARK                            x       y       z     vdW  Elec       q    Type
REMARK                         _______ _______ _______ _____ _____    ______ ____
ROOT
ATOM      1  C   UNL     1      -5.714  12.231  18.234  0.00  0.00    +0.000 A 
ATOM      2  C   UNL     1      -4.600  11.745  17.545  0.00  0.00    +0.000 A 
ATOM      3  C   UNL     1      -3.351  11.688  18.168  0.00  0.00    +0.000 A 
ATOM      4  C   UNL     1      -3.190  12.153  19.481  0.00  0.00    +0.000 A 
ATOM      5  C   UNL     1      -4.317  12.615  20.181  0.00  0.00    +0.000 A 
ATOM      6  C   UNL     1      -5.582  12.648  19.575  0.00  0.00    +0.000 A 
ATOM      7  C   UNL     1      -1.776  12.213  20.072  0.00  0.00    +0.000 C 
ATOM      8  N   UNL     1      -0.923  11.013  19.705  0.00  0.00    +0.000 NA
ATOM      9  C   UNL     1      -1.465  10.201  18.554  0.00  0.00    +0.000 C 
ATOM     10  C   UNL     1      -2.154  11.073  17.501  0.00  0.00    +0.000 C 
ENDROOT
BRANCH   8  11
ATOM     11  S   UNL     1       0.786  11.084  19.726  0.00  0.00    +0.000 S 
ATOM     12  O   UNL     1       1.189  11.948  18.630  0.00  0.00    +0.000 OA
ATOM     13  O   UNL     1       1.178  11.390  21.085  0.00  0.00    +0.000 OA
BRANCH  11  14
ATOM     14  C   UNL     1       1.394   9.456  19.319  0.00  0.00    +0.000 A 
ATOM     15  C   UNL     1       1.964   9.209  18.065  0.00  0.00    +0.000 A 
ATOM     16  C   UNL     1       2.532   7.958  17.798  0.00  0.00    +0.000 A 
ATOM     17  C   UNL     1       2.568   6.959  18.783  0.00  0.00    +0.000 A 
ATOM     18  C   UNL     1       3.222   5.631  18.515  0.00  0.00    +0.000 C 
ATOM     19  C   UNL     1       2.029   7.234  20.046  0.00  0.00    +0.000 A 
ATOM     20  C   UNL     1       1.436   8.469  20.311  0.00  0.00    +0.000 A 
ENDBRANCH  11  14
ENDBRANCH   8  11
BRANCH   1  22
ATOM     21  C   UNL     1      -7.257  13.374  16.833  0.00  0.00    +0.000 C 
ATOM     22  O   UNL     1      -6.882  12.179  17.512  0.00  0.00    +0.000 OA
ENDBRANCH   1  22
BRANCH   6  23
ATOM     23  O   UNL     1      -6.722  13.028  20.220  0.00  0.00    +0.000 OA
ATOM     24  C   UNL     1      -7.267  12.197  21.222  0.00  0.00    +0.000 C 
ENDBRANCH   6  23
BRANCH   7  25
ATOM     25  C   UNL     1      -1.160  13.564  19.686  0.00  0.00    +0.000 C 
BRANCH  25  26
ATOM     26  C   UNL     1      -1.389  14.660  20.699  0.00  0.00    +0.000 C 
ATOM     27  O   UNL     1      -0.779  14.693  21.768  0.00  0.00    +0.000 OA
ATOM     28  N   UNL     1      -2.386  15.561  20.386  0.00  0.00    +0.000 N 
ATOM     29  H   UNL     1      -2.667  15.678  19.424  0.00  0.00    +0.000 HD
BRANCH  28  30
ATOM     30  C   UNL     1      -2.749  16.624  21.304  0.00  0.00    +0.000 C 
BRANCH  30  31
ATOM     31  C   UNL     1      -4.182  16.488  21.802  0.00  0.00    +0.000 C 
BRANCH  31  32
ATOM     32  C   UNL     1      -4.369  15.300  22.763  0.00  0.00    +0.000 C 
BRANCH  32  33
ATOM     33  C   UNL     1      -5.524  15.528  23.740  0.00  0.00    +0.000 C 
BRANCH  33  34
ATOM     34  N   UNL     1      -5.114  16.377  24.853  0.00  0.00    +0.000 NA
ATOM     35  H   UNL     1      -4.111  16.546  24.804  0.00  0.00    +0.000 HD
ATOM     36  H   UNL     1      -5.286  15.898  25.733  0.00  0.00    +0.000 HD
ENDBRANCH  33  34
ENDBRANCH  32  33
ENDBRANCH  31  32
ENDBRANCH  30  31
ENDBRANCH  28  30
ENDBRANCH  25  26
ENDBRANCH   7  25
TORSDOF 11
ENDMDL
MODEL 5
REMARK VINA RESULT:      -5.8      0.757      1.131
REMARK  Name = 
REMARK  14 active torsions:
REMARK  status: ('A' for Active; 'I' for Inactive)
REMARK    1  A    between atoms: C_1  and  O_2
REMARK    2  A    between atoms: O_2  and  C_3
REMARK    3  A    between atoms: C_8  and  O_9
REMARK    4  A    between atoms: O_9  and  C_10
REMARK    5  A    between atoms: C_11  and  C_12
REMARK    6  A    between atoms: C_12  and  C_13
REMARK    7  A    between atoms: N_15  and  C_16
REMARK    8  A    between atoms: C_16  and  C_17
REMARK    9  A    between atoms: C_17  and  C_18
REMARK   10  A    between atoms: C_18  and  C_19
REMARK   11  A    between atoms: C_19  and  N_20
REMARK   12  A    between atoms: N_21  and  S_22
REMARK   13  A    between atoms: S_22  and  C_25
REMARK   14  A    between atoms: C_28  and  C_29
REMARK                            x       y       z     vdW  Elec       q    Type
REMARK                         _______ _______ _______ _____ _____    ______ ____
ROOT
ATOM      1  C   UNL     1       1.637  17.046  19.467  0.00  0.00    +0.000 A 
ATOM      2  C   UNL     1       2.145  15.949  20.168  0.00  0.00    +0.000 A 
ATOM      3  C   UNL     1       1.501  14.711  20.111  0.00  0.00    +0.000 A 
ATOM      4  C   UNL     1       0.316  14.560  19.379  0.00  0.00    +0.000 A 
ATOM      5  C   UNL     1      -0.179  15.656  18.652  0.00  0.00    +0.000 A 
ATOM      6  C   UNL     1       0.477  16.897  18.678  0.00  0.00    +0.000 A 
ATOM      7  C   UNL     1      -0.439  13.228  19.465  0.00  0.00    +0.000 C 
ATOM      8  N   UNL     1       0.480  12.020  19.460  0.00  0.00    +0.000 NA
ATOM      9  C   UNL     1       1.926  12.343  19.749  0.00  0.00    +0.000 C 
ATOM     10  C   UNL     1       2.074  13.483  20.760  0.00  0.00    +0.000 C 
ENDROOT
BRANCH   8  11
ATOM     11  S   UNL     1      -0.011  10.514  20.105  0.00  0.00    +0.000 S 
ATOM     12  O   UNL     1       0.309  10.534  21.522  0.00  0.00    +0.000 OA
ATOM     13  O   UNL     1      -1.370  10.287  19.663  0.00  0.00    +0.000 OA
BRANCH  11  14
ATOM     14  C   UNL     1       1.031   9.257  19.383  0.00  0.00    +0.000 A 
ATOM     15  C   UNL     1       1.502   9.399  18.073  0.00  0.00    +0.000 A 
ATOM     16  C   UNL     1       2.402   8.460  17.556  0.00  0.00    +0.000 A 
ATOM     17  C   UNL     1       2.865   7.397  18.346  0.00  0.00    +0.000 A 
ATOM     18  C   UNL     1       3.871   6.414  17.810  0.00  0.00    +0.000 C 
ATOM     19  C   UNL     1       2.416   7.289  19.668  0.00  0.00    +0.000 A 
ATOM     20  C   UNL     1       1.496   8.206  20.182  0.00  0.00    +0.000 A 
ENDBRANCH  11  14
ENDBRANCH   8  11
BRANCH   1  22
ATOM     21  C   UNL     1       2.689  18.623  20.900  0.00  0.00    +0.000 C 
ATOM     22  O   UNL     1       2.403  18.181  19.576  0.00  0.00    +0.000 OA
ENDBRANCH   1  22
BRANCH   6  23
ATOM     23  O   UNL     1       0.082  17.979  17.948  0.00  0.00    +0.000 OA
ATOM     24  C   UNL     1      -1.238  18.461  18.072  0.00  0.00    +0.000 C 
ENDBRANCH   6  23
BRANCH   7  25
ATOM     25  C   UNL     1      -1.380  13.295  20.676  0.00  0.00    +0.000 C 
BRANCH  25  26
ATOM     26  C   UNL     1      -2.847  13.254  20.321  0.00  0.00    +0.000 C 
ATOM     27  O   UNL     1      -3.681  13.918  20.935  0.00  0.00    +0.000 OA
ATOM     28  N   UNL     1      -3.195  12.358  19.331  0.00  0.00    +0.000 N 
ATOM     29  H   UNL     1      -2.495  12.043  18.676  0.00  0.00    +0.000 HD
BRANCH  28  30
ATOM     30  C   UNL     1      -4.581  12.175  18.941  0.00  0.00    +0.000 C 
BRANCH  30  31
ATOM     31  C   UNL     1      -4.761  10.985  18.008  0.00  0.00    +0.000 C 
BRANCH  31  32
ATOM     32  C   UNL     1      -4.555  11.350  16.527  0.00  0.00    +0.000 C 
BRANCH  32  33
ATOM     33  C   UNL     1      -3.120  11.089  16.066  0.00  0.00    +0.000 C 
BRANCH  33  34
ATOM     34  N   UNL     1      -3.062   9.970  15.131  0.00  0.00    +0.000 NA
ATOM     35  H   UNL     1      -3.996   9.767  14.780  0.00  0.00    +0.000 HD
ATOM     36  H   UNL     1      -2.745   9.133  15.616  0.00  0.00    +0.000 HD
ENDBRANCH  33  34
ENDBRANCH  32  33
ENDBRANCH  31  32
ENDBRANCH  30  31
ENDBRANCH  28  30
ENDBRANCH  25  26
ENDBRANCH   7  25
TORSDOF 11
ENDMDL
MODEL 6
REMARK VINA RESULT:      -5.7      2.681      6.974
REMARK  Name = 
REMARK  14 active torsions:
REMARK  status: ('A' for Active; 'I' for Inactive)
REMARK    1  A    between atoms: C_1  and  O_2
REMARK    2  A    between atoms: O_2  and  C_3
REMARK    3  A    between atoms: C_8  and  O_9
REMARK    4  A    between atoms: O_9  and  C_10
REMARK    5  A    between atoms: C_11  and  C_12
REMARK    6  A    between atoms: C_12  and  C_13
REMARK    7  A    between atoms: N_15  and  C_16
REMARK    8  A    between atoms: C_16  and  C_17
REMARK    9  A    between atoms: C_17  and  C_18
REMARK   10  A    between atoms: C_18  and  C_19
REMARK   11  A    between atoms: C_19  and  N_20
REMARK   12  A    between atoms: N_21  and  S_22
REMARK   13  A    between atoms: S_22  and  C_25
REMARK   14  A    between atoms: C_28  and  C_29
REMARK                            x       y       z     vdW  Elec       q    Type
REMARK                         _______ _______ _______ _____ _____    ______ ____
ROOT
ATOM      1  C   UNL     1      -4.598  11.486  17.677  0.00  0.00    +0.000 A 
ATOM      2  C   UNL     1      -4.287  11.955  18.956  0.00  0.00    +0.000 A 
ATOM      3  C   UNL     1      -2.955  12.086  19.358  0.00  0.00    +0.000 A 
ATOM      4  C   UNL     1      -1.914  11.714  18.497  0.00  0.00    +0.000 A 
ATOM      5  C   UNL     1      -2.228  11.270  17.202  0.00  0.00    +0.000 A 
ATOM      6  C   UNL     1      -3.561  11.162  16.777  0.00  0.00    +0.000 A 
ATOM      7  C   UNL     1      -0.476  11.731  19.031  0.00  0.00    +0.000 C 
ATOM      8  N   UNL     1      -0.182  12.927  19.918  0.00  0.00    +0.000 NA
ATOM      9  C   UNL     1      -1.415  13.646  20.411  0.00  0.00    +0.000 C 
ATOM     10  C   UNL     1      -2.577  12.688  20.682  0.00  0.00    +0.000 C 
ENDROOT
BRANCH   8  11
ATOM     11  S   UNL     1       1.083  12.903  21.069  0.00  0.00    +0.000 S 
ATOM     12  O   UNL     1       0.716  13.833  22.123  0.00  0.00    +0.000 OA
ATOM     13  O   UNL     1       1.349  11.514  21.376  0.00  0.00    +0.000 OA
BRANCH  11  14
ATOM     14  C   UNL     1       2.532  13.592  20.286  0.00  0.00    +0.000 A 
ATOM     15  C   UNL     1       2.625  13.636  18.891  0.00  0.00    +0.000 A 
ATOM     16  C   UNL     1       3.717  14.273  18.290  0.00  0.00    +0.000 A 
ATOM     17  C   UNL     1       4.703  14.899  19.070  0.00  0.00    +0.000 A 
ATOM     18  C   UNL     1       5.852  15.627  18.427  0.00  0.00    +0.000 C 
ATOM     19  C   UNL     1       4.575  14.881  20.465  0.00  0.00    +0.000 A 
ATOM     20  C   UNL     1       3.504  14.223  21.071  0.00  0.00    +0.000 A 
ENDBRANCH  11  14
ENDBRANCH   8  11
BRANCH   1  22
ATOM     21  C   UNL     1      -6.612  12.718  17.401  0.00  0.00    +0.000 C 
ATOM     22  O   UNL     1      -5.945  11.459  17.407  0.00  0.00    +0.000 OA
ENDBRANCH   1  22
BRANCH   6  23
ATOM     23  O   UNL     1      -3.929  10.796  15.517  0.00  0.00    +0.000 OA
ATOM     24  C   UNL     1      -2.999  10.141  14.681  0.00  0.00    +0.000 C 
ENDBRANCH   6  23
BRANCH   7  25
ATOM     25  C   UNL     1      -0.202  10.375  19.693  0.00  0.00    +0.000 C 
BRANCH  25  26
ATOM     26  C   UNL     1       0.784   9.510  18.945  0.00  0.00    +0.000 C 
ATOM     27  O   UNL     1       0.903   9.573  17.721  0.00  0.00    +0.000 OA
ATOM     28  N   UNL     1       1.469   8.589  19.710  0.00  0.00    +0.000 N 
ATOM     29  H   UNL     1       1.561   8.738  20.704  0.00  0.00    +0.000 HD
BRANCH  28  30
ATOM     30  C   UNL     1       2.399   7.655  19.103  0.00  0.00    +0.000 C 
BRANCH  30  31
ATOM     31  C   UNL     1       2.172   6.227  19.582  0.00  0.00    +0.000 C 
BRANCH  31  32
ATOM     32  C   UNL     1       3.243   5.248  19.069  0.00  0.00    +0.000 C 
BRANCH  32  33
ATOM     33  C   UNL     1       2.873   4.654  17.710  0.00  0.00    +0.000 C 
BRANCH  33  34
ATOM     34  N   UNL     1       1.460   4.297  17.656  0.00  0.00    +0.000 NA
ATOM     35  H   UNL     1       1.067   4.587  16.763  0.00  0.00    +0.000 HD
ATOM     36  H   UNL     1       0.949   4.802  18.376  0.00  0.00    +0.000 HD
ENDBRANCH  33  34
ENDBRANCH  32  33
ENDBRANCH  31  32
ENDBRANCH  30  31
ENDBRANCH  28  30
ENDBRANCH  25  26
ENDBRANCH   7  25
TORSDOF 11
ENDMDL
MODEL 7
REMARK VINA RESULT:      -5.7      2.923      8.153
REMARK  Name = 
REMARK  14 active torsions:
REMARK  status: ('A' for Active; 'I' for Inactive)
REMARK    1  A    between atoms: C_1  and  O_2
REMARK    2  A    between atoms: O_2  and  C_3
REMARK    3  A    between atoms: C_8  and  O_9
REMARK    4  A    between atoms: O_9  and  C_10
REMARK    5  A    between atoms: C_11  and  C_12
REMARK    6  A    between atoms: C_12  and  C_13
REMARK    7  A    between atoms: N_15  and  C_16
REMARK    8  A    between atoms: C_16  and  C_17
REMARK    9  A    between atoms: C_17  and  C_18
REMARK   10  A    between atoms: C_18  and  C_19
REMARK   11  A    between atoms: C_19  and  N_20
REMARK   12  A    between atoms: N_21  and  S_22
REMARK   13  A    between atoms: S_22  and  C_25
REMARK   14  A    between atoms: C_28  and  C_29
REMARK                            x       y       z     vdW  Elec       q    Type
REMARK                         _______ _______ _______ _____ _____    ______ ____
ROOT
ATOM      1  C   UNL     1       2.022   7.306  20.117  0.00  0.00    +0.000 A 
ATOM      2  C   UNL     1       1.515   7.818  21.314  0.00  0.00    +0.000 A 
ATOM      3  C   UNL     1       0.921   9.082  21.349  0.00  0.00    +0.000 A 
ATOM      4  C   UNL     1       0.859   9.869  20.192  0.00  0.00    +0.000 A 
ATOM      5  C   UNL     1       1.344   9.342  18.983  0.00  0.00    +0.000 A 
ATOM      6  C   UNL     1       1.915   8.061  18.931  0.00  0.00    +0.000 A 
ATOM      7  C   UNL     1       0.337  11.307  20.307  0.00  0.00    +0.000 C 
ATOM      8  N   UNL     1      -0.853  11.438  21.240  0.00  0.00    +0.000 NA
ATOM      9  C   UNL     1      -1.057  10.250  22.149  0.00  0.00    +0.000 C 
ATOM     10  C   UNL     1       0.267   9.622  22.590  0.00  0.00    +0.000 C 
ENDROOT
BRANCH   8  11
ATOM     11  S   UNL     1      -1.253  12.925  21.983  0.00  0.00    +0.000 S 
ATOM     12  O   UNL     1      -0.415  13.050  23.162  0.00  0.00    +0.000 OA
ATOM     13  O   UNL     1      -1.221  13.937  20.949  0.00  0.00    +0.000 OA
BRANCH  11  14
ATOM     14  C   UNL     1      -2.929  12.790  22.583  0.00  0.00    +0.000 A 
ATOM     15  C   UNL     1      -3.180  12.668  23.954  0.00  0.00    +0.000 A 
ATOM     16  C   UNL     1      -4.500  12.669  24.419  0.00  0.00    +0.000 A 
ATOM     17  C   UNL     1      -5.575  12.826  23.530  0.00  0.00    +0.000 A 
ATOM     18  C   UNL     1      -6.993  12.877  24.031  0.00  0.00    +0.000 C 
ATOM     19  C   UNL     1      -5.308  12.986  22.165  0.00  0.00    +0.000 A 
ATOM     20  C   UNL     1      -3.995  12.958  21.691  0.00  0.00    +0.000 A 
ENDBRANCH  11  14
ENDBRANCH   8  11
BRANCH   1  22
ATOM     21  C   UNL     1       1.581   4.996  20.464  0.00  0.00    +0.000 C 
ATOM     22  O   UNL     1       2.529   6.033  20.226  0.00  0.00    +0.000 OA
ENDBRANCH   1  22
BRANCH   6  23
ATOM     23  O   UNL     1       2.347   7.470  17.781  0.00  0.00    +0.000 OA
ATOM     24  C   UNL     1       3.728   7.430  17.493  0.00  0.00    +0.000 C 
ENDBRANCH   6  23
BRANCH   7  25
ATOM     25  C   UNL     1       1.522  12.212  20.669  0.00  0.00    +0.000 C 
BRANCH  25  26
ATOM     26  C   UNL     1       1.872  13.226  19.607  0.00  0.00    +0.000 C 
ATOM     27  O   UNL     1       2.444  12.902  18.565  0.00  0.00    +0.000 OA
ATOM     28  N   UNL     1       1.594  14.540  19.921  0.00  0.00    +0.000 N 
ATOM     29  H   UNL     1       0.901  14.747  20.626  0.00  0.00    +0.000 HD
BRANCH  28  30
ATOM     30  C   UNL     1       1.940  15.617  19.014  0.00  0.00    +0.000 C 
BRANCH  30  31
ATOM     31  C   UNL     1       2.833  16.659  19.674  0.00  0.00    +0.000 C 
BRANCH  31  32
ATOM     32  C   UNL     1       4.053  16.040  20.380  0.00  0.00    +0.000 C 
BRANCH  32  33
ATOM     33  C   UNL     1       3.957  16.158  21.902  0.00  0.00    +0.000 C 
BRANCH  33  34
ATOM     34  N   UNL     1       3.276  15.004  22.479  0.00  0.00    +0.000 NA
ATOM     35  H   UNL     1       2.652  15.312  23.223  0.00  0.00    +0.000 HD
ATOM     36  H   UNL     1       3.957  14.383  22.910  0.00  0.00    +0.000 HD
ENDBRANCH  33  34
ENDBRANCH  32  33
ENDBRANCH  31  32
ENDBRANCH  30  31
ENDBRANCH  28  30
ENDBRANCH  25  26
ENDBRANCH   7  25
TORSDOF 11
ENDMDL
MODEL 8
REMARK VINA RESULT:      -5.7      2.806      6.452
REMARK  Name = 
REMARK  14 active torsions:
REMARK  status: ('A' for Active; 'I' for Inactive)
REMARK    1  A    between atoms: C_1  and  O_2
REMARK    2  A    between atoms: O_2  and  C_3
REMARK    3  A    between atoms: C_8  and  O_9
REMARK    4  A    between atoms: O_9  and  C_10
REMARK    5  A    between atoms: C_11  and  C_12
REMARK    6  A    between atoms: C_12  and  C_13
REMARK    7  A    between atoms: N_15  and  C_16
REMARK    8  A    between atoms: C_16  and  C_17
REMARK    9  A    between atoms: C_17  and  C_18
REMARK   10  A    between atoms: C_18  and  C_19
REMARK   11  A    between atoms: C_19  and  N_20
REMARK   12  A    between atoms: N_21  and  S_22
REMARK   13  A    between atoms: S_22  and  C_25
REMARK   14  A    between atoms: C_28  and  C_29
REMARK                            x       y       z     vdW  Elec       q    Type
REMARK                         _______ _______ _______ _____ _____    ______ ____
ROOT
ATOM      1  C   UNL     1      -3.811  10.754  16.245  0.00  0.00    +0.000 A 
ATOM      2  C   UNL     1      -2.477  10.430  16.505  0.00  0.00    +0.000 A 
ATOM      3  C   UNL     1      -1.869  10.835  17.695  0.00  0.00    +0.000 A 
ATOM      4  C   UNL     1      -2.577  11.604  18.629  0.00  0.00    +0.000 A 
ATOM      5  C   UNL     1      -3.926  11.905  18.378  0.00  0.00    +0.000 A 
ATOM      6  C   UNL     1      -4.556  11.477  17.200  0.00  0.00    +0.000 A 
ATOM      7  C   UNL     1      -1.828  12.155  19.849  0.00  0.00    +0.000 C 
ATOM      8  N   UNL     1      -0.845  11.164  20.444  0.00  0.00    +0.000 NA
ATOM      9  C   UNL     1      -0.511  10.005  19.535  0.00  0.00    +0.000 C 
ATOM     10  C   UNL     1      -0.473  10.416  18.061  0.00  0.00    +0.000 C 
ENDROOT
BRANCH   8  11
ATOM     11  S   UNL     1       0.484  11.674  21.392  0.00  0.00    +0.000 S 
ATOM     12  O   UNL     1      -0.042  12.544  22.429  0.00  0.00    +0.000 OA
ATOM     13  O   UNL     1       1.234  10.487  21.740  0.00  0.00    +0.000 OA
BRANCH  11  14
ATOM     14  C   UNL     1       1.514  12.705  20.360  0.00  0.00    +0.000 A 
ATOM     15  C   UNL     1       2.073  13.880  20.873  0.00  0.00    +0.000 A 
ATOM     16  C   UNL     1       2.962  14.623  20.088  0.00  0.00    +0.000 A 
ATOM     17  C   UNL     1       3.327  14.186  18.804  0.00  0.00    +0.000 A 
ATOM     18  C   UNL     1       4.320  14.956  17.977  0.00  0.00    +0.000 C 
ATOM     19  C   UNL     1       2.789  12.987  18.319  0.00  0.00    +0.000 A 
ATOM     20  C   UNL     1       1.880  12.256  19.086  0.00  0.00    +0.000 A 
ENDBRANCH  11  14
ENDBRANCH   8  11
BRANCH   1  22
ATOM     21  C   UNL     1      -3.329  10.069  14.020  0.00  0.00    +0.000 C 
ATOM     22  O   UNL     1      -4.287  10.245  15.060  0.00  0.00    +0.000 OA
ENDBRANCH   1  22
BRANCH   6  23
ATOM     23  O   UNL     1      -5.876  11.684  16.926  0.00  0.00    +0.000 OA
ATOM     24  C   UNL     1      -6.817  11.668  17.978  0.00  0.00    +0.000 C 
ENDBRANCH   6  23
BRANCH   7  25
ATOM     25  C   UNL     1      -1.203  13.499  19.452  0.00  0.00    +0.000 C 
BRANCH  25  26
ATOM     26  C   UNL     1      -1.576  14.646  20.359  0.00  0.00    +0.000 C 
ATOM     27  O   UNL     1      -1.034  15.748  20.268  0.00  0.00    +0.000 OA
ATOM     28  N   UNL     1      -2.492  14.351  21.347  0.00  0.00    +0.000 N 
ATOM     29  H   UNL     1      -3.107  13.558  21.235  0.00  0.00    +0.000 HD
BRANCH  28  30
ATOM     30  C   UNL     1      -2.888  15.348  22.324  0.00  0.00    +0.000 C 
BRANCH  30  31
ATOM     31  C   UNL     1      -2.818  14.814  23.749  0.00  0.00    +0.000 C 
BRANCH  31  32
ATOM     32  C   UNL     1      -3.175  13.320  23.845  0.00  0.00    +0.000 C 
BRANCH  32  33
ATOM     33  C   UNL     1      -4.654  13.103  24.169  0.00  0.00    +0.000 C 
BRANCH  33  34
ATOM     34  N   UNL     1      -4.863  11.835  24.859  0.00  0.00    +0.000 NA
ATOM     35  H   UNL     1      -5.860  11.678  24.993  0.00  0.00    +0.000 HD
ATOM     36  H   UNL     1      -4.448  11.875  25.787  0.00  0.00    +0.000 HD
ENDBRANCH  33  34
ENDBRANCH  32  33
ENDBRANCH  31  32
ENDBRANCH  30  31
ENDBRANCH  28  30
ENDBRANCH  25  26
ENDBRANCH   7  25
TORSDOF 11
ENDMDL
MODEL 9
REMARK VINA RESULT:      -5.7      2.591      7.891
REMARK  Name = 
REMARK  14 active torsions:
REMARK  status: ('A' for Active; 'I' for Inactive)
REMARK    1  A    between atoms: C_1  and  O_2
REMARK    2  A    between atoms: O_2  and  C_3
REMARK    3  A    between atoms: C_8  and  O_9
REMARK    4  A    between atoms: O_9  and  C_10
REMARK    5  A    between atoms: C_11  and  C_12
REMARK    6  A    between atoms: C_12  and  C_13
REMARK    7  A    between atoms: N_15  and  C_16
REMARK    8  A    between atoms: C_16  and  C_17
REMARK    9  A    between atoms: C_17  and  C_18
REMARK   10  A    between atoms: C_18  and  C_19
REMARK   11  A    between atoms: C_19  and  N_20
REMARK   12  A    between atoms: N_21  and  S_22
REMARK   13  A    between atoms: S_22  and  C_25
REMARK   14  A    between atoms: C_28  and  C_29
REMARK                            x       y       z     vdW  Elec       q    Type
REMARK                         _______ _______ _______ _____ _____    ______ ____
ROOT
ATOM      1  C   UNL     1       2.251   7.047  19.799  0.00  0.00    +0.000 A 
ATOM      2  C   UNL     1       1.556   7.688  20.828  0.00  0.00    +0.000 A 
ATOM      3  C   UNL     1       1.012   8.960  20.630  0.00  0.00    +0.000 A 
ATOM      4  C   UNL     1       1.186   9.625  19.409  0.00  0.00    +0.000 A 
ATOM      5  C   UNL     1       1.861   8.968  18.367  0.00  0.00    +0.000 A 
ATOM      6  C   UNL     1       2.386   7.678  18.544  0.00  0.00    +0.000 A 
ATOM      7  C   UNL     1       0.705  11.076  19.286  0.00  0.00    +0.000 C 
ATOM      8  N   UNL     1      -0.627  11.323  19.970  0.00  0.00    +0.000 NA
ATOM      9  C   UNL     1      -1.034  10.239  20.938  0.00  0.00    +0.000 C 
ATOM     10  C   UNL     1       0.167   9.636  21.672  0.00  0.00    +0.000 C 
ENDROOT
BRANCH   8  11
ATOM     11  S   UNL     1      -1.101  12.886  20.479  0.00  0.00    +0.000 S 
ATOM     12  O   UNL     1      -0.487  13.115  21.775  0.00  0.00    +0.000 OA
ATOM     13  O   UNL     1      -0.843  13.786  19.376  0.00  0.00    +0.000 OA
BRANCH  11  14
ATOM     14  C   UNL     1      -2.862  12.844  20.769  0.00  0.00    +0.000 A 
ATOM     15  C   UNL     1      -3.738  12.495  19.735  0.00  0.00    +0.000 A 
ATOM     16  C   UNL     1      -5.105  12.364  20.002  0.00  0.00    +0.000 A 
ATOM     17  C   UNL     1      -5.605  12.544  21.302  0.00  0.00    +0.000 A 
ATOM     18  C   UNL     1      -7.067  12.355  21.602  0.00  0.00    +0.000 C 
ATOM     19  C   UNL     1      -4.711  12.855  22.334  0.00  0.00    +0.000 A 
ATOM     20  C   UNL     1      -3.350  13.015  22.070  0.00  0.00    +0.000 A 
ENDBRANCH  11  14
ENDBRANCH   8  11
BRANCH   1  22
ATOM     21  C   UNL     1       1.672   4.796  20.293  0.00  0.00    +0.000 C 
ATOM     22  O   UNL     1       2.684   5.784  20.122  0.00  0.00    +0.000 OA
ENDBRANCH   1  22
BRANCH   6  23
ATOM     23  O   UNL     1       2.996   6.965  17.556  0.00  0.00    +0.000 OA
ATOM     24  C   UNL     1       4.397   7.036  17.406  0.00  0.00    +0.000 C 
ENDBRANCH   6  23
BRANCH   7  25
ATOM     25  C   UNL     1       1.838  11.993  19.768  0.00  0.00    +0.000 C 
BRANCH  25  26
ATOM     26  C   UNL     1       2.362  12.934  18.711  0.00  0.00    +0.000 C 
ATOM     27  O   UNL     1       2.955  12.523  17.713  0.00  0.00    +0.000 OA
ATOM     28  N   UNL     1       2.215  14.278  18.984  0.00  0.00    +0.000 N 
ATOM     29  H   UNL     1       1.510  14.578  19.640  0.00  0.00    +0.000 HD
BRANCH  28  30
ATOM     30  C   UNL     1       2.734  15.287  18.080  0.00  0.00    +0.000 C 
BRANCH  30  31
ATOM     31  C   UNL     1       2.517  16.698  18.609  0.00  0.00    +0.000 C 
BRANCH  31  32
ATOM     32  C   UNL     1       1.428  17.465  17.838  0.00  0.00    +0.000 C 
BRANCH  32  33
ATOM     33  C   UNL     1       0.020  17.054  18.270  0.00  0.00    +0.000 C 
BRANCH  33  34
ATOM     34  N   UNL     1      -0.000  16.626  19.665  0.00  0.00    +0.000 NA
ATOM     35  H   UNL     1      -0.878  16.151  19.865  0.00  0.00    +0.000 HD
ATOM     36  H   UNL     1       0.036  17.439  20.275  0.00  0.00    +0.000 HD
ENDBRANCH  33  34
ENDBRANCH  32  33
ENDBRANCH  31  32
ENDBRANCH  30  31
ENDBRANCH  28  30
ENDBRANCH  25  26
ENDBRANCH   7  25
TORSDOF 11
ENDMDL
