MODEL 1
REMARK VINA RESULT:      -6.7      0.000      0.000
REMARK  Name = 
REMARK  7 active torsions:
REMARK  status: ('A' for Active; 'I' for Inactive)
REMARK    1  A    between atoms: C_1  and  O_2
REMARK    2  A    between atoms: O_2  and  C_3
REMARK    3  A    between atoms: C_5  and  C_6
REMARK    4  A    between atoms: C_6  and  S_7
REMARK    5  A    between atoms: N_8  and  C_9
REMARK    6  A    between atoms: C_9  and  C_10
REMARK    7  A    between atoms: C_19  and  O_20
REMARK                            x       y       z     vdW  Elec       q    Type
REMARK                         _______ _______ _______ _____ _____    ______ ____
ROOT
ATOM      1  C   UNL     1       4.937   4.345  18.978  0.00  0.00    +0.000 A 
ATOM      2  C   UNL     1       4.361   5.612  18.764  0.00  0.00    +0.000 A 
ATOM      3  C   UNL     1       3.131   5.963  19.343  0.00  0.00    +0.000 A 
ATOM      4  C   UNL     1       2.465   5.019  20.134  0.00  0.00    +0.000 A 
ATOM      5  C   UNL     1       3.048   3.774  20.375  0.00  0.00    +0.000 A 
ATOM      6 BR   UNL     1       2.135   2.556  21.511  0.00  0.00    +0.000 Br
ATOM      7  C   UNL     1       4.282   3.433  19.806  0.00  0.00    +0.000 A 
ENDROOT
BRANCH   1   9
ATOM      8  C   UNL     1       6.260   4.644  17.026  0.00  0.00    +0.000 C 
ATOM      9  O   UNL     1       6.151   4.178  18.367  0.00  0.00    +0.000 OA
ENDBRANCH   1   9
BRANCH   3  10
ATOM     10  C   UNL     1       2.563   7.324  19.065  0.00  0.00    +0.000 C 
ATOM     11  N   UNL     1       1.778   7.867  19.931  0.00  0.00    +0.000 NA
BRANCH  10  12
ATOM     12  S   UNL     1       2.998   8.095  17.534  0.00  0.00    +0.000 S 
ATOM     13  H   UNL     1       1.800   8.077  16.939  0.00  0.00    +0.000 HD
ENDBRANCH  10  12
BRANCH  11  14
ATOM     14  C   UNL     1       1.205   9.192  19.681  0.00  0.00    +0.000 C 
BRANCH  14  15
ATOM     15  C   UNL     1       0.465   9.720  20.889  0.00  0.00    +0.000 A 
ATOM     16  C   UNL     1      -0.001  11.043  20.912  0.00  0.00    +0.000 A 
ATOM     17  C   UNL     1      -0.705  11.529  22.015  0.00  0.00    +0.000 A 
ATOM     18  C   UNL     1      -0.953  10.697  23.105  0.00  0.00    +0.000 A 
ATOM     19  C   UNL     1      -0.498   9.381  23.094  0.00  0.00    +0.000 A 
ATOM     20  C   UNL     1       0.205   8.892  21.990  0.00  0.00    +0.000 A 
ENDBRANCH  14  15
ENDBRANCH  11  14
ENDBRANCH   3  10
BRANCH   7  21
ATOM     21  O   UNL     1       4.843   2.216  20.090  0.00  0.00    +0.000 OA
ATOM     22  H   UNL     1       4.250   1.742  20.699  0.00  0.00    +0.000 HD
ENDBRANCH   7  21
TORSDOF 6
ENDMDL
MODEL 2
REMARK VINA RESULT:      -6.7      0.440      1.165
REMARK  Name = 
REMARK  7 active torsions:
REMARK  status: ('A' for Active; 'I' for Inactive)
REMARK    1  A    between atoms: C_1  and  O_2
REMARK    2  A    between atoms: O_2  and  C_3
REMARK    3  A    between atoms: C_5  and  C_6
REMARK    4  A    between atoms: C_6  and  S_7
REMARK    5  A    between atoms: N_8  and  C_9
REMARK    6  A    between atoms: C_9  and  C_10
REMARK    7  A    between atoms: C_19  and  O_20
REMARK                            x       y       z     vdW  Elec       q    Type
REMARK                         _______ _______ _______ _____ _____    ______ ____
ROOT
ATOM      1  C   UNL     1       4.892   4.452  18.974  0.00  0.00    +0.000 A 
ATOM      2  C   UNL     1       4.307   5.715  18.765  0.00  0.00    +0.000 A 
ATOM      3  C   UNL     1       3.062   6.046  19.326  0.00  0.00    +0.000 A 
ATOM      4  C   UNL     1       2.392   5.084  20.093  0.00  0.00    +0.000 A 
ATOM      5  C   UNL     1       2.985   3.843  20.329  0.00  0.00    +0.000 A 
ATOM      6 BR   UNL     1       2.065   2.600  21.432  0.00  0.00    +0.000 Br
ATOM      7  C   UNL     1       4.233   3.522  19.779  0.00  0.00    +0.000 A 
ENDROOT
BRANCH   1   9
ATOM      8  C   UNL     1       7.064   5.347  18.610  0.00  0.00    +0.000 C 
ATOM      9  O   UNL     1       6.120   4.306  18.383  0.00  0.00    +0.000 OA
ENDBRANCH   1   9
BRANCH   3  10
ATOM     10  C   UNL     1       2.484   7.403  19.054  0.00  0.00    +0.000 C 
ATOM     11  N   UNL     1       1.734   7.957  19.944  0.00  0.00    +0.000 NA
BRANCH  10  12
ATOM     12  S   UNL     1       2.858   8.156  17.499  0.00  0.00    +0.000 S 
ATOM     13  H   UNL     1       4.193   8.071  17.537  0.00  0.00    +0.000 HD
ENDBRANCH  10  12
BRANCH  11  14
ATOM     14  C   UNL     1       1.152   9.279  19.701  0.00  0.00    +0.000 C 
BRANCH  14  15
ATOM     15  C   UNL     1       0.382   9.783  20.901  0.00  0.00    +0.000 A 
ATOM     16  C   UNL     1       0.148   8.941  21.997  0.00  0.00    +0.000 A 
ATOM     17  C   UNL     1      -0.542   9.408  23.117  0.00  0.00    +0.000 A 
ATOM     18  C   UNL     1      -1.003  10.722  23.154  0.00  0.00    +0.000 A 
ATOM     19  C   UNL     1      -0.773  11.571  22.073  0.00  0.00    +0.000 A 
ATOM     20  C   UNL     1      -0.082  11.105  20.952  0.00  0.00    +0.000 A 
ENDBRANCH  14  15
ENDBRANCH  11  14
ENDBRANCH   3  10
BRANCH   7  21
ATOM     21  O   UNL     1       4.803   2.308  20.058  0.00  0.00    +0.000 OA
ATOM     22  H   UNL     1       5.431   2.097  19.345  0.00  0.00    +0.000 HD
ENDBRANCH   7  21
TORSDOF 6
ENDMDL
MODEL 3
REMARK VINA RESULT:      -6.5      5.343      6.311
REMARK  Name = 
REMARK  7 active torsions:
REMARK  status: ('A' for Active; 'I' for Inactive)
REMARK    1  A    between atoms: C_1  and  O_2
REMARK    2  A    between atoms: O_2  and  C_3
REMARK    3  A    between atoms: C_5  and  C_6
REMARK    4  A    between atoms: C_6  and  S_7
REMARK    5  A    between atoms: N_8  and  C_9
REMARK    6  A    between atoms: C_9  and  C_10
REMARK    7  A    between atoms: C_19  and  O_20
REMARK                            x       y       z     vdW  Elec       q    Type
REMARK                         _______ _______ _______ _____ _____    ______ ____
ROOT
ATOM      1  C   UNL     1       6.903   5.956  16.012  0.00  0.00    +0.000 A 
ATOM      2  C   UNL     1       5.725   5.763  16.758  0.00  0.00    +0.000 A 
ATOM      3  C   UNL     1       4.702   4.913  16.305  0.00  0.00    +0.000 A 
ATOM      4  C   UNL     1       4.863   4.264  15.075  0.00  0.00    +0.000 A 
ATOM      5  C   UNL     1       6.043   4.427  14.347  0.00  0.00    +0.000 A 
ATOM      6 BR   UNL     1       6.237   3.470  12.719  0.00  0.00    +0.000 Br
ATOM      7  C   UNL     1       7.066   5.265  14.810  0.00  0.00    +0.000 A 
ENDROOT
BRANCH   1   9
ATOM      8  C   UNL     1       7.612   7.054  17.997  0.00  0.00    +0.000 C 
ATOM      9  O   UNL     1       7.809   6.789  16.612  0.00  0.00    +0.000 OA
ENDBRANCH   1   9
BRANCH   3  10
ATOM     10  C   UNL     1       3.465   4.762  17.140  0.00  0.00    +0.000 C 
ATOM     11  N   UNL     1       2.776   3.676  17.050  0.00  0.00    +0.000 NA
BRANCH  10  12
ATOM     12  S   UNL     1       3.016   6.110  18.191  0.00  0.00    +0.000 S 
ATOM     13  H   UNL     1       2.124   6.712  17.396  0.00  0.00    +0.000 HD
ENDBRANCH  10  12
BRANCH  11  14
ATOM     14  C   UNL     1       1.560   3.505  17.850  0.00  0.00    +0.000 C 
BRANCH  14  15
ATOM     15  C   UNL     1       1.877   3.122  19.278  0.00  0.00    +0.000 A 
ATOM     16  C   UNL     1       3.129   2.584  19.606  0.00  0.00    +0.000 A 
ATOM     17  C   UNL     1       3.435   2.251  20.927  0.00  0.00    +0.000 A 
ATOM     18  C   UNL     1       2.493   2.455  21.933  0.00  0.00    +0.000 A 
ATOM     19  C   UNL     1       1.246   2.993  21.621  0.00  0.00    +0.000 A 
ATOM     20  C   UNL     1       0.939   3.327  20.300  0.00  0.00    +0.000 A 
ENDBRANCH  14  15
ENDBRANCH  11  14
ENDBRANCH   3  10
BRANCH   7  21
ATOM     21  O   UNL     1       8.225   5.377  14.090  0.00  0.00    +0.000 OA
ATOM     22  H   UNL     1       8.731   6.130  14.442  0.00  0.00    +0.000 HD
ENDBRANCH   7  21
TORSDOF 6
ENDMDL
MODEL 4
REMARK VINA RESULT:      -6.5      3.235      4.323
REMARK  Name = 
REMARK  7 active torsions:
REMARK  status: ('A' for Active; 'I' for Inactive)
REMARK    1  A    between atoms: C_1  and  O_2
REMARK    2  A    between atoms: O_2  and  C_3
REMARK    3  A    between atoms: C_5  and  C_6
REMARK    4  A    between atoms: C_6  and  S_7
REMARK    5  A    between atoms: N_8  and  C_9
REMARK    6  A    between atoms: C_9  and  C_10
REMARK    7  A    between atoms: C_19  and  O_20
REMARK                            x       y       z     vdW  Elec       q    Type
REMARK                         _______ _______ _______ _____ _____    ______ ____
ROOT
ATOM      1  C   UNL     1       6.891   6.201  16.361  0.00  0.00    +0.000 A 
ATOM      2  C   UNL     1       5.797   6.140  17.245  0.00  0.00    +0.000 A 
ATOM      3  C   UNL     1       4.682   5.330  16.974  0.00  0.00    +0.000 A 
ATOM      4  C   UNL     1       4.663   4.586  15.788  0.00  0.00    +0.000 A 
ATOM      5  C   UNL     1       5.759   4.619  14.924  0.00  0.00    +0.000 A 
ATOM      6 BR   UNL     1       5.710   3.539  13.364  0.00  0.00    +0.000 Br
ATOM      7  C   UNL     1       6.875   5.418  15.206  0.00  0.00    +0.000 A 
ENDROOT
BRANCH   1   9
ATOM      8  C   UNL     1       7.925   7.330  18.179  0.00  0.00    +0.000 C 
ATOM      9  O   UNL     1       7.907   7.014  16.791  0.00  0.00    +0.000 OA
ENDBRANCH   1   9
BRANCH   3  10
ATOM     10  C   UNL     1       3.542   5.320  17.949  0.00  0.00    +0.000 C 
ATOM     11  N   UNL     1       3.510   6.202  18.888  0.00  0.00    +0.000 NA
BRANCH  10  12
ATOM     12  S   UNL     1       2.311   4.066  17.755  0.00  0.00    +0.000 S 
ATOM     13  H   UNL     1       3.092   2.984  17.842  0.00  0.00    +0.000 HD
ENDBRANCH  10  12
BRANCH  11  14
ATOM     14  C   UNL     1       2.412   6.210  19.857  0.00  0.00    +0.000 C 
BRANCH  14  15
ATOM     15  C   UNL     1       1.785   7.581  19.984  0.00  0.00    +0.000 A 
ATOM     16  C   UNL     1       1.792   8.466  18.897  0.00  0.00    +0.000 A 
ATOM     17  C   UNL     1       1.195   9.724  19.002  0.00  0.00    +0.000 A 
ATOM     18  C   UNL     1       0.583  10.108  20.194  0.00  0.00    +0.000 A 
ATOM     19  C   UNL     1       0.567   9.236  21.280  0.00  0.00    +0.000 A 
ATOM     20  C   UNL     1       1.163   7.977  21.177  0.00  0.00    +0.000 A 
ENDBRANCH  14  15
ENDBRANCH  11  14
ENDBRANCH   3  10
BRANCH   7  21
ATOM     21  O   UNL     1       7.949   5.402  14.356  0.00  0.00    +0.000 OA
ATOM     22  H   UNL     1       8.393   4.540  14.442  0.00  0.00    +0.000 HD
ENDBRANCH   7  21
TORSDOF 6
ENDMDL
MODEL 5
REMARK VINA RESULT:      -6.5      5.363      6.295
REMARK  Name = 
REMARK  7 active torsions:
REMARK  status: ('A' for Active; 'I' for Inactive)
REMARK    1  A    between atoms: C_1  and  O_2
REMARK    2  A    between atoms: O_2  and  C_3
REMARK    3  A    between atoms: C_5  and  C_6
REMARK    4  A    between atoms: C_6  and  S_7
REMARK    5  A    between atoms: N_8  and  C_9
REMARK    6  A    between atoms: C_9  and  C_10
REMARK    7  A    between atoms: C_19  and  O_20
REMARK                            x       y       z     vdW  Elec       q    Type
REMARK                         _______ _______ _______ _____ _____    ______ ____
ROOT
ATOM      1  C   UNL     1       6.829   5.977  16.093  0.00  0.00    +0.000 A 
ATOM      2  C   UNL     1       5.655   5.736  16.831  0.00  0.00    +0.000 A 
ATOM      3  C   UNL     1       4.653   4.876  16.351  0.00  0.00    +0.000 A 
ATOM      4  C   UNL     1       4.831   4.265  15.103  0.00  0.00    +0.000 A 
ATOM      5  C   UNL     1       6.008   4.476  14.384  0.00  0.00    +0.000 A 
ATOM      6 BR   UNL     1       6.228   3.569  12.730  0.00  0.00    +0.000 Br
ATOM      7  C   UNL     1       7.010   5.324  14.873  0.00  0.00    +0.000 A 
ENDROOT
BRANCH   1   9
ATOM      8  C   UNL     1       7.751   6.756  18.140  0.00  0.00    +0.000 C 
ATOM      9  O   UNL     1       7.714   6.814  16.718  0.00  0.00    +0.000 OA
ENDBRANCH   1   9
BRANCH   3  10
ATOM     10  C   UNL     1       3.418   4.672  17.178  0.00  0.00    +0.000 C 
ATOM     11  N   UNL     1       2.781   3.554  17.093  0.00  0.00    +0.000 NA
BRANCH  10  12
ATOM     12  S   UNL     1       2.897   6.006  18.214  0.00  0.00    +0.000 S 
ATOM     13  H   UNL     1       2.333   5.302  19.202  0.00  0.00    +0.000 HD
ENDBRANCH  10  12
BRANCH  11  14
ATOM     14  C   UNL     1       1.569   3.332  17.885  0.00  0.00    +0.000 C 
BRANCH  14  15
ATOM     15  C   UNL     1       1.891   3.034  19.332  0.00  0.00    +0.000 A 
ATOM     16  C   UNL     1       0.937   3.269  20.332  0.00  0.00    +0.000 A 
ATOM     17  C   UNL     1       1.221   2.974  21.667  0.00  0.00    +0.000 A 
ATOM     18  C   UNL     1       2.460   2.441  22.015  0.00  0.00    +0.000 A 
ATOM     19  C   UNL     1       3.415   2.199  21.030  0.00  0.00    +0.000 A 
ATOM     20  C   UNL     1       3.133   2.493  19.694  0.00  0.00    +0.000 A 
ENDBRANCH  14  15
ENDBRANCH  11  14
ENDBRANCH   3  10
BRANCH   7  21
ATOM     21  O   UNL     1       8.168   5.483  14.159  0.00  0.00    +0.000 OA
ATOM     22  H   UNL     1       8.833   4.868  14.516  0.00  0.00    +0.000 HD
ENDBRANCH   7  21
TORSDOF 6
ENDMDL
MODEL 6
REMARK VINA RESULT:      -6.5      2.424      3.048
REMARK  Name = 
REMARK  7 active torsions:
REMARK  status: ('A' for Active; 'I' for Inactive)
REMARK    1  A    between atoms: C_1  and  O_2
REMARK    2  A    between atoms: O_2  and  C_3
REMARK    3  A    between atoms: C_5  and  C_6
REMARK    4  A    between atoms: C_6  and  S_7
REMARK    5  A    between atoms: N_8  and  C_9
REMARK    6  A    between atoms: C_9  and  C_10
REMARK    7  A    between atoms: C_19  and  O_20
REMARK                            x       y       z     vdW  Elec       q    Type
REMARK                         _______ _______ _______ _____ _____    ______ ____
ROOT
ATOM      1  C   UNL     1       3.459   5.475  18.252  0.00  0.00    +0.000 A 
ATOM      2  C   UNL     1       2.928   6.740  18.568  0.00  0.00    +0.000 A 
ATOM      3  C   UNL     1       2.129   6.934  19.706  0.00  0.00    +0.000 A 
ATOM      4  C   UNL     1       1.849   5.835  20.528  0.00  0.00    +0.000 A 
ATOM      5  C   UNL     1       2.400   4.587  20.236  0.00  0.00    +0.000 A 
ATOM      6 BR   UNL     1       2.045   3.146  21.421  0.00  0.00    +0.000 Br
ATOM      7  C   UNL     1       3.208   4.401  19.107  0.00  0.00    +0.000 A 
ENDROOT
BRANCH   1   9
ATOM      8  C   UNL     1       4.855   6.700  16.768  0.00  0.00    +0.000 C 
ATOM      9  O   UNL     1       4.241   5.467  17.127  0.00  0.00    +0.000 OA
ENDBRANCH   1   9
BRANCH   3  10
ATOM     10  C   UNL     1       1.581   8.304  19.980  0.00  0.00    +0.000 C 
ATOM     11  N   UNL     1       1.471   9.142  19.007  0.00  0.00    +0.000 NA
BRANCH  10  12
ATOM     12  S   UNL     1       1.135   8.690  21.646  0.00  0.00    +0.000 S 
ATOM     13  H   UNL     1       2.153   8.098  22.282  0.00  0.00    +0.000 HD
ENDBRANCH  10  12
BRANCH  11  14
ATOM     14  C   UNL     1       0.944  10.488  19.247  0.00  0.00    +0.000 C 
BRANCH  14  15
ATOM     15  C   UNL     1      -0.461  10.645  18.709  0.00  0.00    +0.000 A 
ATOM     16  C   UNL     1      -0.911   9.837  17.656  0.00  0.00    +0.000 A 
ATOM     17  C   UNL     1      -2.214   9.962  17.172  0.00  0.00    +0.000 A 
ATOM     18  C   UNL     1      -3.081  10.895  17.737  0.00  0.00    +0.000 A 
ATOM     19  C   UNL     1      -2.647  11.702  18.786  0.00  0.00    +0.000 A 
ATOM     20  C   UNL     1      -1.344  11.578  19.272  0.00  0.00    +0.000 A 
ENDBRANCH  14  15
ENDBRANCH  11  14
ENDBRANCH   3  10
BRANCH   7  21
ATOM     21  O   UNL     1       3.762   3.171  18.867  0.00  0.00    +0.000 OA
ATOM     22  H   UNL     1       4.158   2.849  19.696  0.00  0.00    +0.000 HD
ENDBRANCH   7  21
TORSDOF 6
ENDMDL
MODEL 7
REMARK VINA RESULT:      -6.4      4.647      7.615
REMARK  Name = 
REMARK  7 active torsions:
REMARK  status: ('A' for Active; 'I' for Inactive)
REMARK    1  A    between atoms: C_1  and  O_2
REMARK    2  A    between atoms: O_2  and  C_3
REMARK    3  A    between atoms: C_5  and  C_6
REMARK    4  A    between atoms: C_6  and  S_7
REMARK    5  A    between atoms: N_8  and  C_9
REMARK    6  A    between atoms: C_9  and  C_10
REMARK    7  A    between atoms: C_19  and  O_20
REMARK                            x       y       z     vdW  Elec       q    Type
REMARK                         _______ _______ _______ _____ _____    ______ ____
ROOT
ATOM      1  C   UNL     1      -1.255  11.116  18.587  0.00  0.00    +0.000 A 
ATOM      2  C   UNL     1      -0.280  10.115  18.420  0.00  0.00    +0.000 A 
ATOM      3  C   UNL     1       0.475   9.640  19.505  0.00  0.00    +0.000 A 
ATOM      4  C   UNL     1       0.253  10.194  20.773  0.00  0.00    +0.000 A 
ATOM      5  C   UNL     1      -0.736  11.163  20.948  0.00  0.00    +0.000 A 
ATOM      6 BR   UNL     1      -1.042  11.831  22.699  0.00  0.00    +0.000 Br
ATOM      7  C   UNL     1      -1.495  11.624  19.865  0.00  0.00    +0.000 A 
ENDROOT
BRANCH   1   9
ATOM      8  C   UNL     1      -2.610  10.383  16.776  0.00  0.00    +0.000 C 
ATOM      9  O   UNL     1      -1.920  11.441  17.434  0.00  0.00    +0.000 OA
ENDBRANCH   1   9
BRANCH   3  10
ATOM     10  C   UNL     1       1.510   8.583  19.259  0.00  0.00    +0.000 C 
ATOM     11  N   UNL     1       1.707   7.675  20.152  0.00  0.00    +0.000 NA
BRANCH  10  12
ATOM     12  S   UNL     1       2.421   8.666  17.746  0.00  0.00    +0.000 S 
ATOM     13  H   UNL     1       3.144   9.764  17.992  0.00  0.00    +0.000 HD
ENDBRANCH  10  12
BRANCH  11  14
ATOM     14  C   UNL     1       2.716   6.635  19.939  0.00  0.00    +0.000 C 
BRANCH  14  15
ATOM     15  C   UNL     1       2.085   5.296  19.630  0.00  0.00    +0.000 A 
ATOM     16  C   UNL     1       2.051   4.817  18.312  0.00  0.00    +0.000 A 
ATOM     17  C   UNL     1       1.491   3.571  18.024  0.00  0.00    +0.000 A 
ATOM     18  C   UNL     1       0.962   2.791  19.050  0.00  0.00    +0.000 A 
ATOM     19  C   UNL     1       0.993   3.254  20.363  0.00  0.00    +0.000 A 
ATOM     20  C   UNL     1       1.553   4.499  20.654  0.00  0.00    +0.000 A 
ENDBRANCH  14  15
ENDBRANCH  11  14
ENDBRANCH   3  10
BRANCH   7  21
ATOM     21  O   UNL     1      -2.482  12.550  20.076  0.00  0.00    +0.000 OA
ATOM     22  H   UNL     1      -2.804  12.854  19.210  0.00  0.00    +0.000 HD
ENDBRANCH   7  21
TORSDOF 6
ENDMDL
MODEL 8
REMARK VINA RESULT:      -6.4      0.966      1.428
REMARK  Name = 
REMARK  7 active torsions:
REMARK  status: ('A' for Active; 'I' for Inactive)
REMARK    1  A    between atoms: C_1  and  O_2
REMARK    2  A    between atoms: O_2  and  C_3
REMARK    3  A    between atoms: C_5  and  C_6
REMARK    4  A    between atoms: C_6  and  S_7
REMARK    5  A    between atoms: N_8  and  C_9
REMARK    6  A    between atoms: C_9  and  C_10
REMARK    7  A    between atoms: C_19  and  O_20
REMARK                            x       y       z     vdW  Elec       q    Type
REMARK                         _______ _______ _______ _____ _____    ______ ____
ROOT
ATOM      1  C   UNL     1       3.578   3.914  18.053  0.00  0.00    +0.000 A 
ATOM      2  C   UNL     1       3.300   5.293  18.029  0.00  0.00    +0.000 A 
ATOM      3  C   UNL     1       2.574   5.912  19.060  0.00  0.00    +0.000 A 
ATOM      4  C   UNL     1       2.109   5.125  20.121  0.00  0.00    +0.000 A 
ATOM      5  C   UNL     1       2.410   3.763  20.166  0.00  0.00    +0.000 A 
ATOM      6 BR   UNL     1       1.814   2.756  21.661  0.00  0.00    +0.000 Br
ATOM      7  C   UNL     1       3.147   3.153  19.141  0.00  0.00    +0.000 A 
ENDROOT
BRANCH   1   9
ATOM      8  C   UNL     1       5.197   4.430  16.392  0.00  0.00    +0.000 C 
ATOM      9  O   UNL     1       4.322   3.479  16.988  0.00  0.00    +0.000 OA
ENDBRANCH   1   9
BRANCH   3  10
ATOM     10  C   UNL     1       2.298   7.384  18.968  0.00  0.00    +0.000 C 
ATOM     11  N   UNL     1       1.549   7.940  19.858  0.00  0.00    +0.000 NA
BRANCH  10  12
ATOM     12  S   UNL     1       3.010   8.267  17.612  0.00  0.00    +0.000 S 
ATOM     13  H   UNL     1       3.874   7.339  17.184  0.00  0.00    +0.000 HD
ENDBRANCH  10  12
BRANCH  11  14
ATOM     14  C   UNL     1       1.258   9.374  19.788  0.00  0.00    +0.000 C 
BRANCH  14  15
ATOM     15  C   UNL     1       0.429   9.837  20.964  0.00  0.00    +0.000 A 
ATOM     16  C   UNL     1       0.480   9.145  22.183  0.00  0.00    +0.000 A 
ATOM     17  C   UNL     1      -0.266   9.582  23.279  0.00  0.00    +0.000 A 
ATOM     18  C   UNL     1      -1.069  10.716  23.168  0.00  0.00    +0.000 A 
ATOM     19  C   UNL     1      -1.126  11.413  21.964  0.00  0.00    +0.000 A 
ATOM     20  C   UNL     1      -0.379  10.978  20.867  0.00  0.00    +0.000 A 
ENDBRANCH  14  15
ENDBRANCH  11  14
ENDBRANCH   3  10
BRANCH   7  21
ATOM     21  O   UNL     1       3.455   1.822  19.231  0.00  0.00    +0.000 OA
ATOM     22  H   UNL     1       2.870   1.418  19.896  0.00  0.00    +0.000 HD
ENDBRANCH   7  21
TORSDOF 6
ENDMDL
MODEL 9
REMARK VINA RESULT:      -6.4      1.014      1.014
REMARK  Name = 
REMARK  7 active torsions:
REMARK  status: ('A' for Active; 'I' for Inactive)
REMARK    1  A    between atoms: C_1  and  O_2
REMARK    2  A    between atoms: O_2  and  C_3
REMARK    3  A    between atoms: C_5  and  C_6
REMARK    4  A    between atoms: C_6  and  S_7
REMARK    5  A    between atoms: N_8  and  C_9
REMARK    6  A    between atoms: C_9  and  C_10
REMARK    7  A    between atoms: C_19  and  O_20
REMARK                            x       y       z     vdW  Elec       q    Type
REMARK                         _______ _______ _______ _____ _____    ______ ____
ROOT
ATOM      1  C   UNL     1       3.479   3.949  17.981  0.00  0.00    +0.000 A 
ATOM      2  C   UNL     1       3.221   5.332  17.975  0.00  0.00    +0.000 A 
ATOM      3  C   UNL     1       2.544   5.955  19.038  0.00  0.00    +0.000 A 
ATOM      4  C   UNL     1       2.108   5.168  20.111  0.00  0.00    +0.000 A 
ATOM      5  C   UNL     1       2.390   3.801  20.135  0.00  0.00    +0.000 A 
ATOM      6 BR   UNL     1       1.836   2.793  21.645  0.00  0.00    +0.000 Br
ATOM      7  C   UNL     1       3.077   3.187  19.079  0.00  0.00    +0.000 A 
ENDROOT
BRANCH   1   9
ATOM      8  C   UNL     1       5.299   4.289  16.491  0.00  0.00    +0.000 C 
ATOM      9  O   UNL     1       4.174   3.510  16.885  0.00  0.00    +0.000 OA
ENDBRANCH   1   9
BRANCH   3  10
ATOM     10  C   UNL     1       2.287   7.431  18.965  0.00  0.00    +0.000 C 
ATOM     11  N   UNL     1       1.580   7.992  19.886  0.00  0.00    +0.000 NA
BRANCH  10  12
ATOM     12  S   UNL     1       2.963   8.313  17.591  0.00  0.00    +0.000 S 
ATOM     13  H   UNL     1       2.821   9.563  18.048  0.00  0.00    +0.000 HD
ENDBRANCH  10  12
BRANCH  11  14
ATOM     14  C   UNL     1       1.308   9.430  19.836  0.00  0.00    +0.000 C 
BRANCH  14  15
ATOM     15  C   UNL     1       0.487   9.888  21.020  0.00  0.00    +0.000 A 
ATOM     16  C   UNL     1      -0.301  11.044  20.931  0.00  0.00    +0.000 A 
ATOM     17  C   UNL     1      -1.080  11.458  22.013  0.00  0.00    +0.000 A 
ATOM     18  C   UNL     1      -1.079  10.720  23.195  0.00  0.00    +0.000 A 
ATOM     19  C   UNL     1      -0.302   9.568  23.296  0.00  0.00    +0.000 A 
ATOM     20  C   UNL     1       0.476   9.152  22.213  0.00  0.00    +0.000 A 
ENDBRANCH  14  15
ENDBRANCH  11  14
ENDBRANCH   3  10
BRANCH   7  21
ATOM     21  O   UNL     1       3.369   1.851  19.149  0.00  0.00    +0.000 OA
ATOM     22  H   UNL     1       3.342   1.582  20.084  0.00  0.00    +0.000 HD
ENDBRANCH   7  21
TORSDOF 6
ENDMDL
