MODEL 1
REMARK VINA RESULT:      -7.3      0.000      0.000
REMARK  Name = 
REMARK  4 active torsions:
REMARK  status: ('A' for Active; 'I' for Inactive)
REMARK    1  A    between atoms: N_2  and  C_4
REMARK    2  A    between atoms: C_7  and  C_8
REMARK    3  A    between atoms: C_11  and  C_12
REMARK    4  A    between atoms: N_18  and  N_19
REMARK                            x       y       z     vdW  Elec       q    Type
REMARK                         _______ _______ _______ _____ _____    ______ ____
ROOT
ATOM      1  C   UNL     1       5.823  15.621  18.675  0.00  0.00    +0.000 A 
ATOM      2  N   UNL     1       6.054  16.860  19.070  0.00  0.00    +0.000 NA
ATOM      3  N   UNL     1       4.888  17.572  19.000  0.00  0.00    +0.000 NA
ATOM      4  C   UNL     1       3.925  16.760  18.616  0.00  0.00    +0.000 A 
ATOM      5  N   UNL     1       4.460  15.492  18.412  0.00  0.00    +0.000 N 
ENDROOT
BRANCH   5   6
ATOM      6  N   UNL     1       3.761  14.443  17.828  0.00  0.00    +0.000 N 
ATOM      7  C   UNL     1       2.924  13.552  18.403  0.00  0.00    +0.000 A 
ATOM      8  N   UNL     1       2.702  12.415  17.789  0.00  0.00    +0.000 NA
ATOM      9  C   UNL     1       1.972  11.558  18.586  0.00  0.00    +0.000 A 
ATOM     10  C   UNL     1       1.613  10.238  18.248  0.00  0.00    +0.000 A 
ATOM     11  C   UNL     1       0.921   9.450  19.172  0.00  0.00    +0.000 A 
ATOM     12  C   UNL     1       0.592   9.969  20.419  0.00  0.00    +0.000 A 
ATOM     13 CL   UNL     1      -0.241   8.971  21.549  0.00  0.00    +0.000 Cl
ATOM     14  C   UNL     1       0.918  11.284  20.774  0.00  0.00    +0.000 A 
ATOM     15  C   UNL     1       1.603  12.069  19.829  0.00  0.00    +0.000 A 
ATOM     16  S   UNL     1       2.124  13.715  19.917  0.00  0.00    +0.000 S 
ATOM     17  H   UNL     1       4.200  14.119  16.973  0.00  0.00    +0.000 HD
ENDBRANCH   5   6
BRANCH   1  21
ATOM     18  C   UNL     1       8.967  12.750  18.321  0.00  0.00    +0.000 A 
ATOM     19  C   UNL     1       7.999  12.861  17.318  0.00  0.00    +0.000 A 
ATOM     20  C   UNL     1       6.945  13.767  17.475  0.00  0.00    +0.000 A 
ATOM     21  C   UNL     1       6.843  14.565  18.630  0.00  0.00    +0.000 A 
ATOM     22  C   UNL     1       7.751  14.341  19.672  0.00  0.00    +0.000 A 
ATOM     23  C   UNL     1       8.836  13.476  19.509  0.00  0.00    +0.000 A 
BRANCH  18  25
ATOM     24  O   UNL     1      11.046  12.309  17.393  0.00  0.00    +0.000 OA
ATOM     25  N   UNL     1      10.138  11.889  18.124  0.00  0.00    +0.000 N 
ATOM     26  O   UNL     1      10.156  10.799  18.714  0.00  0.00    +0.000 OA
ENDBRANCH  18  25
ENDBRANCH   1  21
BRANCH   4  27
ATOM     27  C   UNL     1       2.541  17.158  18.346  0.00  0.00    +0.000 A 
ATOM     28  C   UNL     1       2.168  17.605  17.073  0.00  0.00    +0.000 A 
ATOM     29  C   UNL     1       0.846  17.975  16.821  0.00  0.00    +0.000 A 
ATOM     30  C   UNL     1      -0.068  17.891  17.856  0.00  0.00    +0.000 A 
ATOM     31  N   UNL     1       0.248  17.470  19.099  0.00  0.00    +0.000 NA
ATOM     32  C   UNL     1       1.542  17.126  19.315  0.00  0.00    +0.000 A 
ENDBRANCH   4  27
TORSDOF 4
ENDMDL
MODEL 2
REMARK VINA RESULT:      -7.3      5.400      8.067
REMARK  Name = 
REMARK  4 active torsions:
REMARK  status: ('A' for Active; 'I' for Inactive)
REMARK    1  A    between atoms: N_2  and  C_4
REMARK    2  A    between atoms: C_7  and  C_8
REMARK    3  A    between atoms: C_11  and  C_12
REMARK    4  A    between atoms: N_18  and  N_19
REMARK                            x       y       z     vdW  Elec       q    Type
REMARK                         _______ _______ _______ _____ _____    ______ ____
ROOT
ATOM      1  C   UNL     1      -2.275  16.261  21.141  0.00  0.00    +0.000 A 
ATOM      2  N   UNL     1      -2.483  17.079  22.157  0.00  0.00    +0.000 NA
ATOM      3  N   UNL     1      -3.347  16.484  23.035  0.00  0.00    +0.000 NA
ATOM      4  C   UNL     1      -3.629  15.277  22.590  0.00  0.00    +0.000 A 
ATOM      5  N   UNL     1      -2.956  15.070  21.391  0.00  0.00    +0.000 N 
ENDROOT
BRANCH   5   6
ATOM      6  N   UNL     1      -3.172  13.978  20.561  0.00  0.00    +0.000 N 
ATOM      7  C   UNL     1      -2.356  12.934  20.296  0.00  0.00    +0.000 A 
ATOM      8  N   UNL     1      -2.556  12.246  19.198  0.00  0.00    +0.000 NA
ATOM      9  C   UNL     1      -1.540  11.336  18.993  0.00  0.00    +0.000 A 
ATOM     10  C   UNL     1      -1.423  10.482  17.878  0.00  0.00    +0.000 A 
ATOM     11  C   UNL     1      -0.310   9.647  17.760  0.00  0.00    +0.000 A 
ATOM     12  C   UNL     1       0.678   9.663  18.738  0.00  0.00    +0.000 A 
ATOM     13 CL   UNL     1       2.053   8.640  18.558  0.00  0.00    +0.000 Cl
ATOM     14  C   UNL     1       0.578  10.485  19.866  0.00  0.00    +0.000 A 
ATOM     15  C   UNL     1      -0.555  11.311  19.979  0.00  0.00    +0.000 A 
ATOM     16  S   UNL     1      -1.012  12.410  21.233  0.00  0.00    +0.000 S 
ATOM     17  H   UNL     1      -3.853  14.176  19.836  0.00  0.00    +0.000 HD
ENDBRANCH   5   6
BRANCH   1  21
ATOM     18  C   UNL     1       0.373  17.435  18.001  0.00  0.00    +0.000 A 
ATOM     19  C   UNL     1      -0.923  17.957  18.061  0.00  0.00    +0.000 A 
ATOM     20  C   UNL     1      -1.796  17.520  19.062  0.00  0.00    +0.000 A 
ATOM     21  C   UNL     1      -1.389  16.560  20.008  0.00  0.00    +0.000 A 
ATOM     22  C   UNL     1      -0.134  15.962  19.847  0.00  0.00    +0.000 A 
ATOM     23  C   UNL     1       0.765  16.423  18.882  0.00  0.00    +0.000 A 
BRANCH  18  25
ATOM     24  O   UNL     1       0.889  18.553  16.036  0.00  0.00    +0.000 OA
ATOM     25  N   UNL     1       1.336  17.963  17.029  0.00  0.00    +0.000 N 
ATOM     26  O   UNL     1       2.542  17.800  17.268  0.00  0.00    +0.000 OA
ENDBRANCH  18  25
ENDBRANCH   1  21
BRANCH   4  27
ATOM     27  C   UNL     1      -4.581  14.350  23.208  0.00  0.00    +0.000 A 
ATOM     28  C   UNL     1      -5.951  14.636  23.205  0.00  0.00    +0.000 A 
ATOM     29  C   UNL     1      -6.853  13.745  23.788  0.00  0.00    +0.000 A 
ATOM     30  C   UNL     1      -6.356  12.589  24.364  0.00  0.00    +0.000 A 
ATOM     31  N   UNL     1      -5.043  12.276  24.393  0.00  0.00    +0.000 NA
ATOM     32  C   UNL     1      -4.191  13.165  23.827  0.00  0.00    +0.000 A 
ENDBRANCH   4  27
TORSDOF 4
ENDMDL
MODEL 3
REMARK VINA RESULT:      -7.2      0.967      1.165
REMARK  Name = 
REMARK  4 active torsions:
REMARK  status: ('A' for Active; 'I' for Inactive)
REMARK    1  A    between atoms: N_2  and  C_4
REMARK    2  A    between atoms: C_7  and  C_8
REMARK    3  A    between atoms: C_11  and  C_12
REMARK    4  A    between atoms: N_18  and  N_19
REMARK                            x       y       z     vdW  Elec       q    Type
REMARK                         _______ _______ _______ _____ _____    ______ ____
ROOT
ATOM      1  C   UNL     1       4.888  16.130  19.252  0.00  0.00    +0.000 A 
ATOM      2  N   UNL     1       4.935  17.354  19.747  0.00  0.00    +0.000 NA
ATOM      3  N   UNL     1       3.680  17.897  19.707  0.00  0.00    +0.000 NA
ATOM      4  C   UNL     1       2.847  16.990  19.239  0.00  0.00    +0.000 A 
ATOM      5  N   UNL     1       3.560  15.831  18.949  0.00  0.00    +0.000 N 
ENDROOT
BRANCH   5   6
ATOM      6  N   UNL     1       3.026  14.744  18.269  0.00  0.00    +0.000 N 
ATOM      7  C   UNL     1       2.344  13.685  18.758  0.00  0.00    +0.000 A 
ATOM      8  N   UNL     1       2.293  12.589  18.041  0.00  0.00    +0.000 NA
ATOM      9  C   UNL     1       1.714  11.558  18.754  0.00  0.00    +0.000 A 
ATOM     10  C   UNL     1       1.560  10.235  18.295  0.00  0.00    +0.000 A 
ATOM     11  C   UNL     1       1.011   9.269  19.140  0.00  0.00    +0.000 A 
ATOM     12  C   UNL     1       0.621   9.614  20.430  0.00  0.00    +0.000 A 
ATOM     13 CL   UNL     1      -0.033   8.399  21.461  0.00  0.00    +0.000 Cl
ATOM     14  C   UNL     1       0.744  10.925  20.905  0.00  0.00    +0.000 A 
ATOM     15  C   UNL     1       1.286  11.891  20.038  0.00  0.00    +0.000 A 
ATOM     16  S   UNL     1       1.547  13.583  20.279  0.00  0.00    +0.000 S 
ATOM     17  H   UNL     1       3.499  14.572  17.388  0.00  0.00    +0.000 HD
ENDBRANCH   5   6
BRANCH   1  21
ATOM     18  C   UNL     1       8.434  13.793  18.797  0.00  0.00    +0.000 A 
ATOM     19  C   UNL     1       7.581  13.995  17.708  0.00  0.00    +0.000 A 
ATOM     20  C   UNL     1       6.395  14.715  17.888  0.00  0.00    +0.000 A 
ATOM     21  C   UNL     1       6.049  15.236  19.148  0.00  0.00    +0.000 A 
ATOM     22  C   UNL     1       6.856  14.910  20.244  0.00  0.00    +0.000 A 
ATOM     23  C   UNL     1       8.067  14.233  20.071  0.00  0.00    +0.000 A 
BRANCH  18  25
ATOM     24  O   UNL     1      10.614  13.345  19.449  0.00  0.00    +0.000 OA
ATOM     25  N   UNL     1       9.733  13.138  18.604  0.00  0.00    +0.000 N 
ATOM     26  O   UNL     1       9.865  12.404  17.613  0.00  0.00    +0.000 OA
ENDBRANCH  18  25
ENDBRANCH   1  21
BRANCH   4  27
ATOM     27  C   UNL     1       1.424  17.209  18.970  0.00  0.00    +0.000 A 
ATOM     28  C   UNL     1       1.003  17.673  17.718  0.00  0.00    +0.000 A 
ATOM     29  C   UNL     1      -0.355  17.872  17.466  0.00  0.00    +0.000 A 
ATOM     30  C   UNL     1      -1.257  17.603  18.479  0.00  0.00    +0.000 A 
ATOM     31  N   UNL     1      -0.896  17.158  19.701  0.00  0.00    +0.000 NA
ATOM     32  C   UNL     1       0.431  16.983  19.919  0.00  0.00    +0.000 A 
ENDBRANCH   4  27
TORSDOF 4
ENDMDL
MODEL 4
REMARK VINA RESULT:      -7.1      6.436      9.319
REMARK  Name = 
REMARK  4 active torsions:
REMARK  status: ('A' for Active; 'I' for Inactive)
REMARK    1  A    between atoms: N_2  and  C_4
REMARK    2  A    between atoms: C_7  and  C_8
REMARK    3  A    between atoms: C_11  and  C_12
REMARK    4  A    between atoms: N_18  and  N_19
REMARK                            x       y       z     vdW  Elec       q    Type
REMARK                         _______ _______ _______ _____ _____    ______ ____
ROOT
ATOM      1  C   UNL     1      -1.870  14.495  22.993  0.00  0.00    +0.000 A 
ATOM      2  N   UNL     1      -1.292  15.255  23.906  0.00  0.00    +0.000 NA
ATOM      3  N   UNL     1      -0.049  15.614  23.462  0.00  0.00    +0.000 NA
ATOM      4  C   UNL     1       0.121  15.121  22.252  0.00  0.00    +0.000 A 
ATOM      5  N   UNL     1      -1.020  14.413  21.891  0.00  0.00    +0.000 N 
ENDROOT
BRANCH   5   6
ATOM      6  N   UNL     1      -1.108  13.614  20.758  0.00  0.00    +0.000 N 
ATOM      7  C   UNL     1      -0.625  12.368  20.554  0.00  0.00    +0.000 A 
ATOM      8  N   UNL     1      -0.445  11.961  19.321  0.00  0.00    +0.000 NA
ATOM      9  C   UNL     1       0.211  10.747  19.292  0.00  0.00    +0.000 A 
ATOM     10  C   UNL     1       0.608  10.062  18.127  0.00  0.00    +0.000 A 
ATOM     11  C   UNL     1       1.320   8.866  18.236  0.00  0.00    +0.000 A 
ATOM     12  C   UNL     1       1.638   8.358  19.490  0.00  0.00    +0.000 A 
ATOM     13 CL   UNL     1       2.538   6.893  19.598  0.00  0.00    +0.000 Cl
ATOM     14  C   UNL     1       1.238   9.006  20.665  0.00  0.00    +0.000 A 
ATOM     15  C   UNL     1       0.510  10.203  20.540  0.00  0.00    +0.000 A 
ATOM     16  S   UNL     1      -0.160  11.231  21.758  0.00  0.00    +0.000 S 
ATOM     17  H   UNL     1      -1.239  14.159  19.913  0.00  0.00    +0.000 HD
ENDBRANCH   5   6
BRANCH   1  21
ATOM     18  C   UNL     1      -5.801  12.976  23.694  0.00  0.00    +0.000 A 
ATOM     19  C   UNL     1      -4.683  12.278  24.160  0.00  0.00    +0.000 A 
ATOM     20  C   UNL     1      -3.401  12.759  23.874  0.00  0.00    +0.000 A 
ATOM     21  C   UNL     1      -3.221  13.934  23.121  0.00  0.00    +0.000 A 
ATOM     22  C   UNL     1      -4.351  14.540  22.559  0.00  0.00    +0.000 A 
ATOM     23  C   UNL     1      -5.639  14.099  22.877  0.00  0.00    +0.000 A 
BRANCH  18  25
ATOM     24  O   UNL     1      -7.440  11.353  23.937  0.00  0.00    +0.000 OA
ATOM     25  N   UNL     1      -7.151  12.549  24.078  0.00  0.00    +0.000 N 
ATOM     26  O   UNL     1      -7.917  13.409  24.537  0.00  0.00    +0.000 OA
ENDBRANCH  18  25
ENDBRANCH   1  21
BRANCH   4  27
ATOM     27  C   UNL     1       1.353  15.219  21.466  0.00  0.00    +0.000 A 
ATOM     28  C   UNL     1       1.428  16.091  20.373  0.00  0.00    +0.000 A 
ATOM     29  C   UNL     1       2.608  16.186  19.634  0.00  0.00    +0.000 A 
ATOM     30  C   UNL     1       3.682  15.397  20.007  0.00  0.00    +0.000 A 
ATOM     31  N   UNL     1       3.652  14.540  21.049  0.00  0.00    +0.000 NA
ATOM     32  C   UNL     1       2.489  14.464  21.743  0.00  0.00    +0.000 A 
ENDBRANCH   4  27
TORSDOF 4
ENDMDL
MODEL 5
REMARK VINA RESULT:      -7.0      7.296     11.325
REMARK  Name = 
REMARK  4 active torsions:
REMARK  status: ('A' for Active; 'I' for Inactive)
REMARK    1  A    between atoms: N_2  and  C_4
REMARK    2  A    between atoms: C_7  and  C_8
REMARK    3  A    between atoms: C_11  and  C_12
REMARK    4  A    between atoms: N_18  and  N_19
REMARK                            x       y       z     vdW  Elec       q    Type
REMARK                         _______ _______ _______ _____ _____    ______ ____
ROOT
ATOM      1  C   UNL     1       1.648   6.187  20.511  0.00  0.00    +0.000 A 
ATOM      2  N   UNL     1       0.685   5.348  20.853  0.00  0.00    +0.000 NA
ATOM      3  N   UNL     1       1.145   4.068  20.719  0.00  0.00    +0.000 NA
ATOM      4  C   UNL     1       2.409   4.114  20.347  0.00  0.00    +0.000 A 
ATOM      5  N   UNL     1       2.791   5.444  20.218  0.00  0.00    +0.000 N 
ENDROOT
BRANCH   5   6
ATOM      6  N   UNL     1       3.999   5.852  19.666  0.00  0.00    +0.000 N 
ATOM      7  C   UNL     1       4.463   5.679  18.409  0.00  0.00    +0.000 A 
ATOM      8  N   UNL     1       5.755   5.757  18.203  0.00  0.00    +0.000 NA
ATOM      9  C   UNL     1       6.073   5.387  16.912  0.00  0.00    +0.000 A 
ATOM     10  C   UNL     1       7.376   5.305  16.384  0.00  0.00    +0.000 A 
ATOM     11  C   UNL     1       7.566   4.858  15.075  0.00  0.00    +0.000 A 
ATOM     12  C   UNL     1       6.472   4.493  14.299  0.00  0.00    +0.000 A 
ATOM     13 CL   UNL     1       6.734   3.922  12.695  0.00  0.00    +0.000 Cl
ATOM     14  C   UNL     1       5.164   4.583  14.790  0.00  0.00    +0.000 A 
ATOM     15  C   UNL     1       4.987   5.048  16.106  0.00  0.00    +0.000 A 
ATOM     16  S   UNL     1       3.536   5.312  17.008  0.00  0.00    +0.000 S 
ATOM     17  H   UNL     1       4.720   5.974  20.369  0.00  0.00    +0.000 HD
ENDBRANCH   5   6
BRANCH   1  21
ATOM     18  C   UNL     1       0.958  10.402  20.460  0.00  0.00    +0.000 A 
ATOM     19  C   UNL     1       1.340   9.738  19.291  0.00  0.00    +0.000 A 
ATOM     20  C   UNL     1       1.616   8.367  19.337  0.00  0.00    +0.000 A 
ATOM     21  C   UNL     1       1.519   7.650  20.543  0.00  0.00    +0.000 A 
ATOM     22  C   UNL     1       1.260   8.363  21.720  0.00  0.00    +0.000 A 
ATOM     23  C   UNL     1       0.935   9.721  21.681  0.00  0.00    +0.000 A 
BRANCH  18  25
ATOM     24  O   UNL     1      -0.184  12.168  19.482  0.00  0.00    +0.000 OA
ATOM     25  N   UNL     1       0.556  11.812  20.410  0.00  0.00    +0.000 N 
ATOM     26  O   UNL     1       0.969  12.560  21.308  0.00  0.00    +0.000 OA
ENDBRANCH  18  25
ENDBRANCH   1  21
BRANCH   4  27
ATOM     27  C   UNL     1       3.237   2.950  20.023  0.00  0.00    +0.000 A 
ATOM     28  C   UNL     1       2.986   2.203  18.866  0.00  0.00    +0.000 A 
ATOM     29  C   UNL     1       3.784   1.100  18.558  0.00  0.00    +0.000 A 
ATOM     30  C   UNL     1       4.813   0.772  19.424  0.00  0.00    +0.000 A 
ATOM     31  N   UNL     1       5.087   1.460  20.551  0.00  0.00    +0.000 NA
ATOM     32  C   UNL     1       4.289   2.521  20.828  0.00  0.00    +0.000 A 
ENDBRANCH   4  27
TORSDOF 4
ENDMDL
MODEL 6
REMARK VINA RESULT:      -7.0      1.175      1.704
REMARK  Name = 
REMARK  4 active torsions:
REMARK  status: ('A' for Active; 'I' for Inactive)
REMARK    1  A    between atoms: N_2  and  C_4
REMARK    2  A    between atoms: C_7  and  C_8
REMARK    3  A    between atoms: C_11  and  C_12
REMARK    4  A    between atoms: N_18  and  N_19
REMARK                            x       y       z     vdW  Elec       q    Type
REMARK                         _______ _______ _______ _____ _____    ______ ____
ROOT
ATOM      1  C   UNL     1       4.606  16.306  19.301  0.00  0.00    +0.000 A 
ATOM      2  N   UNL     1       4.649  17.526  19.807  0.00  0.00    +0.000 NA
ATOM      3  N   UNL     1       3.385  18.049  19.808  0.00  0.00    +0.000 NA
ATOM      4  C   UNL     1       2.553  17.134  19.354  0.00  0.00    +0.000 A 
ATOM      5  N   UNL     1       3.275  15.989  19.033  0.00  0.00    +0.000 N 
ENDROOT
BRANCH   5   6
ATOM      6  N   UNL     1       2.738  14.900  18.358  0.00  0.00    +0.000 N 
ATOM      7  C   UNL     1       2.119  13.808  18.859  0.00  0.00    +0.000 A 
ATOM      8  N   UNL     1       2.063  12.727  18.120  0.00  0.00    +0.000 NA
ATOM      9  C   UNL     1       1.559  11.663  18.839  0.00  0.00    +0.000 A 
ATOM     10  C   UNL     1       1.421  10.346  18.358  0.00  0.00    +0.000 A 
ATOM     11  C   UNL     1       0.952   9.343  19.209  0.00  0.00    +0.000 A 
ATOM     12  C   UNL     1       0.626   9.646  20.526  0.00  0.00    +0.000 A 
ATOM     13 CL   UNL     1       0.071   8.387  21.563  0.00  0.00    +0.000 Cl
ATOM     14  C   UNL     1       0.733  10.949  21.025  0.00  0.00    +0.000 A 
ATOM     15  C   UNL     1       1.194  11.952  20.153  0.00  0.00    +0.000 A 
ATOM     16  S   UNL     1       1.414  13.646  20.419  0.00  0.00    +0.000 S 
ATOM     17  H   UNL     1       3.165  14.764  17.449  0.00  0.00    +0.000 HD
ENDBRANCH   5   6
BRANCH   1  21
ATOM     18  C   UNL     1       8.165  14.020  18.703  0.00  0.00    +0.000 A 
ATOM     19  C   UNL     1       7.237  14.160  17.667  0.00  0.00    +0.000 A 
ATOM     20  C   UNL     1       6.050  14.865  17.897  0.00  0.00    +0.000 A 
ATOM     21  C   UNL     1       5.777  15.430  19.156  0.00  0.00    +0.000 A 
ATOM     22  C   UNL     1       6.662  15.166  20.208  0.00  0.00    +0.000 A 
ATOM     23  C   UNL     1       7.873  14.506  19.981  0.00  0.00    +0.000 A 
BRANCH  18  25
ATOM     24  O   UNL     1       9.603  12.203  18.801  0.00  0.00    +0.000 OA
ATOM     25  N   UNL     1       9.462  13.383  18.450  0.00  0.00    +0.000 N 
ATOM     26  O   UNL     1      10.335  14.059  17.886  0.00  0.00    +0.000 OA
ENDBRANCH  18  25
ENDBRANCH   1  21
BRANCH   4  27
ATOM     27  C   UNL     1       1.120  17.334  19.128  0.00  0.00    +0.000 A 
ATOM     28  C   UNL     1       0.211  17.204  20.185  0.00  0.00    +0.000 A 
ATOM     29  C   UNL     1      -1.152  17.403  19.965  0.00  0.00    +0.000 A 
ATOM     30  C   UNL     1      -1.571  17.725  18.686  0.00  0.00    +0.000 A 
ATOM     31  N   UNL     1      -0.731  17.856  17.637  0.00  0.00    +0.000 NA
ATOM     32  C   UNL     1       0.586  17.647  17.881  0.00  0.00    +0.000 A 
ENDBRANCH   4  27
TORSDOF 4
ENDMDL
MODEL 7
REMARK VINA RESULT:      -7.0      5.178      8.145
REMARK  Name = 
REMARK  4 active torsions:
REMARK  status: ('A' for Active; 'I' for Inactive)
REMARK    1  A    between atoms: N_2  and  C_4
REMARK    2  A    between atoms: C_7  and  C_8
REMARK    3  A    between atoms: C_11  and  C_12
REMARK    4  A    between atoms: N_18  and  N_19
REMARK                            x       y       z     vdW  Elec       q    Type
REMARK                         _______ _______ _______ _____ _____    ______ ____
ROOT
ATOM      1  C   UNL     1      -1.568  12.019  22.621  0.00  0.00    +0.000 A 
ATOM      2  N   UNL     1      -2.653  11.697  23.303  0.00  0.00    +0.000 NA
ATOM      3  N   UNL     1      -3.058  12.782  24.030  0.00  0.00    +0.000 NA
ATOM      4  C   UNL     1      -2.258  13.792  23.756  0.00  0.00    +0.000 A 
ATOM      5  N   UNL     1      -1.296  13.369  22.844  0.00  0.00    +0.000 N 
ENDROOT
BRANCH   5   6
ATOM      6  N   UNL     1      -0.189  14.125  22.481  0.00  0.00    +0.000 N 
ATOM      7  C   UNL     1      -0.062  15.025  21.481  0.00  0.00    +0.000 A 
ATOM      8  N   UNL     1       1.141  15.311  21.046  0.00  0.00    +0.000 NA
ATOM      9  C   UNL     1       1.082  16.105  19.919  0.00  0.00    +0.000 A 
ATOM     10  C   UNL     1       2.193  16.542  19.171  0.00  0.00    +0.000 A 
ATOM     11  C   UNL     1       1.995  17.295  18.011  0.00  0.00    +0.000 A 
ATOM     12  C   UNL     1       0.704  17.606  17.598  0.00  0.00    +0.000 A 
ATOM     13 CL   UNL     1       0.484  18.516  16.151  0.00  0.00    +0.000 Cl
ATOM     14  C   UNL     1      -0.417  17.202  18.331  0.00  0.00    +0.000 A 
ATOM     15  C   UNL     1      -0.202  16.456  19.504  0.00  0.00    +0.000 A 
ATOM     16  S   UNL     1      -1.334  15.832  20.652  0.00  0.00    +0.000 S 
ATOM     17  H   UNL     1       0.682  13.697  22.777  0.00  0.00    +0.000 HD
ENDBRANCH   5   6
BRANCH   1  21
ATOM     18  C   UNL     1       0.692   9.631  19.895  0.00  0.00    +0.000 A 
ATOM     19  C   UNL     1      -0.319  10.473  19.421  0.00  0.00    +0.000 A 
ATOM     20  C   UNL     1      -1.087  11.206  20.332  0.00  0.00    +0.000 A 
ATOM     21  C   UNL     1      -0.859  11.105  21.717  0.00  0.00    +0.000 A 
ATOM     22  C   UNL     1       0.071  10.161  22.168  0.00  0.00    +0.000 A 
ATOM     23  C   UNL     1       0.878   9.458  21.270  0.00  0.00    +0.000 A 
BRANCH  18  25
ATOM     24  O   UNL     1       1.820   9.501  17.873  0.00  0.00    +0.000 OA
ATOM     25  N   UNL     1       1.580   8.942  18.952  0.00  0.00    +0.000 N 
ATOM     26  O   UNL     1       2.049   7.848  19.298  0.00  0.00    +0.000 OA
ENDBRANCH  18  25
ENDBRANCH   1  21
BRANCH   4  27
ATOM     27  C   UNL     1      -2.312  15.111  24.392  0.00  0.00    +0.000 A 
ATOM     28  C   UNL     1      -1.482  15.408  25.479  0.00  0.00    +0.000 A 
ATOM     29  C   UNL     1      -1.533  16.669  26.075  0.00  0.00    +0.000 A 
ATOM     30  C   UNL     1      -2.421  17.600  25.566  0.00  0.00    +0.000 A 
ATOM     31  N   UNL     1      -3.242  17.355  24.523  0.00  0.00    +0.000 NA
ATOM     32  C   UNL     1      -3.176  16.118  23.971  0.00  0.00    +0.000 A 
ENDBRANCH   4  27
TORSDOF 4
ENDMDL
MODEL 8
REMARK VINA RESULT:      -6.9      4.883      6.515
REMARK  Name = 
REMARK  4 active torsions:
REMARK  status: ('A' for Active; 'I' for Inactive)
REMARK    1  A    between atoms: N_2  and  C_4
REMARK    2  A    between atoms: C_7  and  C_8
REMARK    3  A    between atoms: C_11  and  C_12
REMARK    4  A    between atoms: N_18  and  N_19
REMARK                            x       y       z     vdW  Elec       q    Type
REMARK                         _______ _______ _______ _____ _____    ______ ____
ROOT
ATOM      1  C   UNL     1       1.715  11.569  18.792  0.00  0.00    +0.000 A 
ATOM      2  N   UNL     1       2.495  12.175  17.914  0.00  0.00    +0.000 NA
ATOM      3  N   UNL     1       2.275  13.523  17.982  0.00  0.00    +0.000 NA
ATOM      4  C   UNL     1       1.400  13.756  18.939  0.00  0.00    +0.000 A 
ATOM      5  N   UNL     1       1.021  12.545  19.507  0.00  0.00    +0.000 N 
ENDROOT
BRANCH   5   6
ATOM      6  N   UNL     1      -0.020  12.409  20.416  0.00  0.00    +0.000 N 
ATOM      7  C   UNL     1      -1.343  12.264  20.181  0.00  0.00    +0.000 A 
ATOM      8  N   UNL     1      -2.186  12.567  21.138  0.00  0.00    +0.000 NA
ATOM      9  C   UNL     1      -3.487  12.530  20.681  0.00  0.00    +0.000 A 
ATOM     10  C   UNL     1      -4.627  12.860  21.440  0.00  0.00    +0.000 A 
ATOM     11  C   UNL     1      -5.888  12.839  20.840  0.00  0.00    +0.000 A 
ATOM     12  C   UNL     1      -6.013  12.497  19.498  0.00  0.00    +0.000 A 
ATOM     13 CL   UNL     1      -7.577  12.502  18.774  0.00  0.00    +0.000 Cl
ATOM     14  C   UNL     1      -4.900  12.146  18.725  0.00  0.00    +0.000 A 
ATOM     15  C   UNL     1      -3.638  12.158  19.346  0.00  0.00    +0.000 A 
ATOM     16  S   UNL     1      -2.081  11.755  18.713  0.00  0.00    +0.000 S 
ATOM     17  H   UNL     1       0.207  12.806  21.322  0.00  0.00    +0.000 HD
ENDBRANCH   5   6
BRANCH   1  21
ATOM     18  C   UNL     1       1.988   7.359  19.461  0.00  0.00    +0.000 A 
ATOM     19  C   UNL     1       2.305   7.894  18.210  0.00  0.00    +0.000 A 
ATOM     20  C   UNL     1       2.157   9.268  17.990  0.00  0.00    +0.000 A 
ATOM     21  C   UNL     1       1.690  10.117  19.010  0.00  0.00    +0.000 A 
ATOM     22  C   UNL     1       1.259   9.537  20.209  0.00  0.00    +0.000 A 
ATOM     23  C   UNL     1       1.446   8.175  20.459  0.00  0.00    +0.000 A 
BRANCH  18  25
ATOM     24  O   UNL     1       3.147   5.382  19.109  0.00  0.00    +0.000 OA
ATOM     25  N   UNL     1       2.243   5.943  19.744  0.00  0.00    +0.000 N 
ATOM     26  O   UNL     1       1.548   5.395  20.613  0.00  0.00    +0.000 OA
ENDBRANCH  18  25
ENDBRANCH   1  21
BRANCH   4  27
ATOM     27  C   UNL     1       0.843  15.069  19.273  0.00  0.00    +0.000 A 
ATOM     28  C   UNL     1      -0.298  15.543  18.614  0.00  0.00    +0.000 A 
ATOM     29  C   UNL     1      -0.829  16.791  18.942  0.00  0.00    +0.000 A 
ATOM     30  C   UNL     1      -0.197  17.536  19.922  0.00  0.00    +0.000 A 
ATOM     31  N   UNL     1       0.906  17.121  20.580  0.00  0.00    +0.000 NA
ATOM     32  C   UNL     1       1.403  15.908  20.232  0.00  0.00    +0.000 A 
ENDBRANCH   4  27
TORSDOF 4
ENDMDL
MODEL 9
REMARK VINA RESULT:      -6.8      4.707      7.561
REMARK  Name = 
REMARK  4 active torsions:
REMARK  status: ('A' for Active; 'I' for Inactive)
REMARK    1  A    between atoms: N_2  and  C_4
REMARK    2  A    between atoms: C_7  and  C_8
REMARK    3  A    between atoms: C_11  and  C_12
REMARK    4  A    between atoms: N_18  and  N_19
REMARK                            x       y       z     vdW  Elec       q    Type
REMARK                         _______ _______ _______ _____ _____    ______ ____
ROOT
ATOM      1  C   UNL     1       0.107   9.803  21.469  0.00  0.00    +0.000 A 
ATOM      2  N   UNL     1      -0.289   9.377  22.655  0.00  0.00    +0.000 NA
ATOM      3  N   UNL     1      -1.097  10.326  23.219  0.00  0.00    +0.000 NA
ATOM      4  C   UNL     1      -1.244  11.314  22.360  0.00  0.00    +0.000 A 
ATOM      5  N   UNL     1      -0.513  11.026  21.213  0.00  0.00    +0.000 N 
ENDROOT
BRANCH   5   6
ATOM      6  N   UNL     1      -0.299  11.933  20.183  0.00  0.00    +0.000 N 
ATOM      7  C   UNL     1       0.634  12.906  20.085  0.00  0.00    +0.000 A 
ATOM      8  N   UNL     1       0.417  13.900  19.259  0.00  0.00    +0.000 NA
ATOM      9  C   UNL     1       1.374  14.884  19.408  0.00  0.00    +0.000 A 
ATOM     10  C   UNL     1       1.398  16.109  18.713  0.00  0.00    +0.000 A 
ATOM     11  C   UNL     1       2.391  17.048  18.999  0.00  0.00    +0.000 A 
ATOM     12  C   UNL     1       3.349  16.772  19.969  0.00  0.00    +0.000 A 
ATOM     13 CL   UNL     1       4.550  17.956  20.321  0.00  0.00    +0.000 Cl
ATOM     14  C   UNL     1       3.361  15.555  20.661  0.00  0.00    +0.000 A 
ATOM     15  C   UNL     1       2.363  14.614  20.352  0.00  0.00    +0.000 A 
ATOM     16  S   UNL     1       2.101  13.023  20.976  0.00  0.00    +0.000 S 
ATOM     17  H   UNL     1      -1.136  12.094  19.633  0.00  0.00    +0.000 HD
ENDBRANCH   5   6
BRANCH   1  21
ATOM     18  C   UNL     1       2.373   7.357  18.798  0.00  0.00    +0.000 A 
ATOM     19  C   UNL     1       2.200   6.970  20.130  0.00  0.00    +0.000 A 
ATOM     20  C   UNL     1       1.503   7.810  21.006  0.00  0.00    +0.000 A 
ATOM     21  C   UNL     1       0.978   9.039  20.565  0.00  0.00    +0.000 A 
ATOM     22  C   UNL     1       1.276   9.459  19.264  0.00  0.00    +0.000 A 
ATOM     23  C   UNL     1       1.928   8.610  18.365  0.00  0.00    +0.000 A 
BRANCH  18  25
ATOM     24  O   UNL     1       3.969   6.862  17.190  0.00  0.00    +0.000 OA
ATOM     25  N   UNL     1       3.002   6.442  17.840  0.00  0.00    +0.000 N 
ATOM     26  O   UNL     1       2.537   5.296  17.750  0.00  0.00    +0.000 OA
ENDBRANCH  18  25
ENDBRANCH   1  21
BRANCH   4  27
ATOM     27  C   UNL     1      -1.974  12.557  22.619  0.00  0.00    +0.000 A 
ATOM     28  C   UNL     1      -1.357  13.611  23.305  0.00  0.00    +0.000 A 
ATOM     29  C   UNL     1      -2.056  14.795  23.542  0.00  0.00    +0.000 A 
ATOM     30  C   UNL     1      -3.359  14.892  23.087  0.00  0.00    +0.000 A 
ATOM     31  N   UNL     1      -3.994  13.901  22.426  0.00  0.00    +0.000 NA
ATOM     32  C   UNL     1      -3.292  12.759  22.219  0.00  0.00    +0.000 A 
ENDBRANCH   4  27
TORSDOF 4
ENDMDL
