MODEL 1
REMARK VINA RESULT:      -8.1      0.000      0.000
REMARK  Name = 
REMARK  5 active torsions:
REMARK  status: ('A' for Active; 'I' for Inactive)
REMARK    1  A    between atoms: C_2  and  C_18
REMARK    2  A    between atoms: N_3  and  N_4
REMARK    3  A    between atoms: N_4  and  C_5
REMARK    4  A    between atoms: C_5  and  N_7
REMARK    5  A    between atoms: N_7  and  C_8
REMARK                            x       y       z     vdW  Elec       q    Type
REMARK                         _______ _______ _______ _____ _____    ______ ____
ROOT
ATOM      1  N   UNL     1       1.919   8.341  21.529  0.00  0.00    +0.000 N 
ATOM      2  H   UNL     1       2.832   8.746  21.726  0.00  0.00    +0.000 HD
ENDROOT
BRANCH   1   5
ATOM      3  O   UNL     1       2.574   7.543  18.928  0.00  0.00    +0.000 OA
ATOM      4  C   UNL     1       2.293   6.697  19.762  0.00  0.00    +0.000 C 
ATOM      5  N   UNL     1       1.903   7.008  21.043  0.00  0.00    +0.000 N 
ATOM      6  H   UNL     1       1.647   6.310  21.732  0.00  0.00    +0.000 HD
BRANCH   4   7
ATOM      7  C   UNL     1       2.305   5.165  19.458  0.00  0.00    +0.000 C 
ATOM      8  C   UNL     1       1.840   4.860  18.010  0.00  0.00    +0.000 C 
ATOM      9  C   UNL     1       1.797   3.337  17.759  0.00  0.00    +0.000 C 
ATOM     10  C   UNL     1       3.201   2.744  17.959  0.00  0.00    +0.000 C 
ATOM     11  C   UNL     1       3.692   3.033  19.387  0.00  0.00    +0.000 C 
ATOM     12  C   UNL     1       2.723   2.377  20.388  0.00  0.00    +0.000 C 
ATOM     13  C   UNL     1       1.307   2.947  20.196  0.00  0.00    +0.000 C 
ATOM     14  C   UNL     1       0.833   2.681  18.760  0.00  0.00    +0.000 C 
ATOM     15  C   UNL     1       1.338   4.460  20.441  0.00  0.00    +0.000 C 
ATOM     16  C   UNL     1       3.722   4.558  19.625  0.00  0.00    +0.000 C 
ENDBRANCH   4   7
ENDBRANCH   1   5
BRANCH   1  17
ATOM     17  C   UNL     1       0.756   9.112  21.414  0.00  0.00    +0.000 C 
ATOM     18  S   UNL     1      -0.364   9.177  22.659  0.00  0.00    +0.000 S 
BRANCH  17  19
ATOM     19  N   UNL     1       0.734   9.841  20.229  0.00  0.00    +0.000 N 
ATOM     20  H   UNL     1       0.894   9.278  19.405  0.00  0.00    +0.000 HD
BRANCH  19  21
ATOM     21  C   UNL     1       0.572  11.314  19.983  0.00  0.00    +0.000 C 
ATOM     22  C   UNL     1       1.105  12.218  21.123  0.00  0.00    +0.000 C 
ATOM     23  C   UNL     1       0.836  13.706  20.833  0.00  0.00    +0.000 C 
ATOM     24  C   UNL     1       1.570  14.121  19.550  0.00  0.00    +0.000 C 
ATOM     25  C   UNL     1       1.100  13.247  18.376  0.00  0.00    +0.000 C 
ATOM     26  C   UNL     1      -0.404  13.483  18.166  0.00  0.00    +0.000 C 
ATOM     27  C   UNL     1      -1.168  13.111  19.443  0.00  0.00    +0.000 C 
ATOM     28  C   UNL     1      -0.671  13.934  20.635  0.00  0.00    +0.000 C 
ATOM     29  C   UNL     1      -0.927  11.619  19.740  0.00  0.00    +0.000 C 
ATOM     30  C   UNL     1       1.354  11.753  18.699  0.00  0.00    +0.000 C 
ENDBRANCH  19  21
ENDBRANCH  17  19
ENDBRANCH   1  17
TORSDOF 5
ENDMDL
MODEL 2
REMARK VINA RESULT:      -8.0      0.259      2.073
REMARK  Name = 
REMARK  5 active torsions:
REMARK  status: ('A' for Active; 'I' for Inactive)
REMARK    1  A    between atoms: C_2  and  C_18
REMARK    2  A    between atoms: N_3  and  N_4
REMARK    3  A    between atoms: N_4  and  C_5
REMARK    4  A    between atoms: C_5  and  N_7
REMARK    5  A    between atoms: N_7  and  C_8
REMARK                            x       y       z     vdW  Elec       q    Type
REMARK                         _______ _______ _______ _____ _____    ______ ____
ROOT
ATOM      1  N   UNL     1       1.808   8.487  21.572  0.00  0.00    +0.000 N 
ATOM      2  H   UNL     1       2.711   8.931  21.724  0.00  0.00    +0.000 HD
ENDROOT
BRANCH   1   5
ATOM      3  O   UNL     1       2.457   7.713  18.962  0.00  0.00    +0.000 OA
ATOM      4  C   UNL     1       2.209   6.858  19.797  0.00  0.00    +0.000 C 
ATOM      5  N   UNL     1       1.824   7.155  21.083  0.00  0.00    +0.000 N 
ATOM      6  H   UNL     1       1.595   6.449  21.773  0.00  0.00    +0.000 HD
BRANCH   4   7
ATOM      7  C   UNL     1       2.260   5.327  19.490  0.00  0.00    +0.000 C 
ATOM      8  C   UNL     1       1.298   4.523  20.403  0.00  0.00    +0.000 C 
ATOM      9  C   UNL     1       1.417   3.009  20.124  0.00  0.00    +0.000 C 
ATOM     10  C   UNL     1       1.054   2.727  18.656  0.00  0.00    +0.000 C 
ATOM     11  C   UNL     1       1.990   3.514  17.726  0.00  0.00    +0.000 C 
ATOM     12  C   UNL     1       3.439   3.060  17.979  0.00  0.00    +0.000 C 
ATOM     13  C   UNL     1       3.820   3.321  19.446  0.00  0.00    +0.000 C 
ATOM     14  C   UNL     1       2.865   2.556  20.372  0.00  0.00    +0.000 C 
ATOM     15  C   UNL     1       3.704   4.822  19.735  0.00  0.00    +0.000 C 
ATOM     16  C   UNL     1       1.865   5.024  18.022  0.00  0.00    +0.000 C 
ENDBRANCH   4   7
ENDBRANCH   1   5
BRANCH   1  17
ATOM     17  C   UNL     1       0.609   9.208  21.517  0.00  0.00    +0.000 C 
ATOM     18  S   UNL     1      -0.403   9.304  22.851  0.00  0.00    +0.000 S 
BRANCH  17  19
ATOM     19  N   UNL     1       0.456   9.868  20.302  0.00  0.00    +0.000 N 
ATOM     20  H   UNL     1       0.368   9.243  19.511  0.00  0.00    +0.000 HD
BRANCH  19  21
ATOM     21  C   UNL     1       0.461  11.333  19.969  0.00  0.00    +0.000 C 
ATOM     22  C   UNL     1       1.159  11.684  18.631  0.00  0.00    +0.000 C 
ATOM     23  C   UNL     1       1.190  13.206  18.397  0.00  0.00    +0.000 C 
ATOM     24  C   UNL     1      -0.245  13.743  18.310  0.00  0.00    +0.000 C 
ATOM     25  C   UNL     1      -1.005  13.410  19.605  0.00  0.00    +0.000 C 
ATOM     26  C   UNL     1      -0.300  14.112  20.776  0.00  0.00    +0.000 C 
ATOM     27  C   UNL     1       1.151  13.625  20.872  0.00  0.00    +0.000 C 
ATOM     28  C   UNL     1       1.906  13.899  19.568  0.00  0.00    +0.000 C 
ATOM     29  C   UNL     1       1.140  12.106  21.126  0.00  0.00    +0.000 C 
ATOM     30  C   UNL     1      -1.001  11.878  19.836  0.00  0.00    +0.000 C 
ENDBRANCH  19  21
ENDBRANCH  17  19
ENDBRANCH   1  17
TORSDOF 5
ENDMDL
MODEL 3
REMARK VINA RESULT:      -8.0      0.858      1.959
REMARK  Name = 
REMARK  5 active torsions:
REMARK  status: ('A' for Active; 'I' for Inactive)
REMARK    1  A    between atoms: C_2  and  C_18
REMARK    2  A    between atoms: N_3  and  N_4
REMARK    3  A    between atoms: N_4  and  C_5
REMARK    4  A    between atoms: C_5  and  N_7
REMARK    5  A    between atoms: N_7  and  C_8
REMARK                            x       y       z     vdW  Elec       q    Type
REMARK                         _______ _______ _______ _____ _____    ______ ____
ROOT
ATOM      1  N   UNL     1       1.808   8.478  21.618  0.00  0.00    +0.000 N 
ATOM      2  H   UNL     1       2.686   8.992  21.635  0.00  0.00    +0.000 HD
ENDROOT
BRANCH   1   5
ATOM      3  O   UNL     1       2.389   7.729  18.985  0.00  0.00    +0.000 OA
ATOM      4  C   UNL     1       2.204   6.865  19.827  0.00  0.00    +0.000 C 
ATOM      5  N   UNL     1       1.855   7.148  21.127  0.00  0.00    +0.000 N 
ATOM      6  H   UNL     1       1.679   6.433  21.824  0.00  0.00    +0.000 HD
BRANCH   4   7
ATOM      7  C   UNL     1       2.300   5.337  19.517  0.00  0.00    +0.000 C 
ATOM      8  C   UNL     1       3.740   4.796  19.721  0.00  0.00    +0.000 C 
ATOM      9  C   UNL     1       3.821   3.301  19.344  0.00  0.00    +0.000 C 
ATOM     10  C   UNL     1       2.861   2.494  20.234  0.00  0.00    +0.000 C 
ATOM     11  C   UNL     1       1.424   3.010  20.055  0.00  0.00    +0.000 C 
ATOM     12  C   UNL     1       1.011   2.831  18.583  0.00  0.00    +0.000 C 
ATOM     13  C   UNL     1       1.968   3.620  17.672  0.00  0.00    +0.000 C 
ATOM     14  C   UNL     1       3.405   3.121  17.875  0.00  0.00    +0.000 C 
ATOM     15  C   UNL     1       1.897   5.107  18.039  0.00  0.00    +0.000 C 
ATOM     16  C   UNL     1       1.361   4.507  20.429  0.00  0.00    +0.000 C 
ENDBRANCH   4   7
ENDBRANCH   1   5
BRANCH   1  17
ATOM     17  C   UNL     1       0.561   9.103  21.745  0.00  0.00    +0.000 C 
ATOM     18  S   UNL     1      -0.077   9.458  23.254  0.00  0.00    +0.000 S 
BRANCH  17  19
ATOM     19  N   UNL     1       0.027   9.449  20.508  0.00  0.00    +0.000 N 
ATOM     20  H   UNL     1       0.084   8.708  19.822  0.00  0.00    +0.000 HD
BRANCH  19  21
ATOM     21  C   UNL     1      -0.559  10.741  20.015  0.00  0.00    +0.000 C 
ATOM     22  C   UNL     1      -1.384  11.516  21.073  0.00  0.00    +0.000 C 
ATOM     23  C   UNL     1      -2.013  12.788  20.473  0.00  0.00    +0.000 C 
ATOM     24  C   UNL     1      -0.903  13.731  19.988  0.00  0.00    +0.000 C 
ATOM     25  C   UNL     1      -0.030  13.015  18.945  0.00  0.00    +0.000 C 
ATOM     26  C   UNL     1      -0.912  12.653  17.739  0.00  0.00    +0.000 C 
ATOM     27  C   UNL     1      -2.056  11.736  18.193  0.00  0.00    +0.000 C 
ATOM     28  C   UNL     1      -2.901  12.414  19.274  0.00  0.00    +0.000 C 
ATOM     29  C   UNL     1      -1.446  10.449  18.779  0.00  0.00    +0.000 C 
ATOM     30  C   UNL     1       0.570  11.726  19.559  0.00  0.00    +0.000 C 
ENDBRANCH  19  21
ENDBRANCH  17  19
ENDBRANCH   1  17
TORSDOF 5
ENDMDL
MODEL 4
REMARK VINA RESULT:      -8.0      1.759      8.848
REMARK  Name = 
REMARK  5 active torsions:
REMARK  status: ('A' for Active; 'I' for Inactive)
REMARK    1  A    between atoms: C_2  and  C_18
REMARK    2  A    between atoms: N_3  and  N_4
REMARK    3  A    between atoms: N_4  and  C_5
REMARK    4  A    between atoms: C_5  and  N_7
REMARK    5  A    between atoms: N_7  and  C_8
REMARK                            x       y       z     vdW  Elec       q    Type
REMARK                         _______ _______ _______ _____ _____    ______ ____
ROOT
ATOM      1  N   UNL     1       1.707   8.014  20.605  0.00  0.00    +0.000 N 
ATOM      2  H   UNL     1       1.626   7.436  21.438  0.00  0.00    +0.000 HD
ENDROOT
BRANCH   1   5
ATOM      3  O   UNL     1       1.196   9.723  22.761  0.00  0.00    +0.000 OA
ATOM      4  C   UNL     1       0.758  10.003  21.657  0.00  0.00    +0.000 C 
ATOM      5  N   UNL     1       0.912   9.189  20.560  0.00  0.00    +0.000 N 
ATOM      6  H   UNL     1       0.531   9.407  19.646  0.00  0.00    +0.000 HD
BRANCH   4   7
ATOM      7  C   UNL     1      -0.065  11.300  21.371  0.00  0.00    +0.000 C 
ATOM      8  C   UNL     1      -0.949  11.702  22.581  0.00  0.00    +0.000 C 
ATOM      9  C   UNL     1      -1.800  12.946  22.248  0.00  0.00    +0.000 C 
ATOM     10  C   UNL     1      -0.874  14.124  21.902  0.00  0.00    +0.000 C 
ATOM     11  C   UNL     1       0.018  13.754  20.706  0.00  0.00    +0.000 C 
ATOM     12  C   UNL     1      -0.879  13.450  19.493  0.00  0.00    +0.000 C 
ATOM     13  C   UNL     1      -1.824  12.281  19.821  0.00  0.00    +0.000 C 
ATOM     14  C   UNL     1      -2.693  12.644  21.033  0.00  0.00    +0.000 C 
ATOM     15  C   UNL     1      -0.990  11.040  20.156  0.00  0.00    +0.000 C 
ATOM     16  C   UNL     1       0.857  12.505  21.052  0.00  0.00    +0.000 C 
ENDBRANCH   4   7
ENDBRANCH   1   5
BRANCH   1  17
ATOM     17  C   UNL     1       2.294   7.555  19.419  0.00  0.00    +0.000 C 
ATOM     18  S   UNL     1       2.153   8.426  17.993  0.00  0.00    +0.000 S 
BRANCH  17  19
ATOM     19  N   UNL     1       3.043   6.401  19.624  0.00  0.00    +0.000 N 
ATOM     20  H   UNL     1       4.018   6.582  19.820  0.00  0.00    +0.000 HD
BRANCH  19  21
ATOM     21  C   UNL     1       2.658   4.951  19.546  0.00  0.00    +0.000 C 
ATOM     22  C   UNL     1       2.020   4.529  18.198  0.00  0.00    +0.000 C 
ATOM     23  C   UNL     1       1.585   3.051  18.222  0.00  0.00    +0.000 C 
ATOM     24  C   UNL     1       2.813   2.157  18.438  0.00  0.00    +0.000 C 
ATOM     25  C   UNL     1       3.510   2.537  19.755  0.00  0.00    +0.000 C 
ATOM     26  C   UNL     1       2.528   2.292  20.912  0.00  0.00    +0.000 C 
ATOM     27  C   UNL     1       1.270   3.145  20.711  0.00  0.00    +0.000 C 
ATOM     28  C   UNL     1       0.596   2.818  19.376  0.00  0.00    +0.000 C 
ATOM     29  C   UNL     1       1.683   4.629  20.704  0.00  0.00    +0.000 C 
ATOM     30  C   UNL     1       3.914   4.032  19.721  0.00  0.00    +0.000 C 
ENDBRANCH  19  21
ENDBRANCH  17  19
ENDBRANCH   1  17
TORSDOF 5
ENDMDL
MODEL 5
REMARK VINA RESULT:      -8.0      1.798      8.858
REMARK  Name = 
REMARK  5 active torsions:
REMARK  status: ('A' for Active; 'I' for Inactive)
REMARK    1  A    between atoms: C_2  and  C_18
REMARK    2  A    between atoms: N_3  and  N_4
REMARK    3  A    between atoms: N_4  and  C_5
REMARK    4  A    between atoms: C_5  and  N_7
REMARK    5  A    between atoms: N_7  and  C_8
REMARK                            x       y       z     vdW  Elec       q    Type
REMARK                         _______ _______ _______ _____ _____    ______ ____
ROOT
ATOM      1  N   UNL     1       1.681   8.080  20.656  0.00  0.00    +0.000 N 
ATOM      2  H   UNL     1       1.618   7.509  21.496  0.00  0.00    +0.000 HD
ENDROOT
BRANCH   1   5
ATOM      3  O   UNL     1       1.008   9.671  22.858  0.00  0.00    +0.000 OA
ATOM      4  C   UNL     1       0.645  10.007  21.743  0.00  0.00    +0.000 C 
ATOM      5  N   UNL     1       0.881   9.252  20.618  0.00  0.00    +0.000 N 
ATOM      6  H   UNL     1       0.562   9.516  19.693  0.00  0.00    +0.000 HD
BRANCH   4   7
ATOM      7  C   UNL     1      -0.168  11.312  21.468  0.00  0.00    +0.000 C 
ATOM      8  C   UNL     1       0.760  12.516  21.159  0.00  0.00    +0.000 C 
ATOM      9  C   UNL     1      -0.066  13.805  20.958  0.00  0.00    +0.000 C 
ATOM     10  C   UNL     1      -1.035  13.616  19.779  0.00  0.00    +0.000 C 
ATOM     11  C   UNL     1      -1.968  12.426  20.056  0.00  0.00    +0.000 C 
ATOM     12  C   UNL     1      -2.780  12.717  21.330  0.00  0.00    +0.000 C 
ATOM     13  C   UNL     1      -1.829  12.923  22.521  0.00  0.00    +0.000 C 
ATOM     14  C   UNL     1      -0.881  14.094  22.228  0.00  0.00    +0.000 C 
ATOM     15  C   UNL     1      -1.002  11.649  22.730  0.00  0.00    +0.000 C 
ATOM     16  C   UNL     1      -1.128  11.147  20.262  0.00  0.00    +0.000 C 
ENDBRANCH   4   7
ENDBRANCH   1   5
BRANCH   1  17
ATOM     17  C   UNL     1       2.248   7.615  19.463  0.00  0.00    +0.000 C 
ATOM     18  S   UNL     1       2.089   8.483  18.037  0.00  0.00    +0.000 S 
BRANCH  17  19
ATOM     19  N   UNL     1       2.994   6.458  19.660  0.00  0.00    +0.000 N 
ATOM     20  H   UNL     1       3.961   6.636  19.896  0.00  0.00    +0.000 HD
BRANCH  19  21
ATOM     21  C   UNL     1       2.619   5.010  19.525  0.00  0.00    +0.000 C 
ATOM     22  C   UNL     1       2.004   4.632  18.153  0.00  0.00    +0.000 C 
ATOM     23  C   UNL     1       1.577   3.153  18.117  0.00  0.00    +0.000 C 
ATOM     24  C   UNL     1       2.807   2.257  18.321  0.00  0.00    +0.000 C 
ATOM     25  C   UNL     1       3.480   2.594  19.661  0.00  0.00    +0.000 C 
ATOM     26  C   UNL     1       2.482   2.303  20.793  0.00  0.00    +0.000 C 
ATOM     27  C   UNL     1       1.222   3.157  20.603  0.00  0.00    +0.000 C 
ATOM     28  C   UNL     1       0.571   2.874  19.246  0.00  0.00    +0.000 C 
ATOM     29  C   UNL     1       1.627   4.642  20.655  0.00  0.00    +0.000 C 
ATOM     30  C   UNL     1       3.877   4.092  19.687  0.00  0.00    +0.000 C 
ENDBRANCH  19  21
ENDBRANCH  17  19
ENDBRANCH   1  17
TORSDOF 5
ENDMDL
MODEL 6
REMARK VINA RESULT:      -8.0      0.164      1.464
REMARK  Name = 
REMARK  5 active torsions:
REMARK  status: ('A' for Active; 'I' for Inactive)
REMARK    1  A    between atoms: C_2  and  C_18
REMARK    2  A    between atoms: N_3  and  N_4
REMARK    3  A    between atoms: N_4  and  C_5
REMARK    4  A    between atoms: C_5  and  N_7
REMARK    5  A    between atoms: N_7  and  C_8
REMARK                            x       y       z     vdW  Elec       q    Type
REMARK                         _______ _______ _______ _____ _____    ______ ____
ROOT
ATOM      1  N   UNL     1       1.822   8.409  21.587  0.00  0.00    +0.000 N 
ATOM      2  H   UNL     1       2.725   8.845  21.759  0.00  0.00    +0.000 HD
ENDROOT
BRANCH   1   5
ATOM      3  O   UNL     1       2.473   7.626  18.980  0.00  0.00    +0.000 OA
ATOM      4  C   UNL     1       2.223   6.774  19.817  0.00  0.00    +0.000 C 
ATOM      5  N   UNL     1       1.836   7.076  21.102  0.00  0.00    +0.000 N 
ATOM      6  H   UNL     1       1.607   6.372  21.795  0.00  0.00    +0.000 HD
BRANCH   4   7
ATOM      7  C   UNL     1       2.272   5.242  19.515  0.00  0.00    +0.000 C 
ATOM      8  C   UNL     1       3.699   4.662  19.703  0.00  0.00    +0.000 C 
ATOM      9  C   UNL     1       3.732   3.163  19.334  0.00  0.00    +0.000 C 
ATOM     10  C   UNL     1       2.764   2.389  20.243  0.00  0.00    +0.000 C 
ATOM     11  C   UNL     1       1.339   2.944  20.081  0.00  0.00    +0.000 C 
ATOM     12  C   UNL     1       0.900   2.768  18.616  0.00  0.00    +0.000 C 
ATOM     13  C   UNL     1       1.865   3.524  17.686  0.00  0.00    +0.000 C 
ATOM     14  C   UNL     1       3.290   2.987  17.872  0.00  0.00    +0.000 C 
ATOM     15  C   UNL     1       1.841   5.015  18.045  0.00  0.00    +0.000 C 
ATOM     16  C   UNL     1       1.323   4.444  20.446  0.00  0.00    +0.000 C 
ENDBRANCH   4   7
ENDBRANCH   1   5
BRANCH   1  17
ATOM     17  C   UNL     1       0.631   9.141  21.502  0.00  0.00    +0.000 C 
ATOM     18  S   UNL     1      -0.425   9.226  22.802  0.00  0.00    +0.000 S 
BRANCH  17  19
ATOM     19  N   UNL     1       0.525   9.820  20.292  0.00  0.00    +0.000 N 
ATOM     20  H   UNL     1       0.520   9.210  19.486  0.00  0.00    +0.000 HD
BRANCH  19  21
ATOM     21  C   UNL     1       0.479  11.290  19.989  0.00  0.00    +0.000 C 
ATOM     22  C   UNL     1       1.162  12.187  21.053  0.00  0.00    +0.000 C 
ATOM     23  C   UNL     1       1.008  13.680  20.712  0.00  0.00    +0.000 C 
ATOM     24  C   UNL     1       1.692  13.975  19.369  0.00  0.00    +0.000 C 
ATOM     25  C   UNL     1       1.072  13.100  18.266  0.00  0.00    +0.000 C 
ATOM     26  C   UNL     1      -0.416  13.464  18.137  0.00  0.00    +0.000 C 
ATOM     27  C   UNL     1      -1.126  13.215  19.473  0.00  0.00    +0.000 C 
ATOM     28  C   UNL     1      -0.483  14.036  20.594  0.00  0.00    +0.000 C 
ATOM     29  C   UNL     1      -0.999  11.720  19.822  0.00  0.00    +0.000 C 
ATOM     30  C   UNL     1       1.213  11.604  18.642  0.00  0.00    +0.000 C 
ENDBRANCH  19  21
ENDBRANCH  17  19
ENDBRANCH   1  17
TORSDOF 5
ENDMDL
MODEL 7
REMARK VINA RESULT:      -8.0      1.810      8.813
REMARK  Name = 
REMARK  5 active torsions:
REMARK  status: ('A' for Active; 'I' for Inactive)
REMARK    1  A    between atoms: C_2  and  C_18
REMARK    2  A    between atoms: N_3  and  N_4
REMARK    3  A    between atoms: N_4  and  C_5
REMARK    4  A    between atoms: C_5  and  N_7
REMARK    5  A    between atoms: N_7  and  C_8
REMARK                            x       y       z     vdW  Elec       q    Type
REMARK                         _______ _______ _______ _____ _____    ______ ____
ROOT
ATOM      1  N   UNL     1       1.832   8.026  20.462  0.00  0.00    +0.000 N 
ATOM      2  H   UNL     1       1.855   7.446  21.298  0.00  0.00    +0.000 HD
ENDROOT
BRANCH   1   5
ATOM      3  O   UNL     1       1.297   9.596  22.717  0.00  0.00    +0.000 OA
ATOM      4  C   UNL     1       0.820   9.913  21.638  0.00  0.00    +0.000 C 
ATOM      5  N   UNL     1       0.985   9.164  20.497  0.00  0.00    +0.000 N 
ATOM      6  H   UNL     1       0.572   9.411  19.604  0.00  0.00    +0.000 HD
BRANCH   4   7
ATOM      7  C   UNL     1      -0.066  11.183  21.439  0.00  0.00    +0.000 C 
ATOM      8  C   UNL     1      -1.043  11.024  20.244  0.00  0.00    +0.000 C 
ATOM      9  C   UNL     1      -1.859  12.317  20.029  0.00  0.00    +0.000 C 
ATOM     10  C   UNL     1      -2.676  12.625  21.295  0.00  0.00    +0.000 C 
ATOM     11  C   UNL     1      -1.734  12.786  22.499  0.00  0.00    +0.000 C 
ATOM     12  C   UNL     1      -0.774  13.957  22.226  0.00  0.00    +0.000 C 
ATOM     13  C   UNL     1       0.046  13.676  20.954  0.00  0.00    +0.000 C 
ATOM     14  C   UNL     1      -0.900  13.488  19.761  0.00  0.00    +0.000 C 
ATOM     15  C   UNL     1       0.860  12.392  21.156  0.00  0.00    +0.000 C 
ATOM     16  C   UNL     1      -0.921  11.489  22.696  0.00  0.00    +0.000 C 
ENDBRANCH   4   7
ENDBRANCH   1   5
BRANCH   1  17
ATOM     17  C   UNL     1       2.324   7.593  19.225  0.00  0.00    +0.000 C 
ATOM     18  S   UNL     1       2.109   8.514  17.840  0.00  0.00    +0.000 S 
BRANCH  17  19
ATOM     19  N   UNL     1       3.054   6.415  19.341  0.00  0.00    +0.000 N 
ATOM     20  H   UNL     1       4.054   6.554  19.306  0.00  0.00    +0.000 HD
BRANCH  19  21
ATOM     21  C   UNL     1       2.605   4.985  19.449  0.00  0.00    +0.000 C 
ATOM     22  C   UNL     1       1.516   4.734  20.523  0.00  0.00    +0.000 C 
ATOM     23  C   UNL     1       1.163   3.238  20.626  0.00  0.00    +0.000 C 
ATOM     24  C   UNL     1       0.595   2.751  19.286  0.00  0.00    +0.000 C 
ATOM     25  C   UNL     1       1.621   2.989  18.167  0.00  0.00    +0.000 C 
ATOM     26  C   UNL     1       2.882   2.167  18.481  0.00  0.00    +0.000 C 
ATOM     27  C   UNL     1       3.460   2.604  19.833  0.00  0.00    +0.000 C 
ATOM     28  C   UNL     1       2.428   2.426  20.950  0.00  0.00    +0.000 C 
ATOM     29  C   UNL     1       3.837   4.095  19.744  0.00  0.00    +0.000 C 
ATOM     30  C   UNL     1       1.983   4.494  18.098  0.00  0.00    +0.000 C 
ENDBRANCH  19  21
ENDBRANCH  17  19
ENDBRANCH   1  17
TORSDOF 5
ENDMDL
MODEL 8
REMARK VINA RESULT:      -8.0      0.829      1.918
REMARK  Name = 
REMARK  5 active torsions:
REMARK  status: ('A' for Active; 'I' for Inactive)
REMARK    1  A    between atoms: C_2  and  C_18
REMARK    2  A    between atoms: N_3  and  N_4
REMARK    3  A    between atoms: N_4  and  C_5
REMARK    4  A    between atoms: C_5  and  N_7
REMARK    5  A    between atoms: N_7  and  C_8
REMARK                            x       y       z     vdW  Elec       q    Type
REMARK                         _______ _______ _______ _____ _____    ______ ____
ROOT
ATOM      1  N   UNL     1       1.805   8.463  21.496  0.00  0.00    +0.000 N 
ATOM      2  H   UNL     1       2.673   8.983  21.387  0.00  0.00    +0.000 HD
ENDROOT
BRANCH   1   5
ATOM      3  O   UNL     1       2.550   7.607  18.938  0.00  0.00    +0.000 OA
ATOM      4  C   UNL     1       2.237   6.780  19.780  0.00  0.00    +0.000 C 
ATOM      5  N   UNL     1       1.802   7.120  21.039  0.00  0.00    +0.000 N 
ATOM      6  H   UNL     1       1.520   6.437  21.734  0.00  0.00    +0.000 HD
BRANCH   4   7
ATOM      7  C   UNL     1       2.255   5.242  19.510  0.00  0.00    +0.000 C 
ATOM      8  C   UNL     1       1.289   4.479  20.455  0.00  0.00    +0.000 C 
ATOM      9  C   UNL     1       1.376   2.956  20.212  0.00  0.00    +0.000 C 
ATOM     10  C   UNL     1       0.987   2.646  18.757  0.00  0.00    +0.000 C 
ATOM     11  C   UNL     1       1.926   3.391  17.795  0.00  0.00    +0.000 C 
ATOM     12  C   UNL     1       3.369   2.916  18.040  0.00  0.00    +0.000 C 
ATOM     13  C   UNL     1       3.775   3.205  19.495  0.00  0.00    +0.000 C 
ATOM     14  C   UNL     1       2.818   2.482  20.452  0.00  0.00    +0.000 C 
ATOM     15  C   UNL     1       3.691   4.715  19.749  0.00  0.00    +0.000 C 
ATOM     16  C   UNL     1       1.834   4.910  18.055  0.00  0.00    +0.000 C 
ENDBRANCH   4   7
ENDBRANCH   1   5
BRANCH   1  17
ATOM     17  C   UNL     1       0.578   9.083  21.767  0.00  0.00    +0.000 C 
ATOM     18  S   UNL     1       0.106   9.411  23.342  0.00  0.00    +0.000 S 
BRANCH  17  19
ATOM     19  N   UNL     1      -0.086   9.448  20.601  0.00  0.00    +0.000 N 
ATOM     20  H   UNL     1      -0.205   8.685  19.948  0.00  0.00    +0.000 HD
BRANCH  19  21
ATOM     21  C   UNL     1      -0.595  10.782  20.134  0.00  0.00    +0.000 C 
ATOM     22  C   UNL     1      -1.439  11.549  21.183  0.00  0.00    +0.000 C 
ATOM     23  C   UNL     1      -1.987  12.868  20.607  0.00  0.00    +0.000 C 
ATOM     24  C   UNL     1      -0.818  13.782  20.213  0.00  0.00    +0.000 C 
ATOM     25  C   UNL     1       0.076  13.072  19.184  0.00  0.00    +0.000 C 
ATOM     26  C   UNL     1      -0.760  12.793  17.924  0.00  0.00    +0.000 C 
ATOM     27  C   UNL     1      -1.960  11.909  18.286  0.00  0.00    +0.000 C 
ATOM     28  C   UNL     1      -2.830  12.579  19.354  0.00  0.00    +0.000 C 
ATOM     29  C   UNL     1      -1.431  10.575  18.847  0.00  0.00    +0.000 C 
ATOM     30  C   UNL     1       0.594  11.735  19.772  0.00  0.00    +0.000 C 
ENDBRANCH  19  21
ENDBRANCH  17  19
ENDBRANCH   1  17
TORSDOF 5
ENDMDL
MODEL 9
REMARK VINA RESULT:      -7.9      0.200      1.434
REMARK  Name = 
REMARK  5 active torsions:
REMARK  status: ('A' for Active; 'I' for Inactive)
REMARK    1  A    between atoms: C_2  and  C_18
REMARK    2  A    between atoms: N_3  and  N_4
REMARK    3  A    between atoms: N_4  and  C_5
REMARK    4  A    between atoms: C_5  and  N_7
REMARK    5  A    between atoms: N_7  and  C_8
REMARK                            x       y       z     vdW  Elec       q    Type
REMARK                         _______ _______ _______ _____ _____    ______ ____
ROOT
ATOM      1  N   UNL     1       1.825   8.453  21.410  0.00  0.00    +0.000 N 
ATOM      2  H   UNL     1       2.743   8.887  21.475  0.00  0.00    +0.000 HD
ENDROOT
BRANCH   1   5
ATOM      3  O   UNL     1       2.578   7.495  18.891  0.00  0.00    +0.000 OA
ATOM      4  C   UNL     1       2.227   6.705  19.753  0.00  0.00    +0.000 C 
ATOM      5  N   UNL     1       1.785   7.097  20.995  0.00  0.00    +0.000 N 
ATOM      6  H   UNL     1       1.472   6.446  21.706  0.00  0.00    +0.000 HD
BRANCH   4   7
ATOM      7  C   UNL     1       2.200   5.159  19.531  0.00  0.00    +0.000 C 
ATOM      8  C   UNL     1       1.177   4.460  20.465  0.00  0.00    +0.000 C 
ATOM      9  C   UNL     1       1.218   2.928  20.272  0.00  0.00    +0.000 C 
ATOM     10  C   UNL     1       0.869   2.585  18.814  0.00  0.00    +0.000 C 
ATOM     11  C   UNL     1       1.865   3.267  17.863  0.00  0.00    +0.000 C 
ATOM     12  C   UNL     1       3.282   2.751  18.174  0.00  0.00    +0.000 C 
ATOM     13  C   UNL     1       3.648   3.072  19.633  0.00  0.00    +0.000 C 
ATOM     14  C   UNL     1       2.633   2.413  20.577  0.00  0.00    +0.000 C 
ATOM     15  C   UNL     1       3.608   4.591  19.837  0.00  0.00    +0.000 C 
ATOM     16  C   UNL     1       1.818   4.796  18.073  0.00  0.00    +0.000 C 
ENDBRANCH   4   7
ENDBRANCH   1   5
BRANCH   1  17
ATOM     17  C   UNL     1       0.635   9.193  21.400  0.00  0.00    +0.000 C 
ATOM     18  S   UNL     1      -0.382   9.210  22.732  0.00  0.00    +0.000 S 
BRANCH  17  19
ATOM     19  N   UNL     1       0.499   9.937  20.232  0.00  0.00    +0.000 N 
ATOM     20  H   UNL     1       0.427   9.370  19.398  0.00  0.00    +0.000 HD
BRANCH  19  21
ATOM     21  C   UNL     1       0.499  11.422  20.005  0.00  0.00    +0.000 C 
ATOM     22  C   UNL     1       1.198  12.241  21.120  0.00  0.00    +0.000 C 
ATOM     23  C   UNL     1       1.092  13.754  20.855  0.00  0.00    +0.000 C 
ATOM     24  C   UNL     1       1.797  14.096  19.535  0.00  0.00    +0.000 C 
ATOM     25  C   UNL     1       1.162  13.299  18.383  0.00  0.00    +0.000 C 
ATOM     26  C   UNL     1      -0.313  13.714  18.261  0.00  0.00    +0.000 C 
ATOM     27  C   UNL     1      -1.043  13.418  19.577  0.00  0.00    +0.000 C 
ATOM     28  C   UNL     1      -0.387  14.161  20.744  0.00  0.00    +0.000 C 
ATOM     29  C   UNL     1      -0.964  11.904  19.849  0.00  0.00    +0.000 C 
ATOM     30  C   UNL     1       1.255  11.782  18.682  0.00  0.00    +0.000 C 
ENDBRANCH  19  21
ENDBRANCH  17  19
ENDBRANCH   1  17
TORSDOF 5
ENDMDL
