MODEL 1
REMARK VINA RESULT:      -8.8      0.000      0.000
REMARK  Name = 
REMARK  7 active torsions:
REMARK  status: ('A' for Active; 'I' for Inactive)
REMARK    1  A    between atoms: N_3  and  C_4
REMARK    2  A    between atoms: C_7  and  C_8
REMARK    3  A    between atoms: N_14  and  C_15
REMARK    4  A    between atoms: C_18  and  C_19
REMARK    5  A    between atoms: N_21  and  C_22
REMARK    6  A    between atoms: C_22  and  C_23
REMARK    7  A    between atoms: C_23  and  N_24
REMARK                            x       y       z     vdW  Elec       q    Type
REMARK                         _______ _______ _______ _____ _____    ______ ____
ROOT
ATOM      1  C   UNL     1       7.950   7.201  18.400  0.00  0.00    +0.000 A 
ATOM      2  C   UNL     1       7.914   5.941  19.008  0.00  0.00    +0.000 A 
ATOM      3  C   UNL     1       7.038   4.948  18.564  0.00  0.00    +0.000 A 
ATOM      4  C   UNL     1       6.183   5.200  17.494  0.00  0.00    +0.000 A 
ATOM      5  C   UNL     1       6.251   6.446  16.864  0.00  0.00    +0.000 A 
ATOM      6  F   UNL     1       5.469   6.728  15.807  0.00  0.00    +0.000 F 
ATOM      7  C   UNL     1       7.120   7.443  17.308  0.00  0.00    +0.000 A 
ENDROOT
BRANCH   1  11
ATOM      8  O   UNL     1       7.847   9.943  17.636  0.00  0.00    +0.000 OA
ATOM      9  C   UNL     1       8.704   9.553  18.419  0.00  0.00    +0.000 C 
ATOM     10  N   UNL     1       9.722  10.345  18.929  0.00  0.00    +0.000 N 
ATOM     11  N   UNL     1       8.763   8.252  18.885  0.00  0.00    +0.000 N 
ATOM     12  H   UNL     1      10.487   9.879  19.391  0.00  0.00    +0.000 HD
ATOM     13  H   UNL     1       9.314   8.077  19.709  0.00  0.00    +0.000 HD
BRANCH  10  14
ATOM     14  C   UNL     1       9.895  11.715  18.614  0.00  0.00    +0.000 A 
ATOM     15  C   UNL     1       9.258  12.729  19.333  0.00  0.00    +0.000 A 
ATOM     16  C   UNL     1       9.417  14.069  18.997  0.00  0.00    +0.000 A 
ATOM     17  C   UNL     1      10.244  14.440  17.937  0.00  0.00    +0.000 A 
ATOM     18  C   UNL     1      10.885  13.429  17.202  0.00  0.00    +0.000 A 
ATOM     19  C   UNL     1      10.721  12.076  17.546  0.00  0.00    +0.000 A 
BRANCH  17  20
ATOM     20  C   UNL     1      10.466  15.900  17.637  0.00  0.00    +0.000 C 
ATOM     21  F   UNL     1      11.074  16.119  16.437  0.00  0.00    +0.000 F 
ATOM     22  F   UNL     1       9.296  16.597  17.589  0.00  0.00    +0.000 F 
ATOM     23  F   UNL     1      11.239  16.522  18.566  0.00  0.00    +0.000 F 
ENDBRANCH  17  20
ENDBRANCH  10  14
ENDBRANCH   1  11
BRANCH   4  24
ATOM     24  C   UNL     1       5.235   4.128  17.103  0.00  0.00    +0.000 C 
ATOM     25  O   UNL     1       4.982   3.916  15.929  0.00  0.00    +0.000 OA
ATOM     26  N   UNL     1       4.688   3.384  18.129  0.00  0.00    +0.000 N 
ATOM     27  H   UNL     1       4.978   3.561  19.084  0.00  0.00    +0.000 HD
BRANCH  26  28
ATOM     28  C   UNL     1       3.794   2.283  17.852  0.00  0.00    +0.000 C 
BRANCH  28  29
ATOM     29  C   UNL     1       2.325   2.728  17.871  0.00  0.00    +0.000 C 
BRANCH  29  30
ATOM     30  N   UNL     1       1.518   2.094  18.923  0.00  0.00    +0.000 NA
ATOM     31  C   UNL     1       0.423   2.989  19.369  0.00  0.00    +0.000 C 
ATOM     32  C   UNL     1       0.914   4.193  20.196  0.00  0.00    +0.000 C 
ATOM     33  O   UNL     1       1.681   3.771  21.332  0.00  0.00    +0.000 OA
ATOM     34  C   UNL     1       2.779   2.938  20.940  0.00  0.00    +0.000 C 
ATOM     35  C   UNL     1       2.301   1.726  20.125  0.00  0.00    +0.000 C 
ENDBRANCH  29  30
ENDBRANCH  28  29
ENDBRANCH  26  28
ENDBRANCH   4  24
TORSDOF 7
ENDMDL
MODEL 2
REMARK VINA RESULT:      -8.7      0.695      1.372
REMARK  Name = 
REMARK  7 active torsions:
REMARK  status: ('A' for Active; 'I' for Inactive)
REMARK    1  A    between atoms: N_3  and  C_4
REMARK    2  A    between atoms: C_7  and  C_8
REMARK    3  A    between atoms: N_14  and  C_15
REMARK    4  A    between atoms: C_18  and  C_19
REMARK    5  A    between atoms: N_21  and  C_22
REMARK    6  A    between atoms: C_22  and  C_23
REMARK    7  A    between atoms: C_23  and  N_24
REMARK                            x       y       z     vdW  Elec       q    Type
REMARK                         _______ _______ _______ _____ _____    ______ ____
ROOT
ATOM      1  C   UNL     1       7.860   6.944  18.448  0.00  0.00    +0.000 A 
ATOM      2  C   UNL     1       7.369   5.948  19.302  0.00  0.00    +0.000 A 
ATOM      3  C   UNL     1       6.465   4.985  18.846  0.00  0.00    +0.000 A 
ATOM      4  C   UNL     1       6.040   5.001  17.520  0.00  0.00    +0.000 A 
ATOM      5  C   UNL     1       6.563   5.972  16.661  0.00  0.00    +0.000 A 
ATOM      6  F   UNL     1       6.208   6.010  15.366  0.00  0.00    +0.000 F 
ATOM      7  C   UNL     1       7.461   6.939  17.114  0.00  0.00    +0.000 A 
ENDROOT
BRANCH   1  11
ATOM      8  O   UNL     1       7.787   9.682  17.671  0.00  0.00    +0.000 OA
ATOM      9  C   UNL     1       8.658   9.281  18.432  0.00  0.00    +0.000 C 
ATOM     10  N   UNL     1       9.704  10.056  18.908  0.00  0.00    +0.000 N 
ATOM     11  N   UNL     1       8.705   7.982  18.904  0.00  0.00    +0.000 N 
ATOM     12  H   UNL     1      10.473   9.578  19.352  0.00  0.00    +0.000 HD
ATOM     13  H   UNL     1       9.276   7.801  19.714  0.00  0.00    +0.000 HD
BRANCH  10  14
ATOM     14  C   UNL     1       9.894  11.421  18.581  0.00  0.00    +0.000 A 
ATOM     15  C   UNL     1      10.823  11.834  17.624  0.00  0.00    +0.000 A 
ATOM     16  C   UNL     1      11.017  13.179  17.330  0.00  0.00    +0.000 A 
ATOM     17  C   UNL     1      10.263  14.160  17.974  0.00  0.00    +0.000 A 
ATOM     18  C   UNL     1       9.329  13.757  18.944  0.00  0.00    +0.000 A 
ATOM     19  C   UNL     1       9.138  12.396  19.237  0.00  0.00    +0.000 A 
BRANCH  17  20
ATOM     20  C   UNL     1      10.430  15.607  17.587  0.00  0.00    +0.000 C 
ATOM     21  F   UNL     1       9.261  16.308  17.595  0.00  0.00    +0.000 F 
ATOM     22  F   UNL     1      11.263  16.271  18.437  0.00  0.00    +0.000 F 
ATOM     23  F   UNL     1      10.953  15.767  16.343  0.00  0.00    +0.000 F 
ENDBRANCH  17  20
ENDBRANCH  10  14
ENDBRANCH   1  11
BRANCH   4  24
ATOM     24  C   UNL     1       5.036   3.988  17.108  0.00  0.00    +0.000 C 
ATOM     25  O   UNL     1       4.563   4.000  15.984  0.00  0.00    +0.000 OA
ATOM     26  N   UNL     1       4.698   3.037  18.049  0.00  0.00    +0.000 N 
ATOM     27  H   UNL     1       5.165   3.036  18.949  0.00  0.00    +0.000 HD
BRANCH  26  28
ATOM     28  C   UNL     1       3.769   1.977  17.732  0.00  0.00    +0.000 C 
BRANCH  28  29
ATOM     29  C   UNL     1       2.737   1.775  18.849  0.00  0.00    +0.000 C 
BRANCH  29  30
ATOM     30  N   UNL     1       1.436   2.409  18.587  0.00  0.00    +0.000 NA
ATOM     31  C   UNL     1       1.608   3.798  18.095  0.00  0.00    +0.000 C 
ATOM     32  C   UNL     1       2.090   4.777  19.183  0.00  0.00    +0.000 C 
ATOM     33  O   UNL     1       1.212   4.777  20.316  0.00  0.00    +0.000 OA
ATOM     34  C   UNL     1       1.053   3.456  20.852  0.00  0.00    +0.000 C 
ATOM     35  C   UNL     1       0.560   2.472  19.780  0.00  0.00    +0.000 C 
ENDBRANCH  29  30
ENDBRANCH  28  29
ENDBRANCH  26  28
ENDBRANCH   4  24
TORSDOF 7
ENDMDL
MODEL 3
REMARK VINA RESULT:      -8.5      7.387     10.841
REMARK  Name = 
REMARK  7 active torsions:
REMARK  status: ('A' for Active; 'I' for Inactive)
REMARK    1  A    between atoms: N_3  and  C_4
REMARK    2  A    between atoms: C_7  and  C_8
REMARK    3  A    between atoms: N_14  and  C_15
REMARK    4  A    between atoms: C_18  and  C_19
REMARK    5  A    between atoms: N_21  and  C_22
REMARK    6  A    between atoms: C_22  and  C_23
REMARK    7  A    between atoms: C_23  and  N_24
REMARK                            x       y       z     vdW  Elec       q    Type
REMARK                         _______ _______ _______ _____ _____    ______ ____
ROOT
ATOM      1  C   UNL     1       0.984   8.905  20.795  0.00  0.00    +0.000 A 
ATOM      2  C   UNL     1       0.561   9.798  19.802  0.00  0.00    +0.000 A 
ATOM      3  C   UNL     1      -0.345  10.822  20.089  0.00  0.00    +0.000 A 
ATOM      4  C   UNL     1      -0.841  10.972  21.381  0.00  0.00    +0.000 A 
ATOM      5  C   UNL     1      -0.386  10.103  22.377  0.00  0.00    +0.000 A 
ATOM      6  F   UNL     1      -0.811  10.226  23.646  0.00  0.00    +0.000 F 
ATOM      7  C   UNL     1       0.514   9.075  22.094  0.00  0.00    +0.000 A 
ENDROOT
BRANCH   1  11
ATOM      8  O   UNL     1       2.370   8.385  18.362  0.00  0.00    +0.000 OA
ATOM      9  C   UNL     1       2.420   7.581  19.283  0.00  0.00    +0.000 C 
ATOM     10  N   UNL     1       3.053   6.349  19.218  0.00  0.00    +0.000 N 
ATOM     11  N   UNL     1       1.831   7.807  20.514  0.00  0.00    +0.000 N 
ATOM     12  H   UNL     1       2.856   5.684  19.950  0.00  0.00    +0.000 HD
ATOM     13  H   UNL     1       2.134   7.238  21.287  0.00  0.00    +0.000 HD
BRANCH  10  14
ATOM     14  C   UNL     1       3.735   5.866  18.074  0.00  0.00    +0.000 A 
ATOM     15  C   UNL     1       4.593   6.673  17.325  0.00  0.00    +0.000 A 
ATOM     16  C   UNL     1       5.237   6.194  16.188  0.00  0.00    +0.000 A 
ATOM     17  C   UNL     1       5.058   4.873  15.779  0.00  0.00    +0.000 A 
ATOM     18  C   UNL     1       4.192   4.052  16.521  0.00  0.00    +0.000 A 
ATOM     19  C   UNL     1       3.545   4.542  17.668  0.00  0.00    +0.000 A 
BRANCH  17  20
ATOM     20  C   UNL     1       5.824   4.348  14.591  0.00  0.00    +0.000 C 
ATOM     21  F   UNL     1       6.485   3.183  14.846  0.00  0.00    +0.000 F 
ATOM     22  F   UNL     1       5.009   4.083  13.532  0.00  0.00    +0.000 F 
ATOM     23  F   UNL     1       6.764   5.219  14.138  0.00  0.00    +0.000 F 
ENDBRANCH  17  20
ENDBRANCH  10  14
ENDBRANCH   1  11
BRANCH   4  24
ATOM     24  C   UNL     1      -1.844  12.041  21.613  0.00  0.00    +0.000 C 
ATOM     25  O   UNL     1      -1.833  12.694  22.643  0.00  0.00    +0.000 OA
ATOM     26  N   UNL     1      -2.755  12.262  20.600  0.00  0.00    +0.000 N 
ATOM     27  H   UNL     1      -2.683  11.732  19.739  0.00  0.00    +0.000 HD
BRANCH  26  28
ATOM     28  C   UNL     1      -3.740  13.313  20.704  0.00  0.00    +0.000 C 
BRANCH  28  29
ATOM     29  C   UNL     1      -5.131  12.755  21.036  0.00  0.00    +0.000 C 
BRANCH  29  30
ATOM     30  N   UNL     1      -6.143  13.010  20.001  0.00  0.00    +0.000 NA
ATOM     31  C   UNL     1      -7.412  12.306  20.310  0.00  0.00    +0.000 C 
ATOM     32  C   UNL     1      -7.325  10.779  20.129  0.00  0.00    +0.000 C 
ATOM     33  O   UNL     1      -6.894  10.430  18.807  0.00  0.00    +0.000 OA
ATOM     34  C   UNL     1      -5.645  11.055  18.484  0.00  0.00    +0.000 C 
ATOM     35  C   UNL     1      -5.722  12.581  18.647  0.00  0.00    +0.000 C 
ENDBRANCH  29  30
ENDBRANCH  28  29
ENDBRANCH  26  28
ENDBRANCH   4  24
TORSDOF 7
ENDMDL
MODEL 4
REMARK VINA RESULT:      -8.5      7.899     11.251
REMARK  Name = 
REMARK  7 active torsions:
REMARK  status: ('A' for Active; 'I' for Inactive)
REMARK    1  A    between atoms: N_3  and  C_4
REMARK    2  A    between atoms: C_7  and  C_8
REMARK    3  A    between atoms: N_14  and  C_15
REMARK    4  A    between atoms: C_18  and  C_19
REMARK    5  A    between atoms: N_21  and  C_22
REMARK    6  A    between atoms: C_22  and  C_23
REMARK    7  A    between atoms: C_23  and  N_24
REMARK                            x       y       z     vdW  Elec       q    Type
REMARK                         _______ _______ _______ _____ _____    ______ ____
ROOT
ATOM      1  C   UNL     1       0.893   8.673  21.243  0.00  0.00    +0.000 A 
ATOM      2  C   UNL     1       0.701   9.113  22.559  0.00  0.00    +0.000 A 
ATOM      3  C   UNL     1      -0.108  10.216  22.841  0.00  0.00    +0.000 A 
ATOM      4  C   UNL     1      -0.744  10.898  21.807  0.00  0.00    +0.000 A 
ATOM      5  C   UNL     1      -0.581  10.431  20.499  0.00  0.00    +0.000 A 
ATOM      6  F   UNL     1      -1.199  11.035  19.470  0.00  0.00    +0.000 F 
ATOM      7  C   UNL     1       0.231   9.334  20.212  0.00  0.00    +0.000 A 
ENDROOT
BRANCH   1  11
ATOM      8  O   UNL     1       2.210   8.234  18.757  0.00  0.00    +0.000 OA
ATOM      9  C   UNL     1       2.328   7.425  19.667  0.00  0.00    +0.000 C 
ATOM     10  N   UNL     1       3.011   6.222  19.567  0.00  0.00    +0.000 N 
ATOM     11  N   UNL     1       1.775   7.616  20.921  0.00  0.00    +0.000 N 
ATOM     12  H   UNL     1       2.869   5.543  20.299  0.00  0.00    +0.000 HD
ATOM     13  H   UNL     1       2.130   7.053  21.677  0.00  0.00    +0.000 HD
BRANCH  10  14
ATOM     14  C   UNL     1       3.670   5.779  18.394  0.00  0.00    +0.000 A 
ATOM     15  C   UNL     1       3.636   4.446  17.980  0.00  0.00    +0.000 A 
ATOM     16  C   UNL     1       4.309   4.020  16.840  0.00  0.00    +0.000 A 
ATOM     17  C   UNL     1       5.023   4.929  16.060  0.00  0.00    +0.000 A 
ATOM     18  C   UNL     1       5.070   6.272  16.469  0.00  0.00    +0.000 A 
ATOM     19  C   UNL     1       4.388   6.697  17.622  0.00  0.00    +0.000 A 
BRANCH  17  20
ATOM     20  C   UNL     1       5.681   4.465  14.785  0.00  0.00    +0.000 C 
ATOM     21  F   UNL     1       6.576   5.362  14.281  0.00  0.00    +0.000 F 
ATOM     22  F   UNL     1       6.380   3.309  14.960  0.00  0.00    +0.000 F 
ATOM     23  F   UNL     1       4.792   4.223  13.786  0.00  0.00    +0.000 F 
ENDBRANCH  17  20
ENDBRANCH  10  14
ENDBRANCH   1  11
BRANCH   4  24
ATOM     24  C   UNL     1      -1.544  12.096  22.162  0.00  0.00    +0.000 C 
ATOM     25  O   UNL     1      -1.470  13.116  21.497  0.00  0.00    +0.000 OA
ATOM     26  N   UNL     1      -2.378  11.978  23.255  0.00  0.00    +0.000 N 
ATOM     27  H   UNL     1      -2.447  11.090  23.738  0.00  0.00    +0.000 HD
BRANCH  26  28
ATOM     28  C   UNL     1      -3.237  13.069  23.654  0.00  0.00    +0.000 C 
BRANCH  28  29
ATOM     29  C   UNL     1      -4.646  12.578  24.015  0.00  0.00    +0.000 C 
BRANCH  29  30
ATOM     30  N   UNL     1      -5.639  12.758  22.945  0.00  0.00    +0.000 NA
ATOM     31  C   UNL     1      -5.623  14.150  22.432  0.00  0.00    +0.000 C 
ATOM     32  C   UNL     1      -6.211  15.174  23.421  0.00  0.00    +0.000 C 
ATOM     33  O   UNL     1      -7.545  14.823  23.811  0.00  0.00    +0.000 OA
ATOM     34  C   UNL     1      -7.597  13.498  24.355  0.00  0.00    +0.000 C 
ATOM     35  C   UNL     1      -7.026  12.464  23.373  0.00  0.00    +0.000 C 
ENDBRANCH  29  30
ENDBRANCH  28  29
ENDBRANCH  26  28
ENDBRANCH   4  24
TORSDOF 7
ENDMDL
MODEL 5
REMARK VINA RESULT:      -8.4      7.361     10.818
REMARK  Name = 
REMARK  7 active torsions:
REMARK  status: ('A' for Active; 'I' for Inactive)
REMARK    1  A    between atoms: N_3  and  C_4
REMARK    2  A    between atoms: C_7  and  C_8
REMARK    3  A    between atoms: N_14  and  C_15
REMARK    4  A    between atoms: C_18  and  C_19
REMARK    5  A    between atoms: N_21  and  C_22
REMARK    6  A    between atoms: C_22  and  C_23
REMARK    7  A    between atoms: C_23  and  N_24
REMARK                            x       y       z     vdW  Elec       q    Type
REMARK                         _______ _______ _______ _____ _____    ______ ____
ROOT
ATOM      1  C   UNL     1       1.050   8.862  20.796  0.00  0.00    +0.000 A 
ATOM      2  C   UNL     1       0.610   9.744  19.802  0.00  0.00    +0.000 A 
ATOM      3  C   UNL     1      -0.301  10.763  20.091  0.00  0.00    +0.000 A 
ATOM      4  C   UNL     1      -0.786  10.918  21.387  0.00  0.00    +0.000 A 
ATOM      5  C   UNL     1      -0.313  10.060  22.385  0.00  0.00    +0.000 A 
ATOM      6  F   UNL     1      -0.725  10.189  23.657  0.00  0.00    +0.000 F 
ATOM      7  C   UNL     1       0.592   9.038  22.099  0.00  0.00    +0.000 A 
ENDROOT
BRANCH   1  11
ATOM      8  O   UNL     1       2.395   8.322  18.345  0.00  0.00    +0.000 OA
ATOM      9  C   UNL     1       2.471   7.531  19.276  0.00  0.00    +0.000 C 
ATOM     10  N   UNL     1       3.115   6.305  19.215  0.00  0.00    +0.000 N 
ATOM     11  N   UNL     1       1.902   7.769  20.514  0.00  0.00    +0.000 N 
ATOM     12  H   UNL     1       2.938   5.648  19.959  0.00  0.00    +0.000 HD
ATOM     13  H   UNL     1       2.226   7.213  21.289  0.00  0.00    +0.000 HD
BRANCH  10  14
ATOM     14  C   UNL     1       3.780   5.813  18.065  0.00  0.00    +0.000 A 
ATOM     15  C   UNL     1       3.773   4.460  17.724  0.00  0.00    +0.000 A 
ATOM     16  C   UNL     1       4.451   3.987  16.605  0.00  0.00    +0.000 A 
ATOM     17  C   UNL     1       5.143   4.868  15.773  0.00  0.00    +0.000 A 
ATOM     18  C   UNL     1       5.163   6.232  16.110  0.00  0.00    +0.000 A 
ATOM     19  C   UNL     1       4.475   6.703  17.241  0.00  0.00    +0.000 A 
BRANCH  17  20
ATOM     20  C   UNL     1       5.807   4.350  14.523  0.00  0.00    +0.000 C 
ATOM     21  F   UNL     1       4.949   4.215  13.472  0.00  0.00    +0.000 F 
ATOM     22  F   UNL     1       6.795   5.180  14.086  0.00  0.00    +0.000 F 
ATOM     23  F   UNL     1       6.383   3.131  14.694  0.00  0.00    +0.000 F 
ENDBRANCH  17  20
ENDBRANCH  10  14
ENDBRANCH   1  11
BRANCH   4  24
ATOM     24  C   UNL     1      -1.794  11.981  21.622  0.00  0.00    +0.000 C 
ATOM     25  O   UNL     1      -1.822  12.593  22.676  0.00  0.00    +0.000 OA
ATOM     26  N   UNL     1      -2.665  12.245  20.584  0.00  0.00    +0.000 N 
ATOM     27  H   UNL     1      -2.561  11.748  19.706  0.00  0.00    +0.000 HD
BRANCH  26  28
ATOM     28  C   UNL     1      -3.651  13.295  20.692  0.00  0.00    +0.000 C 
BRANCH  28  29
ATOM     29  C   UNL     1      -5.031  12.740  21.070  0.00  0.00    +0.000 C 
BRANCH  29  30
ATOM     30  N   UNL     1      -6.084  13.022  20.084  0.00  0.00    +0.000 NA
ATOM     31  C   UNL     1      -7.352  12.343  20.447  0.00  0.00    +0.000 C 
ATOM     32  C   UNL     1      -7.305  10.816  20.253  0.00  0.00    +0.000 C 
ATOM     33  O   UNL     1      -6.943  10.467  18.911  0.00  0.00    +0.000 OA
ATOM     34  C   UNL     1      -5.697  11.068  18.534  0.00  0.00    +0.000 C 
ATOM     35  C   UNL     1      -5.734  12.594  18.710  0.00  0.00    +0.000 C 
ENDBRANCH  29  30
ENDBRANCH  28  29
ENDBRANCH  26  28
ENDBRANCH   4  24
TORSDOF 7
ENDMDL
MODEL 6
REMARK VINA RESULT:      -8.3      7.984     11.388
REMARK  Name = 
REMARK  7 active torsions:
REMARK  status: ('A' for Active; 'I' for Inactive)
REMARK    1  A    between atoms: N_3  and  C_4
REMARK    2  A    between atoms: C_7  and  C_8
REMARK    3  A    between atoms: N_14  and  C_15
REMARK    4  A    between atoms: C_18  and  C_19
REMARK    5  A    between atoms: N_21  and  C_22
REMARK    6  A    between atoms: C_22  and  C_23
REMARK    7  A    between atoms: C_23  and  N_24
REMARK                            x       y       z     vdW  Elec       q    Type
REMARK                         _______ _______ _______ _____ _____    ______ ____
ROOT
ATOM      1  C   UNL     1       0.699   8.853  21.444  0.00  0.00    +0.000 A 
ATOM      2  C   UNL     1       0.266   9.157  22.740  0.00  0.00    +0.000 A 
ATOM      3  C   UNL     1      -0.546  10.265  22.991  0.00  0.00    +0.000 A 
ATOM      4  C   UNL     1      -0.944  11.089  21.941  0.00  0.00    +0.000 A 
ATOM      5  C   UNL     1      -0.543  10.759  20.643  0.00  0.00    +0.000 A 
ATOM      6  F   UNL     1      -0.927  11.504  19.593  0.00  0.00    +0.000 F 
ATOM      7  C   UNL     1       0.273   9.657  20.389  0.00  0.00    +0.000 A 
ENDROOT
BRANCH   1  11
ATOM      8  O   UNL     1       2.045   8.323  18.991  0.00  0.00    +0.000 OA
ATOM      9  C   UNL     1       2.160   7.553  19.935  0.00  0.00    +0.000 C 
ATOM     10  N   UNL     1       2.853   6.352  19.891  0.00  0.00    +0.000 N 
ATOM     11  N   UNL     1       1.592   7.790  21.174  0.00  0.00    +0.000 N 
ATOM     12  H   UNL     1       2.708   5.703  20.649  0.00  0.00    +0.000 HD
ATOM     13  H   UNL     1       1.944   7.262  21.956  0.00  0.00    +0.000 HD
BRANCH  10  14
ATOM     14  C   UNL     1       3.528   5.867  18.744  0.00  0.00    +0.000 A 
ATOM     15  C   UNL     1       4.660   6.498  18.226  0.00  0.00    +0.000 A 
ATOM     16  C   UNL     1       5.299   6.025  17.084  0.00  0.00    +0.000 A 
ATOM     17  C   UNL     1       4.832   4.882  16.435  0.00  0.00    +0.000 A 
ATOM     18  C   UNL     1       3.689   4.242  16.943  0.00  0.00    +0.000 A 
ATOM     19  C   UNL     1       3.049   4.725  18.097  0.00  0.00    +0.000 A 
BRANCH  17  20
ATOM     20  C   UNL     1       5.582   4.339  15.245  0.00  0.00    +0.000 C 
ATOM     21  F   UNL     1       6.578   5.163  14.813  0.00  0.00    +0.000 F 
ATOM     22  F   UNL     1       6.183   3.148  15.518  0.00  0.00    +0.000 F 
ATOM     23  F   UNL     1       4.782   4.122  14.168  0.00  0.00    +0.000 F 
ENDBRANCH  17  20
ENDBRANCH  10  14
ENDBRANCH   1  11
BRANCH   4  24
ATOM     24  C   UNL     1      -1.759  12.283  22.275  0.00  0.00    +0.000 C 
ATOM     25  O   UNL     1      -1.527  12.938  23.278  0.00  0.00    +0.000 OA
ATOM     26  N   UNL     1      -2.761  12.615  21.385  0.00  0.00    +0.000 N 
ATOM     27  H   UNL     1      -2.874  12.073  20.536  0.00  0.00    +0.000 HD
BRANCH  26  28
ATOM     28  C   UNL     1      -3.578  13.788  21.590  0.00  0.00    +0.000 C 
BRANCH  28  29
ATOM     29  C   UNL     1      -4.946  13.428  22.185  0.00  0.00    +0.000 C 
BRANCH  29  30
ATOM     30  N   UNL     1      -5.104  13.801  23.599  0.00  0.00    +0.000 NA
ATOM     31  C   UNL     1      -5.566  12.647  24.408  0.00  0.00    +0.000 C 
ATOM     32  C   UNL     1      -7.033  12.261  24.141  0.00  0.00    +0.000 C 
ATOM     33  O   UNL     1      -7.915  13.372  24.346  0.00  0.00    +0.000 OA
ATOM     34  C   UNL     1      -7.529  14.498  23.547  0.00  0.00    +0.000 C 
ATOM     35  C   UNL     1      -6.071  14.903  23.813  0.00  0.00    +0.000 C 
ENDBRANCH  29  30
ENDBRANCH  28  29
ENDBRANCH  26  28
ENDBRANCH   4  24
TORSDOF 7
ENDMDL
MODEL 7
REMARK VINA RESULT:      -8.2      7.635      9.310
REMARK  Name = 
REMARK  7 active torsions:
REMARK  status: ('A' for Active; 'I' for Inactive)
REMARK    1  A    between atoms: N_3  and  C_4
REMARK    2  A    between atoms: C_7  and  C_8
REMARK    3  A    between atoms: N_14  and  C_15
REMARK    4  A    between atoms: C_18  and  C_19
REMARK    5  A    between atoms: N_21  and  C_22
REMARK    6  A    between atoms: C_22  and  C_23
REMARK    7  A    between atoms: C_23  and  N_24
REMARK                            x       y       z     vdW  Elec       q    Type
REMARK                         _______ _______ _______ _____ _____    ______ ____
ROOT
ATOM      1  C   UNL     1       0.988   9.200  19.744  0.00  0.00    +0.000 A 
ATOM      2  C   UNL     1       1.099   8.194  20.711  0.00  0.00    +0.000 A 
ATOM      3  C   UNL     1       1.868   7.051  20.482  0.00  0.00    +0.000 A 
ATOM      4  C   UNL     1       2.546   6.899  19.275  0.00  0.00    +0.000 A 
ATOM      5  C   UNL     1       2.465   7.923  18.328  0.00  0.00    +0.000 A 
ATOM      6  F   UNL     1       3.126   7.838  17.161  0.00  0.00    +0.000 F 
ATOM      7  C   UNL     1       1.692   9.064  18.551  0.00  0.00    +0.000 A 
ENDROOT
BRANCH   1  11
ATOM      8  O   UNL     1       0.890  10.945  21.992  0.00  0.00    +0.000 OA
ATOM      9  C   UNL     1       0.103  11.091  21.065  0.00  0.00    +0.000 C 
ATOM     10  N   UNL     1      -0.927  12.019  21.045  0.00  0.00    +0.000 N 
ATOM     11  N   UNL     1       0.146  10.324  19.914  0.00  0.00    +0.000 N 
ATOM     12  H   UNL     1      -1.636  11.912  20.337  0.00  0.00    +0.000 HD
ATOM     13  H   UNL     1      -0.346  10.670  19.106  0.00  0.00    +0.000 HD
BRANCH  10  14
ATOM     14  C   UNL     1      -1.196  12.929  22.097  0.00  0.00    +0.000 A 
ATOM     15  C   UNL     1      -2.233  12.726  23.008  0.00  0.00    +0.000 A 
ATOM     16  C   UNL     1      -2.502  13.641  24.021  0.00  0.00    +0.000 A 
ATOM     17  C   UNL     1      -1.717  14.784  24.168  0.00  0.00    +0.000 A 
ATOM     18  C   UNL     1      -0.673  15.002  23.254  0.00  0.00    +0.000 A 
ATOM     19  C   UNL     1      -0.406  14.074  22.232  0.00  0.00    +0.000 A 
BRANCH  17  20
ATOM     20  C   UNL     1      -1.973  15.724  25.318  0.00  0.00    +0.000 C 
ATOM     21  F   UNL     1      -1.409  16.954  25.147  0.00  0.00    +0.000 F 
ATOM     22  F   UNL     1      -3.302  15.952  25.508  0.00  0.00    +0.000 F 
ATOM     23  F   UNL     1      -1.496  15.257  26.502  0.00  0.00    +0.000 F 
ENDBRANCH  17  20
ENDBRANCH  10  14
ENDBRANCH   1  11
BRANCH   4  24
ATOM     24  C   UNL     1       3.301   5.639  19.065  0.00  0.00    +0.000 C 
ATOM     25  O   UNL     1       4.203   5.318  19.821  0.00  0.00    +0.000 OA
ATOM     26  N   UNL     1       2.910   4.856  17.997  0.00  0.00    +0.000 N 
ATOM     27  H   UNL     1       2.115   5.139  17.435  0.00  0.00    +0.000 HD
BRANCH  26  28
ATOM     28  C   UNL     1       3.546   3.586  17.736  0.00  0.00    +0.000 C 
BRANCH  28  29
ATOM     29  C   UNL     1       4.799   3.748  16.863  0.00  0.00    +0.000 C 
BRANCH  29  30
ATOM     30  N   UNL     1       4.861   5.023  16.133  0.00  0.00    +0.000 NA
ATOM     31  C   UNL     1       5.277   4.813  14.725  0.00  0.00    +0.000 C 
ATOM     32  C   UNL     1       6.761   4.427  14.576  0.00  0.00    +0.000 C 
ATOM     33  O   UNL     1       7.620   5.398  15.188  0.00  0.00    +0.000 OA
ATOM     34  C   UNL     1       7.281   5.599  16.566  0.00  0.00    +0.000 C 
ATOM     35  C   UNL     1       5.805   5.997  16.728  0.00  0.00    +0.000 C 
ENDBRANCH  29  30
ENDBRANCH  28  29
ENDBRANCH  26  28
ENDBRANCH   4  24
TORSDOF 7
ENDMDL
MODEL 8
REMARK VINA RESULT:      -8.2      7.364     10.812
REMARK  Name = 
REMARK  7 active torsions:
REMARK  status: ('A' for Active; 'I' for Inactive)
REMARK    1  A    between atoms: N_3  and  C_4
REMARK    2  A    between atoms: C_7  and  C_8
REMARK    3  A    between atoms: N_14  and  C_15
REMARK    4  A    between atoms: C_18  and  C_19
REMARK    5  A    between atoms: N_21  and  C_22
REMARK    6  A    between atoms: C_22  and  C_23
REMARK    7  A    between atoms: C_23  and  N_24
REMARK                            x       y       z     vdW  Elec       q    Type
REMARK                         _______ _______ _______ _____ _____    ______ ____
ROOT
ATOM      1  C   UNL     1       1.071   8.686  20.875  0.00  0.00    +0.000 A 
ATOM      2  C   UNL     1       0.299   8.682  22.044  0.00  0.00    +0.000 A 
ATOM      3  C   UNL     1      -0.538   9.753  22.362  0.00  0.00    +0.000 A 
ATOM      4  C   UNL     1      -0.621  10.851  21.509  0.00  0.00    +0.000 A 
ATOM      5  C   UNL     1       0.120  10.834  20.324  0.00  0.00    +0.000 A 
ATOM      6  F   UNL     1       0.050  11.854  19.452  0.00  0.00    +0.000 F 
ATOM      7  C   UNL     1       0.963   9.768  20.005  0.00  0.00    +0.000 A 
ENDROOT
BRANCH   1  11
ATOM      8  O   UNL     1       2.299   8.168  18.359  0.00  0.00    +0.000 OA
ATOM      9  C   UNL     1       2.499   7.421  19.308  0.00  0.00    +0.000 C 
ATOM     10  N   UNL     1       3.239   6.249  19.244  0.00  0.00    +0.000 N 
ATOM     11  N   UNL     1       1.992   7.657  20.573  0.00  0.00    +0.000 N 
ATOM     12  H   UNL     1       3.165   5.609  20.019  0.00  0.00    +0.000 HD
ATOM     13  H   UNL     1       2.409   7.159  21.342  0.00  0.00    +0.000 HD
BRANCH  10  14
ATOM     14  C   UNL     1       3.870   5.772  18.069  0.00  0.00    +0.000 A 
ATOM     15  C   UNL     1       3.817   4.429  17.691  0.00  0.00    +0.000 A 
ATOM     16  C   UNL     1       4.462   3.969  16.547  0.00  0.00    +0.000 A 
ATOM     17  C   UNL     1       5.165   4.852  15.728  0.00  0.00    +0.000 A 
ATOM     18  C   UNL     1       5.230   6.205  16.101  0.00  0.00    +0.000 A 
ATOM     19  C   UNL     1       4.576   6.664  17.258  0.00  0.00    +0.000 A 
BRANCH  17  20
ATOM     20  C   UNL     1       5.791   4.351  14.452  0.00  0.00    +0.000 C 
ATOM     21  F   UNL     1       6.439   3.160  14.599  0.00  0.00    +0.000 F 
ATOM     22  F   UNL     1       4.866   4.147  13.472  0.00  0.00    +0.000 F 
ATOM     23  F   UNL     1       6.706   5.212  13.935  0.00  0.00    +0.000 F 
ENDBRANCH  17  20
ENDBRANCH  10  14
ENDBRANCH   1  11
BRANCH   4  24
ATOM     24  C   UNL     1      -1.483  11.983  21.928  0.00  0.00    +0.000 C 
ATOM     25  O   UNL     1      -1.222  12.631  22.927  0.00  0.00    +0.000 OA
ATOM     26  N   UNL     1      -2.564  12.268  21.117  0.00  0.00    +0.000 N 
ATOM     27  H   UNL     1      -2.702  11.737  20.265  0.00  0.00    +0.000 HD
BRANCH  26  28
ATOM     28  C   UNL     1      -3.436  13.382  21.407  0.00  0.00    +0.000 C 
BRANCH  28  29
ATOM     29  C   UNL     1      -4.851  12.914  21.772  0.00  0.00    +0.000 C 
BRANCH  29  30
ATOM     30  N   UNL     1      -5.903  13.427  20.882  0.00  0.00    +0.000 NA
ATOM     31  C   UNL     1      -7.239  12.926  21.288  0.00  0.00    +0.000 C 
ATOM     32  C   UNL     1      -7.446  11.428  20.995  0.00  0.00    +0.000 C 
ATOM     33  O   UNL     1      -7.223  11.129  19.610  0.00  0.00    +0.000 OA
ATOM     34  C   UNL     1      -5.923  11.557  19.187  0.00  0.00    +0.000 C 
ATOM     35  C   UNL     1      -5.707  13.054  19.462  0.00  0.00    +0.000 C 
ENDBRANCH  29  30
ENDBRANCH  28  29
ENDBRANCH  26  28
ENDBRANCH   4  24
TORSDOF 7
ENDMDL
MODEL 9
REMARK VINA RESULT:      -8.1      8.039     11.369
REMARK  Name = 
REMARK  7 active torsions:
REMARK  status: ('A' for Active; 'I' for Inactive)
REMARK    1  A    between atoms: N_3  and  C_4
REMARK    2  A    between atoms: C_7  and  C_8
REMARK    3  A    between atoms: N_14  and  C_15
REMARK    4  A    between atoms: C_18  and  C_19
REMARK    5  A    between atoms: N_21  and  C_22
REMARK    6  A    between atoms: C_22  and  C_23
REMARK    7  A    between atoms: C_23  and  N_24
REMARK                            x       y       z     vdW  Elec       q    Type
REMARK                         _______ _______ _______ _____ _____    ______ ____
ROOT
ATOM      1  C   UNL     1       0.820   9.153  21.049  0.00  0.00    +0.000 A 
ATOM      2  C   UNL     1       0.612  10.134  20.072  0.00  0.00    +0.000 A 
ATOM      3  C   UNL     1      -0.277  11.189  20.284  0.00  0.00    +0.000 A 
ATOM      4  C   UNL     1      -0.974  11.283  21.486  0.00  0.00    +0.000 A 
ATOM      5  C   UNL     1      -0.734  10.325  22.475  0.00  0.00    +0.000 A 
ATOM      6  F   UNL     1      -1.357  10.389  23.664  0.00  0.00    +0.000 F 
ATOM      7  C   UNL     1       0.149   9.265  22.265  0.00  0.00    +0.000 A 
ENDROOT
BRANCH   1  11
ATOM      8  O   UNL     1       2.231   8.503  18.663  0.00  0.00    +0.000 OA
ATOM      9  C   UNL     1       2.249   7.737  19.617  0.00  0.00    +0.000 C 
ATOM     10  N   UNL     1       2.856   6.490  19.613  0.00  0.00    +0.000 N 
ATOM     11  N   UNL     1       1.646   8.027  20.827  0.00  0.00    +0.000 N 
ATOM     12  H   UNL     1       2.632   5.860  20.368  0.00  0.00    +0.000 HD
ATOM     13  H   UNL     1       1.924   7.483  21.628  0.00  0.00    +0.000 HD
BRANCH  10  14
ATOM     14  C   UNL     1       3.545   5.946  18.501  0.00  0.00    +0.000 A 
ATOM     15  C   UNL     1       3.335   4.637  18.064  0.00  0.00    +0.000 A 
ATOM     16  C   UNL     1       4.036   4.108  16.985  0.00  0.00    +0.000 A 
ATOM     17  C   UNL     1       4.960   4.889  16.291  0.00  0.00    +0.000 A 
ATOM     18  C   UNL     1       5.185   6.206  16.725  0.00  0.00    +0.000 A 
ATOM     19  C   UNL     1       4.473   6.735  17.815  0.00  0.00    +0.000 A 
BRANCH  17  20
ATOM     20  C   UNL     1       5.654   4.324  15.078  0.00  0.00    +0.000 C 
ATOM     21  F   UNL     1       6.709   5.080  14.658  0.00  0.00    +0.000 F 
ATOM     22  F   UNL     1       6.161   3.081  15.309  0.00  0.00    +0.000 F 
ATOM     23  F   UNL     1       4.830   4.204  14.003  0.00  0.00    +0.000 F 
ENDBRANCH  17  20
ENDBRANCH  10  14
ENDBRANCH   1  11
BRANCH   4  24
ATOM     24  C   UNL     1      -1.947  12.394  21.632  0.00  0.00    +0.000 C 
ATOM     25  O   UNL     1      -1.768  13.277  22.454  0.00  0.00    +0.000 OA
ATOM     26  N   UNL     1      -3.033  12.378  20.780  0.00  0.00    +0.000 N 
ATOM     27  H   UNL     1      -3.103  11.654  20.074  0.00  0.00    +0.000 HD
BRANCH  26  28
ATOM     28  C   UNL     1      -4.011  13.441  20.806  0.00  0.00    +0.000 C 
BRANCH  28  29
ATOM     29  C   UNL     1      -5.235  13.063  21.652  0.00  0.00    +0.000 C 
BRANCH  29  30
ATOM     30  N   UNL     1      -5.322  13.776  22.935  0.00  0.00    +0.000 NA
ATOM     31  C   UNL     1      -5.474  12.826  24.064  0.00  0.00    +0.000 C 
ATOM     32  C   UNL     1      -6.859  12.155  24.117  0.00  0.00    +0.000 C 
ATOM     33  O   UNL     1      -7.912  13.127  24.164  0.00  0.00    +0.000 OA
ATOM     34  C   UNL     1      -7.829  14.040  23.063  0.00  0.00    +0.000 C 
ATOM     35  C   UNL     1      -6.455  14.726  23.006  0.00  0.00    +0.000 C 
ENDBRANCH  29  30
ENDBRANCH  28  29
ENDBRANCH  26  28
ENDBRANCH   4  24
TORSDOF 7
ENDMDL
