MODEL 1
REMARK VINA RESULT:      -5.7      0.000      0.000
REMARK  Name = 
REMARK  4 active torsions:
REMARK  status: ('A' for Active; 'I' for Inactive)
REMARK    1  A    between atoms: C_1  and  C_2
REMARK    2  A    between atoms: C_2  and  C_3
REMARK    3  A    between atoms: C_2  and  N_10
REMARK    4  A    between atoms: C_3  and  C_4
REMARK                            x       y       z     vdW  Elec       q    Type
REMARK                         _______ _______ _______ _____ _____    ______ ____
ROOT
ATOM      1  C   UNL     1       4.019   3.278  17.673  0.00  0.00    +0.000 C 
ENDROOT
BRANCH   1   2
ATOM      2  C   UNL     1       3.055   3.147  18.834  0.00  0.00    +0.000 A 
ATOM      3  C   UNL     1       3.524   2.905  20.133  0.00  0.00    +0.000 A 
ATOM      4  C   UNL     1       2.633   2.763  21.198  0.00  0.00    +0.000 A 
ATOM      5  C   UNL     1       1.261   2.873  20.979  0.00  0.00    +0.000 A 
ATOM      6  C   UNL     1       0.783   3.138  19.698  0.00  0.00    +0.000 A 
ATOM      7  C   UNL     1       1.674   3.280  18.631  0.00  0.00    +0.000 A 
ENDBRANCH   1   2
BRANCH   1   9
ATOM      8  C   UNL     1       4.424   5.760  17.432  0.00  0.00    +0.000 C 
ATOM      9  C   UNL     1       5.045   4.420  17.830  0.00  0.00    +0.000 C 
BRANCH   9  10
ATOM     10  N   UNL     1       6.242   4.185  17.025  0.00  0.00    +0.000 N 
ATOM     11  C   UNL     1       7.499   4.469  17.485  0.00  0.00    +0.000 C 
ATOM     12  O   UNL     1       7.775   4.906  18.593  0.00  0.00    +0.000 OA
ATOM     13  H   UNL     1       6.134   3.913  16.057  0.00  0.00    +0.000 HD
ENDBRANCH   9  10
ENDBRANCH   1   9
TORSDOF 3
ENDMDL
MODEL 2
REMARK VINA RESULT:      -5.5      0.924      1.637
REMARK  Name = 
REMARK  4 active torsions:
REMARK  status: ('A' for Active; 'I' for Inactive)
REMARK    1  A    between atoms: C_1  and  C_2
REMARK    2  A    between atoms: C_2  and  C_3
REMARK    3  A    between atoms: C_2  and  N_10
REMARK    4  A    between atoms: C_3  and  C_4
REMARK                            x       y       z     vdW  Elec       q    Type
REMARK                         _______ _______ _______ _____ _____    ______ ____
ROOT
ATOM      1  C   UNL     1       3.608   3.557  17.237  0.00  0.00    +0.000 C 
ENDROOT
BRANCH   1   2
ATOM      2  C   UNL     1       2.885   3.431  18.563  0.00  0.00    +0.000 A 
ATOM      3  C   UNL     1       1.558   3.861  18.701  0.00  0.00    +0.000 A 
ATOM      4  C   UNL     1       0.901   3.764  19.929  0.00  0.00    +0.000 A 
ATOM      5  C   UNL     1       1.560   3.226  21.033  0.00  0.00    +0.000 A 
ATOM      6  C   UNL     1       2.871   2.773  20.903  0.00  0.00    +0.000 A 
ATOM      7  C   UNL     1       3.529   2.869  19.675  0.00  0.00    +0.000 A 
ENDBRANCH   1   2
BRANCH   1   9
ATOM      8  C   UNL     1       4.579   5.831  17.755  0.00  0.00    +0.000 C 
ATOM      9  C   UNL     1       4.895   4.406  17.299  0.00  0.00    +0.000 C 
BRANCH   9  10
ATOM     10  N   UNL     1       5.573   4.452  16.006  0.00  0.00    +0.000 N 
ATOM     11  C   UNL     1       6.937   4.454  15.896  0.00  0.00    +0.000 C 
ATOM     12  O   UNL     1       7.732   4.385  16.823  0.00  0.00    +0.000 OA
ATOM     13  H   UNL     1       5.024   4.605  15.171  0.00  0.00    +0.000 HD
ENDBRANCH   9  10
ENDBRANCH   1   9
TORSDOF 3
ENDMDL
MODEL 3
REMARK VINA RESULT:      -5.5      1.116      1.537
REMARK  Name = 
REMARK  4 active torsions:
REMARK  status: ('A' for Active; 'I' for Inactive)
REMARK    1  A    between atoms: C_1  and  C_2
REMARK    2  A    between atoms: C_2  and  C_3
REMARK    3  A    between atoms: C_2  and  N_10
REMARK    4  A    between atoms: C_3  and  C_4
REMARK                            x       y       z     vdW  Elec       q    Type
REMARK                         _______ _______ _______ _____ _____    ______ ____
ROOT
ATOM      1  C   UNL     1       3.892   3.904  17.087  0.00  0.00    +0.000 C 
ENDROOT
BRANCH   1   2
ATOM      2  C   UNL     1       2.901   3.896  18.234  0.00  0.00    +0.000 A 
ATOM      3  C   UNL     1       1.834   2.987  18.253  0.00  0.00    +0.000 A 
ATOM      4  C   UNL     1       0.909   2.995  19.300  0.00  0.00    +0.000 A 
ATOM      5  C   UNL     1       1.047   3.907  20.345  0.00  0.00    +0.000 A 
ATOM      6  C   UNL     1       2.116   4.799  20.350  0.00  0.00    +0.000 A 
ATOM      7  C   UNL     1       3.042   4.791  19.303  0.00  0.00    +0.000 A 
ENDBRANCH   1   2
BRANCH   1   9
ATOM      8  C   UNL     1       4.985   6.061  16.355  0.00  0.00    +0.000 C 
ATOM      9  C   UNL     1       5.087   4.858  17.294  0.00  0.00    +0.000 C 
BRANCH   9  10
ATOM     10  N   UNL     1       6.362   4.180  17.072  0.00  0.00    +0.000 N 
ATOM     11  C   UNL     1       7.524   4.597  17.662  0.00  0.00    +0.000 C 
ATOM     12  O   UNL     1       7.636   5.529  18.445  0.00  0.00    +0.000 OA
ATOM     13  H   UNL     1       6.414   3.452  16.371  0.00  0.00    +0.000 HD
ENDBRANCH   9  10
ENDBRANCH   1   9
TORSDOF 3
ENDMDL
MODEL 4
REMARK VINA RESULT:      -5.5      1.195      1.253
REMARK  Name = 
REMARK  4 active torsions:
REMARK  status: ('A' for Active; 'I' for Inactive)
REMARK    1  A    between atoms: C_1  and  C_2
REMARK    2  A    between atoms: C_2  and  C_3
REMARK    3  A    between atoms: C_2  and  N_10
REMARK    4  A    between atoms: C_3  and  C_4
REMARK                            x       y       z     vdW  Elec       q    Type
REMARK                         _______ _______ _______ _____ _____    ______ ____
ROOT
ATOM      1  C   UNL     1       3.980   4.004  16.919  0.00  0.00    +0.000 C 
ENDROOT
BRANCH   1   2
ATOM      2  C   UNL     1       2.900   3.788  17.959  0.00  0.00    +0.000 A 
ATOM      3  C   UNL     1       2.681   4.733  18.973  0.00  0.00    +0.000 A 
ATOM      4  C   UNL     1       1.700   4.522  19.943  0.00  0.00    +0.000 A 
ATOM      5  C   UNL     1       0.918   3.369  19.907  0.00  0.00    +0.000 A 
ATOM      6  C   UNL     1       1.109   2.435  18.892  0.00  0.00    +0.000 A 
ATOM      7  C   UNL     1       2.090   2.645  17.919  0.00  0.00    +0.000 A 
ENDBRANCH   1   2
BRANCH   1   9
ATOM      8  C   UNL     1       5.035   6.297  16.813  0.00  0.00    +0.000 C 
ATOM      9  C   UNL     1       5.150   4.889  17.399  0.00  0.00    +0.000 C 
BRANCH   9  10
ATOM     10  N   UNL     1       6.444   4.318  17.032  0.00  0.00    +0.000 N 
ATOM     11  C   UNL     1       7.574   4.536  17.771  0.00  0.00    +0.000 C 
ATOM     12  O   UNL     1       7.640   5.180  18.808  0.00  0.00    +0.000 OA
ATOM     13  H   UNL     1       6.535   3.844  16.143  0.00  0.00    +0.000 HD
ENDBRANCH   9  10
ENDBRANCH   1   9
TORSDOF 3
ENDMDL
MODEL 5
REMARK VINA RESULT:      -5.4      1.749      2.057
REMARK  Name = 
REMARK  4 active torsions:
REMARK  status: ('A' for Active; 'I' for Inactive)
REMARK    1  A    between atoms: C_1  and  C_2
REMARK    2  A    between atoms: C_2  and  C_3
REMARK    3  A    between atoms: C_2  and  N_10
REMARK    4  A    between atoms: C_3  and  C_4
REMARK                            x       y       z     vdW  Elec       q    Type
REMARK                         _______ _______ _______ _____ _____    ______ ____
ROOT
ATOM      1  C   UNL     1       3.052   6.488  18.019  0.00  0.00    +0.000 C 
ENDROOT
BRANCH   1   2
ATOM      2  C   UNL     1       2.290   5.347  18.662  0.00  0.00    +0.000 A 
ATOM      3  C   UNL     1       2.035   5.341  20.041  0.00  0.00    +0.000 A 
ATOM      4  C   UNL     1       1.351   4.278  20.634  0.00  0.00    +0.000 A 
ATOM      5  C   UNL     1       0.905   3.212  19.855  0.00  0.00    +0.000 A 
ATOM      6  C   UNL     1       1.131   3.218  18.480  0.00  0.00    +0.000 A 
ATOM      7  C   UNL     1       1.814   4.281  17.885  0.00  0.00    +0.000 A 
ENDBRANCH   1   2
BRANCH   1   9
ATOM      8  C   UNL     1       4.971   6.488  16.376  0.00  0.00    +0.000 C 
ATOM      9  C   UNL     1       4.557   6.208  17.821  0.00  0.00    +0.000 C 
BRANCH   9  10
ATOM     10  N   UNL     1       4.898   4.830  18.163  0.00  0.00    +0.000 N 
ATOM     11  C   UNL     1       5.884   4.522  19.061  0.00  0.00    +0.000 C 
ATOM     12  O   UNL     1       6.555   5.326  19.692  0.00  0.00    +0.000 OA
ATOM     13  H   UNL     1       4.476   4.076  17.636  0.00  0.00    +0.000 HD
ENDBRANCH   9  10
ENDBRANCH   1   9
TORSDOF 3
ENDMDL
MODEL 6
REMARK VINA RESULT:      -5.4      1.495      1.951
REMARK  Name = 
REMARK  4 active torsions:
REMARK  status: ('A' for Active; 'I' for Inactive)
REMARK    1  A    between atoms: C_1  and  C_2
REMARK    2  A    between atoms: C_2  and  C_3
REMARK    3  A    between atoms: C_2  and  N_10
REMARK    4  A    between atoms: C_3  and  C_4
REMARK                            x       y       z     vdW  Elec       q    Type
REMARK                         _______ _______ _______ _____ _____    ______ ____
ROOT
ATOM      1  C   UNL     1       2.885   5.555  17.887  0.00  0.00    +0.000 C 
ENDROOT
BRANCH   1   2
ATOM      2  C   UNL     1       2.329   4.647  18.965  0.00  0.00    +0.000 A 
ATOM      3  C   UNL     1       1.468   3.589  18.639  0.00  0.00    +0.000 A 
ATOM      4  C   UNL     1       0.939   2.768  19.637  0.00  0.00    +0.000 A 
ATOM      5  C   UNL     1       1.273   2.987  20.972  0.00  0.00    +0.000 A 
ATOM      6  C   UNL     1       2.147   4.019  21.307  0.00  0.00    +0.000 A 
ATOM      7  C   UNL     1       2.677   4.842  20.309  0.00  0.00    +0.000 A 
ENDBRANCH   1   2
BRANCH   1   9
ATOM      8  C   UNL     1       4.792   6.995  17.068  0.00  0.00    +0.000 C 
ATOM      9  C   UNL     1       4.368   5.933  18.084  0.00  0.00    +0.000 C 
BRANCH   9  10
ATOM     10  N   UNL     1       5.242   4.770  17.960  0.00  0.00    +0.000 N 
ATOM     11  C   UNL     1       6.314   4.569  18.787  0.00  0.00    +0.000 C 
ATOM     12  O   UNL     1       6.645   5.289  19.718  0.00  0.00    +0.000 OA
ATOM     13  H   UNL     1       5.125   4.152  17.167  0.00  0.00    +0.000 HD
ENDBRANCH   9  10
ENDBRANCH   1   9
TORSDOF 3
ENDMDL
MODEL 7
REMARK VINA RESULT:      -5.4      1.730      1.997
REMARK  Name = 
REMARK  4 active torsions:
REMARK  status: ('A' for Active; 'I' for Inactive)
REMARK    1  A    between atoms: C_1  and  C_2
REMARK    2  A    between atoms: C_2  and  C_3
REMARK    3  A    between atoms: C_2  and  N_10
REMARK    4  A    between atoms: C_3  and  C_4
REMARK                            x       y       z     vdW  Elec       q    Type
REMARK                         _______ _______ _______ _____ _____    ______ ____
ROOT
ATOM      1  C   UNL     1       3.541   5.955  17.953  0.00  0.00    +0.000 C 
ENDROOT
BRANCH   1   2
ATOM      2  C   UNL     1       2.569   4.983  18.591  0.00  0.00    +0.000 A 
ATOM      3  C   UNL     1       2.063   5.214  19.878  0.00  0.00    +0.000 A 
ATOM      4  C   UNL     1       1.185   4.306  20.472  0.00  0.00    +0.000 A 
ATOM      5  C   UNL     1       0.794   3.160  19.783  0.00  0.00    +0.000 A 
ATOM      6  C   UNL     1       1.270   2.930  18.494  0.00  0.00    +0.000 A 
ATOM      7  C   UNL     1       2.149   3.839  17.898  0.00  0.00    +0.000 A 
ENDBRANCH   1   2
BRANCH   1   9
ATOM      8  C   UNL     1       5.429   4.813  19.183  0.00  0.00    +0.000 C 
ATOM      9  C   UNL     1       4.987   5.427  17.854  0.00  0.00    +0.000 C 
BRANCH   9  10
ATOM     10  N   UNL     1       5.922   6.484  17.476  0.00  0.00    +0.000 N 
ATOM     11  C   UNL     1       7.110   6.220  16.850  0.00  0.00    +0.000 C 
ATOM     12  O   UNL     1       7.510   5.116  16.508  0.00  0.00    +0.000 OA
ATOM     13  H   UNL     1       5.745   7.430  17.790  0.00  0.00    +0.000 HD
ENDBRANCH   9  10
ENDBRANCH   1   9
TORSDOF 3
ENDMDL
MODEL 8
REMARK VINA RESULT:      -5.4      1.860      2.119
REMARK  Name = 
REMARK  4 active torsions:
REMARK  status: ('A' for Active; 'I' for Inactive)
REMARK    1  A    between atoms: C_1  and  C_2
REMARK    2  A    between atoms: C_2  and  C_3
REMARK    3  A    between atoms: C_2  and  N_10
REMARK    4  A    between atoms: C_3  and  C_4
REMARK                            x       y       z     vdW  Elec       q    Type
REMARK                         _______ _______ _______ _____ _____    ______ ____
ROOT
ATOM      1  C   UNL     1       2.345   5.533  17.885  0.00  0.00    +0.000 C 
ENDROOT
BRANCH   1   2
ATOM      2  C   UNL     1       1.992   4.602  19.026  0.00  0.00    +0.000 A 
ATOM      3  C   UNL     1       2.392   4.892  20.339  0.00  0.00    +0.000 A 
ATOM      4  C   UNL     1       2.085   4.021  21.386  0.00  0.00    +0.000 A 
ATOM      5  C   UNL     1       1.365   2.854  21.135  0.00  0.00    +0.000 A 
ATOM      6  C   UNL     1       0.942   2.566  19.840  0.00  0.00    +0.000 A 
ATOM      7  C   UNL     1       1.248   3.437  18.791  0.00  0.00    +0.000 A 
ENDBRANCH   1   2
BRANCH   1   9
ATOM      8  C   UNL     1       2.774   8.023  17.929  0.00  0.00    +0.000 C 
ATOM      9  C   UNL     1       3.347   6.644  18.264  0.00  0.00    +0.000 C 
BRANCH   9  10
ATOM     10  N   UNL     1       4.626   6.474  17.580  0.00  0.00    +0.000 N 
ATOM     11  C   UNL     1       5.688   5.837  18.163  0.00  0.00    +0.000 C 
ATOM     12  O   UNL     1       5.693   5.320  19.271  0.00  0.00    +0.000 OA
ATOM     13  H   UNL     1       4.773   6.940  16.694  0.00  0.00    +0.000 HD
ENDBRANCH   9  10
ENDBRANCH   1   9
TORSDOF 3
ENDMDL
MODEL 9
REMARK VINA RESULT:      -5.4      0.960      1.009
REMARK  Name = 
REMARK  4 active torsions:
REMARK  status: ('A' for Active; 'I' for Inactive)
REMARK    1  A    between atoms: C_1  and  C_2
REMARK    2  A    between atoms: C_2  and  C_3
REMARK    3  A    between atoms: C_2  and  N_10
REMARK    4  A    between atoms: C_3  and  C_4
REMARK                            x       y       z     vdW  Elec       q    Type
REMARK                         _______ _______ _______ _____ _____    ______ ____
ROOT
ATOM      1  C   UNL     1       3.895   2.935  17.760  0.00  0.00    +0.000 C 
ENDROOT
BRANCH   1   2
ATOM      2  C   UNL     1       3.010   3.071  18.983  0.00  0.00    +0.000 A 
ATOM      3  C   UNL     1       3.451   2.633  20.240  0.00  0.00    +0.000 A 
ATOM      4  C   UNL     1       2.626   2.739  21.361  0.00  0.00    +0.000 A 
ATOM      5  C   UNL     1       1.354   3.295  21.242  0.00  0.00    +0.000 A 
ATOM      6  C   UNL     1       0.913   3.757  20.003  0.00  0.00    +0.000 A 
ATOM      7  C   UNL     1       1.738   3.652  18.880  0.00  0.00    +0.000 A 
ENDBRANCH   1   2
BRANCH   1   9
ATOM      8  C   UNL     1       5.071   4.337  16.019  0.00  0.00    +0.000 C 
ATOM      9  C   UNL     1       4.823   4.143  17.515  0.00  0.00    +0.000 C 
BRANCH   9  10
ATOM     10  N   UNL     1       6.104   3.986  18.200  0.00  0.00    +0.000 N 
ATOM     11  C   UNL     1       6.903   5.053  18.509  0.00  0.00    +0.000 C 
ATOM     12  O   UNL     1       6.645   6.229  18.292  0.00  0.00    +0.000 OA
ATOM     13  H   UNL     1       6.469   3.054  18.348  0.00  0.00    +0.000 HD
ENDBRANCH   9  10
ENDBRANCH   1   9
TORSDOF 3
ENDMDL
