MODEL 1
REMARK VINA RESULT:      -7.6      0.000      0.000
REMARK  Name = 
REMARK  7 active torsions:
REMARK  status: ('A' for Active; 'I' for Inactive)
REMARK    1  A    between atoms: C_1  and  O_2
REMARK    2  A    between atoms: O_2  and  C_3
REMARK    3  A    between atoms: C_6  and  C_7
REMARK    4  A    between atoms: C_8  and  C_9
REMARK    5  A    between atoms: C_8  and  C_10
REMARK    6  A    between atoms: C_10  and  C_12
REMARK    7  A    between atoms: C_13  and  C_14
REMARK                            x       y       z     vdW  Elec       q    Type
REMARK                         _______ _______ _______ _____ _____    ______ ____
ROOT
ATOM      1  C   UNL     1       5.191   6.133  17.672  0.00  0.00    +0.000 C 
ATOM      2  C   UNL     1       6.448   6.161  18.168  0.00  0.00    +0.000 C 
ATOM      3  C   UNL     1       6.911   5.509  19.440  0.00  0.00    +0.000 C 
ENDROOT
BRANCH   1   7
ATOM      4  C   UNL     1       1.798   4.094  19.384  0.00  0.00    +0.000 A 
ATOM      5  C   UNL     1       2.263   5.298  19.917  0.00  0.00    +0.000 A 
ATOM      6  C   UNL     1       3.355   5.962  19.339  0.00  0.00    +0.000 A 
ATOM      7  C   UNL     1       4.012   5.428  18.223  0.00  0.00    +0.000 A 
ATOM      8  C   UNL     1       3.491   4.255  17.661  0.00  0.00    +0.000 A 
ATOM      9  C   UNL     1       2.418   3.575  18.253  0.00  0.00    +0.000 A 
BRANCH   4  11
ATOM     10  C   UNL     1       1.083   2.802  21.238  0.00  0.00    +0.000 C 
ATOM     11  O   UNL     1       0.753   3.520  20.054  0.00  0.00    +0.000 OA
ENDBRANCH   4  11
ENDBRANCH   1   7
BRANCH   2  12
ATOM     12  C   UNL     1       7.455   7.018  17.441  0.00  0.00    +0.000 C 
ATOM     13  O   UNL     1       7.796   6.789  16.284  0.00  0.00    +0.000 OA
BRANCH  12  14
ATOM     14  C   UNL     1       8.000   8.179  18.203  0.00  0.00    +0.000 C 
ATOM     15  C   UNL     1       8.370   9.316  17.597  0.00  0.00    +0.000 C 
BRANCH  15  16
ATOM     16  C   UNL     1       8.867  10.443  18.387  0.00  0.00    +0.000 A 
ATOM     17  C   UNL     1       8.803  11.745  17.871  0.00  0.00    +0.000 A 
ATOM     18  C   UNL     1       9.321  12.817  18.596  0.00  0.00    +0.000 A 
ATOM     19  C   UNL     1       9.912  12.601  19.842  0.00  0.00    +0.000 A 
ATOM     20  C   UNL     1       9.978  11.310  20.364  0.00  0.00    +0.000 A 
ATOM     21  C   UNL     1       9.457  10.232  19.639  0.00  0.00    +0.000 A 
ENDBRANCH  15  16
ENDBRANCH  12  14
ENDBRANCH   2  12
TORSDOF 5
ENDMDL
MODEL 2
REMARK VINA RESULT:      -7.6      5.039      6.818
REMARK  Name = 
REMARK  7 active torsions:
REMARK  status: ('A' for Active; 'I' for Inactive)
REMARK    1  A    between atoms: C_1  and  O_2
REMARK    2  A    between atoms: O_2  and  C_3
REMARK    3  A    between atoms: C_6  and  C_7
REMARK    4  A    between atoms: C_8  and  C_9
REMARK    5  A    between atoms: C_8  and  C_10
REMARK    6  A    between atoms: C_10  and  C_12
REMARK    7  A    between atoms: C_13  and  C_14
REMARK                            x       y       z     vdW  Elec       q    Type
REMARK                         _______ _______ _______ _____ _____    ______ ____
ROOT
ATOM      1  C   UNL     1       3.473   6.331  18.456  0.00  0.00    +0.000 C 
ATOM      2  C   UNL     1       3.144   5.098  18.011  0.00  0.00    +0.000 C 
ATOM      3  C   UNL     1       1.754   4.601  17.730  0.00  0.00    +0.000 C 
ENDROOT
BRANCH   1   7
ATOM      4  C   UNL     1       0.772   9.590  19.277  0.00  0.00    +0.000 A 
ATOM      5  C   UNL     1       1.139   8.686  20.275  0.00  0.00    +0.000 A 
ATOM      6  C   UNL     1       2.033   7.642  20.001  0.00  0.00    +0.000 A 
ATOM      7  C   UNL     1       2.570   7.473  18.718  0.00  0.00    +0.000 A 
ATOM      8  C   UNL     1       2.245   8.429  17.746  0.00  0.00    +0.000 A 
ATOM      9  C   UNL     1       1.329   9.456  18.010  0.00  0.00    +0.000 A 
BRANCH   4  11
ATOM     10  C   UNL     1      -0.303  10.736  21.052  0.00  0.00    +0.000 C 
ATOM     11  O   UNL     1      -0.136  10.542  19.651  0.00  0.00    +0.000 OA
ENDBRANCH   4  11
ENDBRANCH   1   7
BRANCH   2  12
ATOM     12  C   UNL     1       4.260   4.089  17.891  0.00  0.00    +0.000 C 
ATOM     13  O   UNL     1       4.691   3.471  18.860  0.00  0.00    +0.000 OA
BRANCH  12  14
ATOM     14  C   UNL     1       4.798   3.868  16.517  0.00  0.00    +0.000 C 
ATOM     15  C   UNL     1       5.537   4.792  15.886  0.00  0.00    +0.000 C 
BRANCH  15  16
ATOM     16  C   UNL     1       6.074   4.520  14.552  0.00  0.00    +0.000 A 
ATOM     17  C   UNL     1       7.239   5.169  14.119  0.00  0.00    +0.000 A 
ATOM     18  C   UNL     1       7.728   4.954  12.832  0.00  0.00    +0.000 A 
ATOM     19  C   UNL     1       7.058   4.092  11.961  0.00  0.00    +0.000 A 
ATOM     20  C   UNL     1       5.900   3.441  12.385  0.00  0.00    +0.000 A 
ATOM     21  C   UNL     1       5.408   3.653  13.677  0.00  0.00    +0.000 A 
ENDBRANCH  15  16
ENDBRANCH  12  14
ENDBRANCH   2  12
TORSDOF 5
ENDMDL
MODEL 3
REMARK VINA RESULT:      -7.6      0.485      1.131
REMARK  Name = 
REMARK  7 active torsions:
REMARK  status: ('A' for Active; 'I' for Inactive)
REMARK    1  A    between atoms: C_1  and  O_2
REMARK    2  A    between atoms: O_2  and  C_3
REMARK    3  A    between atoms: C_6  and  C_7
REMARK    4  A    between atoms: C_8  and  C_9
REMARK    5  A    between atoms: C_8  and  C_10
REMARK    6  A    between atoms: C_10  and  C_12
REMARK    7  A    between atoms: C_13  and  C_14
REMARK                            x       y       z     vdW  Elec       q    Type
REMARK                         _______ _______ _______ _____ _____    ______ ____
ROOT
ATOM      1  C   UNL     1       5.057   6.058  17.579  0.00  0.00    +0.000 C 
ATOM      2  C   UNL     1       6.342   6.122  17.995  0.00  0.00    +0.000 C 
ATOM      3  C   UNL     1       6.887   5.550  19.272  0.00  0.00    +0.000 C 
ENDROOT
BRANCH   1   7
ATOM      4  C   UNL     1       1.806   4.080  19.607  0.00  0.00    +0.000 A 
ATOM      5  C   UNL     1       2.514   5.117  20.216  0.00  0.00    +0.000 A 
ATOM      6  C   UNL     1       3.557   5.766  19.539  0.00  0.00    +0.000 A 
ATOM      7  C   UNL     1       3.920   5.382  18.242  0.00  0.00    +0.000 A 
ATOM      8  C   UNL     1       3.156   4.385  17.620  0.00  0.00    +0.000 A 
ATOM      9  C   UNL     1       2.132   3.716  18.304  0.00  0.00    +0.000 A 
BRANCH   4  11
ATOM     10  C   UNL     1       1.293   2.756  21.505  0.00  0.00    +0.000 C 
ATOM     11  O   UNL     1       0.838   3.497  20.377  0.00  0.00    +0.000 OA
ENDBRANCH   4  11
ENDBRANCH   1   7
BRANCH   2  12
ATOM     12  C   UNL     1       7.296   6.939  17.158  0.00  0.00    +0.000 C 
ATOM     13  O   UNL     1       7.814   6.497  16.136  0.00  0.00    +0.000 OA
BRANCH  12  14
ATOM     14  C   UNL     1       7.558   8.329  17.632  0.00  0.00    +0.000 C 
ATOM     15  C   UNL     1       8.680   8.655  18.290  0.00  0.00    +0.000 C 
BRANCH  15  16
ATOM     16  C   UNL     1       8.913  10.039  18.707  0.00  0.00    +0.000 A 
ATOM     17  C   UNL     1       9.318  10.317  20.019  0.00  0.00    +0.000 A 
ATOM     18  C   UNL     1       9.492  11.635  20.439  0.00  0.00    +0.000 A 
ATOM     19  C   UNL     1       9.260  12.689  19.555  0.00  0.00    +0.000 A 
ATOM     20  C   UNL     1       8.859  12.421  18.246  0.00  0.00    +0.000 A 
ATOM     21  C   UNL     1       8.686  11.099  17.822  0.00  0.00    +0.000 A 
ENDBRANCH  15  16
ENDBRANCH  12  14
ENDBRANCH   2  12
TORSDOF 5
ENDMDL
MODEL 4
REMARK VINA RESULT:      -7.5      0.331      1.516
REMARK  Name = 
REMARK  7 active torsions:
REMARK  status: ('A' for Active; 'I' for Inactive)
REMARK    1  A    between atoms: C_1  and  O_2
REMARK    2  A    between atoms: O_2  and  C_3
REMARK    3  A    between atoms: C_6  and  C_7
REMARK    4  A    between atoms: C_8  and  C_9
REMARK    5  A    between atoms: C_8  and  C_10
REMARK    6  A    between atoms: C_10  and  C_12
REMARK    7  A    between atoms: C_13  and  C_14
REMARK                            x       y       z     vdW  Elec       q    Type
REMARK                         _______ _______ _______ _____ _____    ______ ____
ROOT
ATOM      1  C   UNL     1       5.374   6.001  17.823  0.00  0.00    +0.000 C 
ATOM      2  C   UNL     1       6.655   6.114  18.238  0.00  0.00    +0.000 C 
ATOM      3  C   UNL     1       7.226   5.545  19.505  0.00  0.00    +0.000 C 
ENDROOT
BRANCH   1   7
ATOM      4  C   UNL     1       2.118   3.817  19.620  0.00  0.00    +0.000 A 
ATOM      5  C   UNL     1       2.915   3.242  18.629  0.00  0.00    +0.000 A 
ATOM      6  C   UNL     1       3.984   3.954  18.066  0.00  0.00    +0.000 A 
ATOM      7  C   UNL     1       4.268   5.264  18.475  0.00  0.00    +0.000 A 
ATOM      8  C   UNL     1       3.501   5.802  19.517  0.00  0.00    +0.000 A 
ATOM      9  C   UNL     1       2.416   5.102  20.061  0.00  0.00    +0.000 A 
BRANCH   4  11
ATOM     10  C   UNL     1       1.125   2.664  21.437  0.00  0.00    +0.000 C 
ATOM     11  O   UNL     1       1.083   3.042  20.065  0.00  0.00    +0.000 OA
ENDBRANCH   4  11
ENDBRANCH   1   7
BRANCH   2  12
ATOM     12  C   UNL     1       7.571   6.986  17.414  0.00  0.00    +0.000 C 
ATOM     13  O   UNL     1       7.778   6.775  16.222  0.00  0.00    +0.000 OA
BRANCH  12  14
ATOM     14  C   UNL     1       8.196   8.137  18.127  0.00  0.00    +0.000 C 
ATOM     15  C   UNL     1       8.209   9.373  17.606  0.00  0.00    +0.000 C 
BRANCH  15  16
ATOM     16  C   UNL     1       8.803  10.481  18.355  0.00  0.00    +0.000 A 
ATOM     17  C   UNL     1       9.388  10.248  19.607  0.00  0.00    +0.000 A 
ATOM     18  C   UNL     1       9.910  11.306  20.349  0.00  0.00    +0.000 A 
ATOM     19  C   UNL     1       9.852  12.609  19.851  0.00  0.00    +0.000 A 
ATOM     20  C   UNL     1       9.275  12.849  18.604  0.00  0.00    +0.000 A 
ATOM     21  C   UNL     1       8.752  11.789  17.857  0.00  0.00    +0.000 A 
ENDBRANCH  15  16
ENDBRANCH  12  14
ENDBRANCH   2  12
TORSDOF 5
ENDMDL
MODEL 5
REMARK VINA RESULT:      -7.4      5.058      6.919
REMARK  Name = 
REMARK  7 active torsions:
REMARK  status: ('A' for Active; 'I' for Inactive)
REMARK    1  A    between atoms: C_1  and  O_2
REMARK    2  A    between atoms: O_2  and  C_3
REMARK    3  A    between atoms: C_6  and  C_7
REMARK    4  A    between atoms: C_8  and  C_9
REMARK    5  A    between atoms: C_8  and  C_10
REMARK    6  A    between atoms: C_10  and  C_12
REMARK    7  A    between atoms: C_13  and  C_14
REMARK                            x       y       z     vdW  Elec       q    Type
REMARK                         _______ _______ _______ _____ _____    ______ ____
ROOT
ATOM      1  C   UNL     1       3.365   6.629  18.302  0.00  0.00    +0.000 C 
ATOM      2  C   UNL     1       3.106   5.362  17.911  0.00  0.00    +0.000 C 
ATOM      3  C   UNL     1       1.756   4.706  17.877  0.00  0.00    +0.000 C 
ENDROOT
BRANCH   1   7
ATOM      4  C   UNL     1       0.603   9.720  19.491  0.00  0.00    +0.000 A 
ATOM      5  C   UNL     1       0.998   9.576  18.160  0.00  0.00    +0.000 A 
ATOM      6  C   UNL     1       1.881   8.554  17.782  0.00  0.00    +0.000 A 
ATOM      7  C   UNL     1       2.398   7.663  18.732  0.00  0.00    +0.000 A 
ATOM      8  C   UNL     1       1.939   7.780  20.051  0.00  0.00    +0.000 A 
ATOM      9  C   UNL     1       1.079   8.817  20.435  0.00  0.00    +0.000 A 
BRANCH   4  11
ATOM     10  C   UNL     1      -1.229  11.038  18.767  0.00  0.00    +0.000 C 
ATOM     11  O   UNL     1      -0.230  10.775  19.745  0.00  0.00    +0.000 OA
ENDBRANCH   4  11
ENDBRANCH   1   7
BRANCH   2  12
ATOM     12  C   UNL     1       4.292   4.487  17.584  0.00  0.00    +0.000 C 
ATOM     13  O   UNL     1       4.808   3.746  18.416  0.00  0.00    +0.000 OA
BRANCH  12  14
ATOM     14  C   UNL     1       4.791   4.557  16.180  0.00  0.00    +0.000 C 
ATOM     15  C   UNL     1       6.025   4.154  15.843  0.00  0.00    +0.000 C 
BRANCH  15  16
ATOM     16  C   UNL     1       6.462   4.209  14.448  0.00  0.00    +0.000 A 
ATOM     17  C   UNL     1       7.445   5.128  14.055  0.00  0.00    +0.000 A 
ATOM     18  C   UNL     1       7.829   5.221  12.719  0.00  0.00    +0.000 A 
ATOM     19  C   UNL     1       7.236   4.401  11.759  0.00  0.00    +0.000 A 
ATOM     20  C   UNL     1       6.259   3.481  12.141  0.00  0.00    +0.000 A 
ATOM     21  C   UNL     1       5.873   3.384  13.482  0.00  0.00    +0.000 A 
ENDBRANCH  15  16
ENDBRANCH  12  14
ENDBRANCH   2  12
TORSDOF 5
ENDMDL
MODEL 6
REMARK VINA RESULT:      -7.4      5.075      6.866
REMARK  Name = 
REMARK  7 active torsions:
REMARK  status: ('A' for Active; 'I' for Inactive)
REMARK    1  A    between atoms: C_1  and  O_2
REMARK    2  A    between atoms: O_2  and  C_3
REMARK    3  A    between atoms: C_6  and  C_7
REMARK    4  A    between atoms: C_8  and  C_9
REMARK    5  A    between atoms: C_8  and  C_10
REMARK    6  A    between atoms: C_10  and  C_12
REMARK    7  A    between atoms: C_13  and  C_14
REMARK                            x       y       z     vdW  Elec       q    Type
REMARK                         _______ _______ _______ _____ _____    ______ ____
ROOT
ATOM      1  C   UNL     1       3.344   6.340  18.193  0.00  0.00    +0.000 C 
ATOM      2  C   UNL     1       2.948   5.082  17.901  0.00  0.00    +0.000 C 
ATOM      3  C   UNL     1       1.544   4.555  17.986  0.00  0.00    +0.000 C 
ENDROOT
BRANCH   1   7
ATOM      4  C   UNL     1       0.820   9.602  19.451  0.00  0.00    +0.000 A 
ATOM      5  C   UNL     1       1.143   8.560  20.321  0.00  0.00    +0.000 A 
ATOM      6  C   UNL     1       1.981   7.515  19.908  0.00  0.00    +0.000 A 
ATOM      7  C   UNL     1       2.503   7.485  18.608  0.00  0.00    +0.000 A 
ATOM      8  C   UNL     1       2.224   8.572  17.769  0.00  0.00    +0.000 A 
ATOM      9  C   UNL     1       1.364   9.603  18.171  0.00  0.00    +0.000 A 
BRANCH   4  11
ATOM     10  C   UNL     1       0.269  11.044  21.250  0.00  0.00    +0.000 C 
ATOM     11  O   UNL     1      -0.036  10.543  19.953  0.00  0.00    +0.000 OA
ENDBRANCH   4  11
ENDBRANCH   1   7
BRANCH   2  12
ATOM     12  C   UNL     1       4.027   4.081  17.566  0.00  0.00    +0.000 C 
ATOM     13  O   UNL     1       4.454   3.278  18.391  0.00  0.00    +0.000 OA
BRANCH  12  14
ATOM     14  C   UNL     1       4.533   4.107  16.163  0.00  0.00    +0.000 C 
ATOM     15  C   UNL     1       5.809   4.399  15.874  0.00  0.00    +0.000 C 
BRANCH  15  16
ATOM     16  C   UNL     1       6.272   4.381  14.485  0.00  0.00    +0.000 A 
ATOM     17  C   UNL     1       5.665   3.526  13.554  0.00  0.00    +0.000 A 
ATOM     18  C   UNL     1       6.133   3.466  12.243  0.00  0.00    +0.000 A 
ATOM     19  C   UNL     1       7.214   4.255  11.847  0.00  0.00    +0.000 A 
ATOM     20  C   UNL     1       7.822   5.110  12.765  0.00  0.00    +0.000 A 
ATOM     21  C   UNL     1       7.353   5.174  14.082  0.00  0.00    +0.000 A 
ENDBRANCH  15  16
ENDBRANCH  12  14
ENDBRANCH   2  12
TORSDOF 5
ENDMDL
MODEL 7
REMARK VINA RESULT:      -7.4      0.738      1.278
REMARK  Name = 
REMARK  7 active torsions:
REMARK  status: ('A' for Active; 'I' for Inactive)
REMARK    1  A    between atoms: C_1  and  O_2
REMARK    2  A    between atoms: O_2  and  C_3
REMARK    3  A    between atoms: C_6  and  C_7
REMARK    4  A    between atoms: C_8  and  C_9
REMARK    5  A    between atoms: C_8  and  C_10
REMARK    6  A    between atoms: C_10  and  C_12
REMARK    7  A    between atoms: C_13  and  C_14
REMARK                            x       y       z     vdW  Elec       q    Type
REMARK                         _______ _______ _______ _____ _____    ______ ____
ROOT
ATOM      1  C   UNL     1       5.337   6.095  17.709  0.00  0.00    +0.000 C 
ATOM      2  C   UNL     1       6.593   6.176  18.203  0.00  0.00    +0.000 C 
ATOM      3  C   UNL     1       7.068   5.602  19.507  0.00  0.00    +0.000 C 
ENDROOT
BRANCH   1   7
ATOM      4  C   UNL     1       1.897   4.050  19.314  0.00  0.00    +0.000 A 
ATOM      5  C   UNL     1       2.520   3.610  18.145  0.00  0.00    +0.000 A 
ATOM      6  C   UNL     1       3.650   4.272  17.643  0.00  0.00    +0.000 A 
ATOM      7  C   UNL     1       4.173   5.395  18.295  0.00  0.00    +0.000 A 
ATOM      8  C   UNL     1       3.578   5.782  19.504  0.00  0.00    +0.000 A 
ATOM      9  C   UNL     1       2.432   5.140  19.991  0.00  0.00    +0.000 A 
BRANCH   4  11
ATOM     10  C   UNL     1       0.557   2.119  19.006  0.00  0.00    +0.000 C 
ATOM     11  O   UNL     1       0.782   3.350  19.684  0.00  0.00    +0.000 OA
ENDBRANCH   4  11
ENDBRANCH   1   7
BRANCH   2  12
ATOM     12  C   UNL     1       7.583   7.015  17.432  0.00  0.00    +0.000 C 
ATOM     13  O   UNL     1       7.766   6.868  16.226  0.00  0.00    +0.000 OA
BRANCH  12  14
ATOM     14  C   UNL     1       8.314   8.052  18.216  0.00  0.00    +0.000 C 
ATOM     15  C   UNL     1       8.414   9.321  17.794  0.00  0.00    +0.000 C 
BRANCH  15  16
ATOM     16  C   UNL     1       9.112  10.315  18.612  0.00  0.00    +0.000 A 
ATOM     17  C   UNL     1       9.924  11.281  18.002  0.00  0.00    +0.000 A 
ATOM     18  C   UNL     1      10.631  12.199  18.776  0.00  0.00    +0.000 A 
ATOM     19  C   UNL     1      10.539  12.160  20.168  0.00  0.00    +0.000 A 
ATOM     20  C   UNL     1       9.732  11.204  20.784  0.00  0.00    +0.000 A 
ATOM     21  C   UNL     1       9.019  10.284  20.008  0.00  0.00    +0.000 A 
ENDBRANCH  15  16
ENDBRANCH  12  14
ENDBRANCH   2  12
TORSDOF 5
ENDMDL
MODEL 8
REMARK VINA RESULT:      -7.3      0.574      1.204
REMARK  Name = 
REMARK  7 active torsions:
REMARK  status: ('A' for Active; 'I' for Inactive)
REMARK    1  A    between atoms: C_1  and  O_2
REMARK    2  A    between atoms: O_2  and  C_3
REMARK    3  A    between atoms: C_6  and  C_7
REMARK    4  A    between atoms: C_8  and  C_9
REMARK    5  A    between atoms: C_8  and  C_10
REMARK    6  A    between atoms: C_10  and  C_12
REMARK    7  A    between atoms: C_13  and  C_14
REMARK                            x       y       z     vdW  Elec       q    Type
REMARK                         _______ _______ _______ _____ _____    ______ ____
ROOT
ATOM      1  C   UNL     1       5.139   5.936  17.709  0.00  0.00    +0.000 C 
ATOM      2  C   UNL     1       6.440   6.084  18.042  0.00  0.00    +0.000 C 
ATOM      3  C   UNL     1       7.065   5.706  19.355  0.00  0.00    +0.000 C 
ENDROOT
BRANCH   1   7
ATOM      4  C   UNL     1       1.945   4.129  19.974  0.00  0.00    +0.000 A 
ATOM      5  C   UNL     1       2.702   3.384  19.069  0.00  0.00    +0.000 A 
ATOM      6  C   UNL     1       3.751   3.977  18.353  0.00  0.00    +0.000 A 
ATOM      7  C   UNL     1       4.056   5.335  18.519  0.00  0.00    +0.000 A 
ATOM      8  C   UNL     1       3.332   6.052  19.480  0.00  0.00    +0.000 A 
ATOM      9  C   UNL     1       2.265   5.468  20.176  0.00  0.00    +0.000 A 
BRANCH   4  11
ATOM     10  C   UNL     1       1.294   2.583  21.648  0.00  0.00    +0.000 C 
ATOM     11  O   UNL     1       0.925   3.453  20.584  0.00  0.00    +0.000 OA
ENDBRANCH   4  11
ENDBRANCH   1   7
BRANCH   2  12
ATOM     12  C   UNL     1       7.328   6.797  17.051  0.00  0.00    +0.000 C 
ATOM     13  O   UNL     1       7.728   6.256  16.023  0.00  0.00    +0.000 OA
BRANCH  12  14
ATOM     14  C   UNL     1       7.675   8.210  17.380  0.00  0.00    +0.000 C 
ATOM     15  C   UNL     1       8.466   8.523  18.416  0.00  0.00    +0.000 C 
BRANCH  15  16
ATOM     16  C   UNL     1       8.810   9.921  18.683  0.00  0.00    +0.000 A 
ATOM     17  C   UNL     1       8.391  10.927  17.802  0.00  0.00    +0.000 A 
ATOM     18  C   UNL     1       8.757  12.254  18.022  0.00  0.00    +0.000 A 
ATOM     19  C   UNL     1       9.548  12.591  19.121  0.00  0.00    +0.000 A 
ATOM     20  C   UNL     1       9.966  11.596  20.005  0.00  0.00    +0.000 A 
ATOM     21  C   UNL     1       9.599  10.264  19.788  0.00  0.00    +0.000 A 
ENDBRANCH  15  16
ENDBRANCH  12  14
ENDBRANCH   2  12
TORSDOF 5
ENDMDL
MODEL 9
REMARK VINA RESULT:      -7.3      5.046      6.885
REMARK  Name = 
REMARK  7 active torsions:
REMARK  status: ('A' for Active; 'I' for Inactive)
REMARK    1  A    between atoms: C_1  and  O_2
REMARK    2  A    between atoms: O_2  and  C_3
REMARK    3  A    between atoms: C_6  and  C_7
REMARK    4  A    between atoms: C_8  and  C_9
REMARK    5  A    between atoms: C_8  and  C_10
REMARK    6  A    between atoms: C_10  and  C_12
REMARK    7  A    between atoms: C_13  and  C_14
REMARK                            x       y       z     vdW  Elec       q    Type
REMARK                         _______ _______ _______ _____ _____    ______ ____
ROOT
ATOM      1  C   UNL     1       3.566   6.126  18.559  0.00  0.00    +0.000 C 
ATOM      2  C   UNL     1       3.226   4.906  18.088  0.00  0.00    +0.000 C 
ATOM      3  C   UNL     1       1.843   4.457  17.713  0.00  0.00    +0.000 C 
ENDROOT
BRANCH   1   7
ATOM      4  C   UNL     1       1.082   9.609  19.102  0.00  0.00    +0.000 A 
ATOM      5  C   UNL     1       1.702   9.347  17.880  0.00  0.00    +0.000 A 
ATOM      6  C   UNL     1       2.492   8.201  17.709  0.00  0.00    +0.000 A 
ATOM      7  C   UNL     1       2.687   7.299  18.763  0.00  0.00    +0.000 A 
ATOM      8  C   UNL     1       2.002   7.541  19.962  0.00  0.00    +0.000 A 
ATOM      9  C   UNL     1       1.236   8.700  20.144  0.00  0.00    +0.000 A 
BRANCH   4  11
ATOM     10  C   UNL     1      -0.438  10.962  20.319  0.00  0.00    +0.000 C 
ATOM     11  O   UNL     1       0.370  10.775  19.162  0.00  0.00    +0.000 OA
ENDBRANCH   4  11
ENDBRANCH   1   7
BRANCH   2  12
ATOM     12  C   UNL     1       4.313   3.860  18.040  0.00  0.00    +0.000 C 
ATOM     13  O   UNL     1       4.492   3.059  18.954  0.00  0.00    +0.000 OA
BRANCH  12  14
ATOM     14  C   UNL     1       5.149   3.840  16.805  0.00  0.00    +0.000 C 
ATOM     15  C   UNL     1       4.721   4.371  15.650  0.00  0.00    +0.000 C 
BRANCH  15  16
ATOM     16  C   UNL     1       5.587   4.360  14.470  0.00  0.00    +0.000 A 
ATOM     17  C   UNL     1       5.238   3.594  13.350  0.00  0.00    +0.000 A 
ATOM     18  C   UNL     1       6.082   3.538  12.242  0.00  0.00    +0.000 A 
ATOM     19  C   UNL     1       7.286   4.244  12.241  0.00  0.00    +0.000 A 
ATOM     20  C   UNL     1       7.641   5.011  13.351  0.00  0.00    +0.000 A 
ATOM     21  C   UNL     1       6.794   5.071  14.463  0.00  0.00    +0.000 A 
ENDBRANCH  15  16
ENDBRANCH  12  14
ENDBRANCH   2  12
TORSDOF 5
ENDMDL
