MODEL 1
REMARK VINA RESULT:      -6.4      0.000      0.000
REMARK  Name = 
REMARK  13 active torsions:
REMARK  status: ('A' for Active; 'I' for Inactive)
REMARK    1  A    between atoms: C_1  and  C_2
REMARK    2  A    between atoms: C_5  and  C_6
REMARK    3  A    between atoms: C_9  and  N_10
REMARK    4  A    between atoms: C_15  and  C_16
REMARK    5  A    between atoms: C_16  and  C_18
REMARK    6  A    between atoms: C_18  and  C_19
REMARK    7  A    between atoms: C_19  and  C_20
REMARK    8  A    between atoms: C_19  and  C_21
REMARK    9  A    between atoms: C_22  and  C_23
REMARK   10  A    between atoms: C_28  and  O_29
REMARK   11  A    between atoms: O_29  and  C_30
REMARK   12  A    between atoms: C_30  and  C_31
REMARK   13  A    between atoms: C_31  and  O_32
REMARK                            x       y       z     vdW  Elec       q    Type
REMARK                         _______ _______ _______ _____ _____    ______ ____
ROOT
ATOM      1  N   UNL     1       2.808   5.523  17.769  0.00  0.00    +0.000 N 
ATOM      2  C   UNL     1       2.111   4.353  17.514  0.00  0.00    +0.000 C 
ATOM      3  O   UNL     1       1.049   3.957  17.950  0.00  0.00    +0.000 OA
ATOM      4  C   UNL     1       2.967   3.539  16.560  0.00  0.00    +0.000 C 
ATOM      5  O   UNL     1       2.684   2.407  16.206  0.00  0.00    +0.000 OA
ATOM      6  C   UNL     1       4.160   4.326  16.103  0.00  0.00    +0.000 C 
ATOM      7  C   UNL     1       4.025   5.654  16.921  0.00  0.00    +0.000 C 
ENDROOT
BRANCH   1  11
ATOM      8  C   UNL     1       1.245   8.432  20.518  0.00  0.00    +0.000 A 
ATOM      9  C   UNL     1       1.398   7.096  20.861  0.00  0.00    +0.000 A 
ATOM     10  C   UNL     1       1.905   6.180  19.950  0.00  0.00    +0.000 A 
ATOM     11  C   UNL     1       2.330   6.524  18.672  0.00  0.00    +0.000 A 
ATOM     12  C   UNL     1       2.152   7.861  18.304  0.00  0.00    +0.000 A 
ATOM     13  C   UNL     1       1.634   8.812  19.225  0.00  0.00    +0.000 A 
BRANCH   8  18
ATOM     14  C   UNL     1      -0.459  12.672  22.053  0.00  0.00    +0.000 C 
ATOM     15  C   UNL     1      -0.143  11.243  22.217  0.00  0.00    +0.000 A 
ATOM     16  C   UNL     1      -0.343  10.351  23.246  0.00  0.00    +0.000 A 
ATOM     17  C   UNL     1       0.169   9.117  22.792  0.00  0.00    +0.000 A 
ATOM     18  C   UNL     1       0.644   9.322  21.508  0.00  0.00    +0.000 A 
ATOM     19  O   UNL     1       0.462  10.628  21.159  0.00  0.00    +0.000 OA
ENDBRANCH   8  18
ENDBRANCH   1  11
BRANCH   7  20
ATOM     20  C   UNL     1       5.258   6.134  17.673  0.00  0.00    +0.000 A 
ATOM     21  C   UNL     1       6.105   7.047  16.996  0.00  0.00    +0.000 A 
ATOM     22  C   UNL     1       7.354   7.408  17.490  0.00  0.00    +0.000 A 
ATOM     23  C   UNL     1       7.817   6.812  18.644  0.00  0.00    +0.000 A 
ATOM     24  C   UNL     1       7.008   5.913  19.335  0.00  0.00    +0.000 A 
ATOM     25  C   UNL     1       5.700   5.606  18.913  0.00  0.00    +0.000 A 
BRANCH  25  26
ATOM     26  O   UNL     1       4.865   4.790  19.666  0.00  0.00    +0.000 OA
BRANCH  26  27
ATOM     27  C   UNL     1       5.296   3.403  19.697  0.00  0.00    +0.000 C 
BRANCH  27  28
ATOM     28  C   UNL     1       4.181   2.402  19.993  0.00  0.00    +0.000 C 
BRANCH  28  29
ATOM     29  O   UNL     1       4.017   1.466  18.935  0.00  0.00    +0.000 OA
ATOM     30  H   UNL     1       4.719   0.800  19.025  0.00  0.00    +0.000 HD
ENDBRANCH  28  29
ENDBRANCH  27  28
ENDBRANCH  26  27
ENDBRANCH  25  26
ENDBRANCH   7  20
BRANCH   6  31
ATOM     31  C   UNL     1       5.425   3.488  16.223  0.00  0.00    +0.000 C 
ATOM     32  O   UNL     1       5.422   2.403  16.814  0.00  0.00    +0.000 OA
BRANCH  31  33
ATOM     33  C   UNL     1       6.670   3.864  15.434  0.00  0.00    +0.000 C 
BRANCH  33  34
ATOM     34  C   UNL     1       6.491   4.580  14.093  0.00  0.00    +0.000 C 
ATOM     35  C   UNL     1       7.785   5.206  13.578  0.00  0.00    +0.000 C 
ATOM     36  C   UNL     1       5.985   3.572  13.054  0.00  0.00    +0.000 C 
ENDBRANCH  33  34
ENDBRANCH  31  33
ENDBRANCH   6  31
TORSDOF 10
ENDMDL
MODEL 2
REMARK VINA RESULT:      -6.3      2.972      9.650
REMARK  Name = 
REMARK  13 active torsions:
REMARK  status: ('A' for Active; 'I' for Inactive)
REMARK    1  A    between atoms: C_1  and  C_2
REMARK    2  A    between atoms: C_5  and  C_6
REMARK    3  A    between atoms: C_9  and  N_10
REMARK    4  A    between atoms: C_15  and  C_16
REMARK    5  A    between atoms: C_16  and  C_18
REMARK    6  A    between atoms: C_18  and  C_19
REMARK    7  A    between atoms: C_19  and  C_20
REMARK    8  A    between atoms: C_19  and  C_21
REMARK    9  A    between atoms: C_22  and  C_23
REMARK   10  A    between atoms: C_28  and  O_29
REMARK   11  A    between atoms: O_29  and  C_30
REMARK   12  A    between atoms: C_30  and  C_31
REMARK   13  A    between atoms: C_31  and  O_32
REMARK                            x       y       z     vdW  Elec       q    Type
REMARK                         _______ _______ _______ _____ _____    ______ ____
ROOT
ATOM      1  N   UNL     1       0.500   9.829  21.142  0.00  0.00    +0.000 N 
ATOM      2  C   UNL     1      -0.483   9.425  22.030  0.00  0.00    +0.000 C 
ATOM      3  O   UNL     1      -0.958   8.326  22.234  0.00  0.00    +0.000 OA
ATOM      4  C   UNL     1      -0.961  10.676  22.745  0.00  0.00    +0.000 C 
ATOM      5  O   UNL     1      -1.893  10.683  23.532  0.00  0.00    +0.000 OA
ATOM      6  C   UNL     1      -0.117  11.861  22.377  0.00  0.00    +0.000 C 
ATOM      7  C   UNL     1       0.859  11.266  21.308  0.00  0.00    +0.000 C 
ENDROOT
BRANCH   1  11
ATOM      8  C   UNL     1       2.590   7.088  18.577  0.00  0.00    +0.000 A 
ATOM      9  C   UNL     1       2.347   6.811  19.915  0.00  0.00    +0.000 A 
ATOM     10  C   UNL     1       1.669   7.718  20.718  0.00  0.00    +0.000 A 
ATOM     11  C   UNL     1       1.155   8.923  20.251  0.00  0.00    +0.000 A 
ATOM     12  C   UNL     1       1.421   9.226  18.913  0.00  0.00    +0.000 A 
ATOM     13  C   UNL     1       2.114   8.309  18.076  0.00  0.00    +0.000 A 
BRANCH   8  18
ATOM     14  C   UNL     1       6.304   5.715  15.828  0.00  0.00    +0.000 C 
ATOM     15  C   UNL     1       5.055   5.473  16.570  0.00  0.00    +0.000 A 
ATOM     16  C   UNL     1       4.311   4.339  16.808  0.00  0.00    +0.000 A 
ATOM     17  C   UNL     1       3.221   4.753  17.603  0.00  0.00    +0.000 A 
ATOM     18  C   UNL     1       3.366   6.114  17.814  0.00  0.00    +0.000 A 
ATOM     19  O   UNL     1       4.485   6.557  17.173  0.00  0.00    +0.000 OA
ENDBRANCH   8  18
ENDBRANCH   1  11
BRANCH   7  20
ATOM     20  C   UNL     1       1.002  12.026  19.998  0.00  0.00    +0.000 A 
ATOM     21  C   UNL     1       2.190  12.781  19.823  0.00  0.00    +0.000 A 
ATOM     22  C   UNL     1       2.357  13.669  18.767  0.00  0.00    +0.000 A 
ATOM     23  C   UNL     1       1.310  13.877  17.893  0.00  0.00    +0.000 A 
ATOM     24  C   UNL     1       0.131  13.149  18.035  0.00  0.00    +0.000 A 
ATOM     25  C   UNL     1      -0.028  12.170  19.034  0.00  0.00    +0.000 A 
BRANCH  25  26
ATOM     26  O   UNL     1      -1.168  11.378  19.102  0.00  0.00    +0.000 OA
BRANCH  26  27
ATOM     27  C   UNL     1      -2.258  11.872  18.279  0.00  0.00    +0.000 C 
BRANCH  27  28
ATOM     28  C   UNL     1      -2.678  10.927  17.154  0.00  0.00    +0.000 C 
BRANCH  28  29
ATOM     29  O   UNL     1      -2.387  11.470  15.872  0.00  0.00    +0.000 OA
ATOM     30  H   UNL     1      -1.895  12.296  16.011  0.00  0.00    +0.000 HD
ENDBRANCH  28  29
ENDBRANCH  27  28
ENDBRANCH  26  27
ENDBRANCH  25  26
ENDBRANCH   7  20
BRANCH   6  31
ATOM     31  C   UNL     1      -1.000  13.049  22.018  0.00  0.00    +0.000 C 
ATOM     32  O   UNL     1      -2.170  12.892  21.653  0.00  0.00    +0.000 OA
BRANCH  31  33
ATOM     33  C   UNL     1      -0.530  14.467  22.306  0.00  0.00    +0.000 C 
BRANCH  33  34
ATOM     34  C   UNL     1       0.002  15.306  21.140  0.00  0.00    +0.000 C 
ATOM     35  C   UNL     1      -1.112  15.939  20.310  0.00  0.00    +0.000 C 
ATOM     36  C   UNL     1       0.896  16.422  21.696  0.00  0.00    +0.000 C 
ENDBRANCH  33  34
ENDBRANCH  31  33
ENDBRANCH   6  31
TORSDOF 10
ENDMDL
MODEL 3
REMARK VINA RESULT:      -6.2      3.712     10.134
REMARK  Name = 
REMARK  13 active torsions:
REMARK  status: ('A' for Active; 'I' for Inactive)
REMARK    1  A    between atoms: C_1  and  C_2
REMARK    2  A    between atoms: C_5  and  C_6
REMARK    3  A    between atoms: C_9  and  N_10
REMARK    4  A    between atoms: C_15  and  C_16
REMARK    5  A    between atoms: C_16  and  C_18
REMARK    6  A    between atoms: C_18  and  C_19
REMARK    7  A    between atoms: C_19  and  C_20
REMARK    8  A    between atoms: C_19  and  C_21
REMARK    9  A    between atoms: C_22  and  C_23
REMARK   10  A    between atoms: C_28  and  O_29
REMARK   11  A    between atoms: O_29  and  C_30
REMARK   12  A    between atoms: C_30  and  C_31
REMARK   13  A    between atoms: C_31  and  O_32
REMARK                            x       y       z     vdW  Elec       q    Type
REMARK                         _______ _______ _______ _____ _____    ______ ____
ROOT
ATOM      1  N   UNL     1      -0.360  11.472  19.799  0.00  0.00    +0.000 N 
ATOM      2  C   UNL     1      -1.716  11.464  19.519  0.00  0.00    +0.000 C 
ATOM      3  O   UNL     1      -2.403  10.625  18.971  0.00  0.00    +0.000 OA
ATOM      4  C   UNL     1      -2.265  12.797  19.995  0.00  0.00    +0.000 C 
ATOM      5  O   UNL     1      -3.418  13.151  19.813  0.00  0.00    +0.000 OA
ATOM      6  C   UNL     1      -1.217  13.576  20.733  0.00  0.00    +0.000 C 
ATOM      7  C   UNL     1       0.048  12.663  20.595  0.00  0.00    +0.000 C 
ENDROOT
BRANCH   1  11
ATOM      8  C   UNL     1       2.144   8.188  18.612  0.00  0.00    +0.000 A 
ATOM      9  C   UNL     1       1.682   9.132  17.706  0.00  0.00    +0.000 A 
ATOM     10  C   UNL     1       0.874  10.182  18.120  0.00  0.00    +0.000 A 
ATOM     11  C   UNL     1       0.508  10.391  19.446  0.00  0.00    +0.000 A 
ATOM     12  C   UNL     1       0.941   9.429  20.362  0.00  0.00    +0.000 A 
ATOM     13  C   UNL     1       1.769   8.348  19.954  0.00  0.00    +0.000 A 
BRANCH   8  18
ATOM     14  C   UNL     1       2.922   3.548  17.565  0.00  0.00    +0.000 C 
ATOM     15  C   UNL     1       3.299   4.971  17.599  0.00  0.00    +0.000 A 
ATOM     16  C   UNL     1       4.399   5.660  17.140  0.00  0.00    +0.000 A 
ATOM     17  C   UNL     1       4.168   7.014  17.461  0.00  0.00    +0.000 A 
ATOM     18  C   UNL     1       2.935   7.078  18.089  0.00  0.00    +0.000 A 
ATOM     19  O   UNL     1       2.407   5.823  18.182  0.00  0.00    +0.000 OA
ENDBRANCH   8  18
ENDBRANCH   1  11
BRANCH   7  20
ATOM     20  C   UNL     1       1.332  13.323  20.113  0.00  0.00    +0.000 A 
ATOM     21  C   UNL     1       1.749  13.021  18.793  0.00  0.00    +0.000 A 
ATOM     22  C   UNL     1       2.993  13.398  18.302  0.00  0.00    +0.000 A 
ATOM     23  C   UNL     1       3.883  14.030  19.145  0.00  0.00    +0.000 A 
ATOM     24  C   UNL     1       3.504  14.344  20.448  0.00  0.00    +0.000 A 
ATOM     25  C   UNL     1       2.214  14.065  20.939  0.00  0.00    +0.000 A 
BRANCH  25  26
ATOM     26  O   UNL     1       1.813  14.476  22.204  0.00  0.00    +0.000 OA
BRANCH  26  27
ATOM     27  C   UNL     1       1.777  15.920  22.353  0.00  0.00    +0.000 C 
BRANCH  27  28
ATOM     28  C   UNL     1       0.739  16.426  23.354  0.00  0.00    +0.000 C 
BRANCH  28  29
ATOM     29  O   UNL     1      -0.218  15.423  23.674  0.00  0.00    +0.000 OA
ATOM     30  H   UNL     1      -1.054  15.672  23.245  0.00  0.00    +0.000 HD
ENDBRANCH  28  29
ENDBRANCH  27  28
ENDBRANCH  26  27
ENDBRANCH  25  26
ENDBRANCH   7  20
BRANCH   6  31
ATOM     31  C   UNL     1      -1.172  15.013  20.230  0.00  0.00    +0.000 C 
ATOM     32  O   UNL     1      -1.566  15.951  20.931  0.00  0.00    +0.000 OA
BRANCH  31  33
ATOM     33  C   UNL     1      -0.442  15.349  18.938  0.00  0.00    +0.000 C 
BRANCH  33  34
ATOM     34  C   UNL     1       0.127  16.761  18.772  0.00  0.00    +0.000 C 
ATOM     35  C   UNL     1       1.575  16.761  18.285  0.00  0.00    +0.000 C 
ATOM     36  C   UNL     1      -0.733  17.530  17.761  0.00  0.00    +0.000 C 
ENDBRANCH  33  34
ENDBRANCH  31  33
ENDBRANCH   6  31
TORSDOF 10
ENDMDL
MODEL 4
REMARK VINA RESULT:      -6.2      3.012      9.880
REMARK  Name = 
REMARK  13 active torsions:
REMARK  status: ('A' for Active; 'I' for Inactive)
REMARK    1  A    between atoms: C_1  and  C_2
REMARK    2  A    between atoms: C_5  and  C_6
REMARK    3  A    between atoms: C_9  and  N_10
REMARK    4  A    between atoms: C_15  and  C_16
REMARK    5  A    between atoms: C_16  and  C_18
REMARK    6  A    between atoms: C_18  and  C_19
REMARK    7  A    between atoms: C_19  and  C_20
REMARK    8  A    between atoms: C_19  and  C_21
REMARK    9  A    between atoms: C_22  and  C_23
REMARK   10  A    between atoms: C_28  and  O_29
REMARK   11  A    between atoms: O_29  and  C_30
REMARK   12  A    between atoms: C_30  and  C_31
REMARK   13  A    between atoms: C_31  and  O_32
REMARK                            x       y       z     vdW  Elec       q    Type
REMARK                         _______ _______ _______ _____ _____    ______ ____
ROOT
ATOM      1  N   UNL     1       0.392  10.027  21.170  0.00  0.00    +0.000 N 
ATOM      2  C   UNL     1      -0.585   9.571  22.039  0.00  0.00    +0.000 C 
ATOM      3  O   UNL     1      -1.020   8.451  22.219  0.00  0.00    +0.000 OA
ATOM      4  C   UNL     1      -1.120  10.791  22.769  0.00  0.00    +0.000 C 
ATOM      5  O   UNL     1      -2.061  10.749  23.543  0.00  0.00    +0.000 OA
ATOM      6  C   UNL     1      -0.318  12.013  22.430  0.00  0.00    +0.000 C 
ATOM      7  C   UNL     1       0.693  11.473  21.364  0.00  0.00    +0.000 C 
ENDROOT
BRANCH   1  11
ATOM      8  C   UNL     1       2.616   7.410  18.588  0.00  0.00    +0.000 A 
ATOM      9  C   UNL     1       2.367   7.102  19.918  0.00  0.00    +0.000 A 
ATOM     10  C   UNL     1       1.645   7.968  20.727  0.00  0.00    +0.000 A 
ATOM     11  C   UNL     1       1.092   9.161  20.273  0.00  0.00    +0.000 A 
ATOM     12  C   UNL     1       1.364   9.497  18.944  0.00  0.00    +0.000 A 
ATOM     13  C   UNL     1       2.101   8.621  18.102  0.00  0.00    +0.000 A 
BRANCH   8  18
ATOM     14  C   UNL     1       4.005   3.015  17.180  0.00  0.00    +0.000 C 
ATOM     15  C   UNL     1       4.075   4.486  17.163  0.00  0.00    +0.000 A 
ATOM     16  C   UNL     1       4.832   5.380  16.440  0.00  0.00    +0.000 A 
ATOM     17  C   UNL     1       4.427   6.662  16.867  0.00  0.00    +0.000 A 
ATOM     18  C   UNL     1       3.438   6.480  17.820  0.00  0.00    +0.000 A 
ATOM     19  O   UNL     1       3.229   5.145  18.008  0.00  0.00    +0.000 OA
ENDBRANCH   8  18
ENDBRANCH   1  11
BRANCH   7  20
ATOM     20  C   UNL     1       0.823  12.260  20.068  0.00  0.00    +0.000 A 
ATOM     21  C   UNL     1       1.992  13.047  19.912  0.00  0.00    +0.000 A 
ATOM     22  C   UNL     1       2.141  13.957  18.873  0.00  0.00    +0.000 A 
ATOM     23  C   UNL     1       1.094  14.155  17.998  0.00  0.00    +0.000 A 
ATOM     24  C   UNL     1      -0.069  13.397  18.122  0.00  0.00    +0.000 A 
ATOM     25  C   UNL     1      -0.207  12.396  19.103  0.00  0.00    +0.000 A 
BRANCH  25  26
ATOM     26  O   UNL     1      -1.328  11.576  19.152  0.00  0.00    +0.000 OA
BRANCH  26  27
ATOM     27  C   UNL     1      -2.039  11.501  17.888  0.00  0.00    +0.000 C 
BRANCH  27  28
ATOM     28  C   UNL     1      -3.561  11.482  18.020  0.00  0.00    +0.000 C 
BRANCH  28  29
ATOM     29  O   UNL     1      -4.198  12.019  16.868  0.00  0.00    +0.000 OA
ATOM     30  H   UNL     1      -4.996  11.489  16.703  0.00  0.00    +0.000 HD
ENDBRANCH  28  29
ENDBRANCH  27  28
ENDBRANCH  26  27
ENDBRANCH  25  26
ENDBRANCH   7  20
BRANCH   6  31
ATOM     31  C   UNL     1      -1.242  13.172  22.079  0.00  0.00    +0.000 C 
ATOM     32  O   UNL     1      -2.396  12.976  21.688  0.00  0.00    +0.000 OA
BRANCH  31  33
ATOM     33  C   UNL     1      -0.835  14.601  22.407  0.00  0.00    +0.000 C 
BRANCH  33  34
ATOM     34  C   UNL     1      -0.297  15.481  21.276  0.00  0.00    +0.000 C 
ATOM     35  C   UNL     1      -1.406  16.114  20.439  0.00  0.00    +0.000 C 
ATOM     36  C   UNL     1       0.563  16.598  21.879  0.00  0.00    +0.000 C 
ENDBRANCH  33  34
ENDBRANCH  31  33
ENDBRANCH   6  31
TORSDOF 10
ENDMDL
MODEL 5
REMARK VINA RESULT:      -6.1      4.148     10.308
REMARK  Name = 
REMARK  13 active torsions:
REMARK  status: ('A' for Active; 'I' for Inactive)
REMARK    1  A    between atoms: C_1  and  C_2
REMARK    2  A    between atoms: C_5  and  C_6
REMARK    3  A    between atoms: C_9  and  N_10
REMARK    4  A    between atoms: C_15  and  C_16
REMARK    5  A    between atoms: C_16  and  C_18
REMARK    6  A    between atoms: C_18  and  C_19
REMARK    7  A    between atoms: C_19  and  C_20
REMARK    8  A    between atoms: C_19  and  C_21
REMARK    9  A    between atoms: C_22  and  C_23
REMARK   10  A    between atoms: C_28  and  O_29
REMARK   11  A    between atoms: O_29  and  C_30
REMARK   12  A    between atoms: C_30  and  C_31
REMARK   13  A    between atoms: C_31  and  O_32
REMARK                            x       y       z     vdW  Elec       q    Type
REMARK                         _______ _______ _______ _____ _____    ______ ____
ROOT
ATOM      1  N   UNL     1      -0.432  12.312  20.192  0.00  0.00    +0.000 N 
ATOM      2  C   UNL     1      -1.802  12.496  20.105  0.00  0.00    +0.000 C 
ATOM      3  O   UNL     1      -2.669  11.768  19.665  0.00  0.00    +0.000 OA
ATOM      4  C   UNL     1      -2.087  13.887  20.644  0.00  0.00    +0.000 C 
ATOM      5  O   UNL     1      -3.193  14.400  20.622  0.00  0.00    +0.000 OA
ATOM      6  C   UNL     1      -0.847  14.503  21.221  0.00  0.00    +0.000 C 
ATOM      7  C   UNL     1       0.245  13.425  20.914  0.00  0.00    +0.000 C 
ENDROOT
BRANCH   1  11
ATOM      8  C   UNL     1       1.644   8.776  18.906  0.00  0.00    +0.000 A 
ATOM      9  C   UNL     1       1.424   9.060  20.247  0.00  0.00    +0.000 A 
ATOM     10  C   UNL     1       0.750  10.211  20.631  0.00  0.00    +0.000 A 
ATOM     11  C   UNL     1       0.218  11.125  19.728  0.00  0.00    +0.000 A 
ATOM     12  C   UNL     1       0.460  10.866  18.377  0.00  0.00    +0.000 A 
ATOM     13  C   UNL     1       1.149   9.692  17.966  0.00  0.00    +0.000 A 
BRANCH   8  18
ATOM     14  C   UNL     1       5.107   6.360  16.581  0.00  0.00    +0.000 C 
ATOM     15  C   UNL     1       3.995   6.470  17.540  0.00  0.00    +0.000 A 
ATOM     16  C   UNL     1       3.412   5.572  18.406  0.00  0.00    +0.000 A 
ATOM     17  C   UNL     1       2.394   6.284  19.073  0.00  0.00    +0.000 A 
ATOM     18  C   UNL     1       2.417   7.580  18.585  0.00  0.00    +0.000 A 
ATOM     19  O   UNL     1       3.393   7.691  17.637  0.00  0.00    +0.000 OA
ENDBRANCH   8  18
ENDBRANCH   1  11
BRANCH   7  20
ATOM     20  C   UNL     1       1.529  13.905  20.251  0.00  0.00    +0.000 A 
ATOM     21  C   UNL     1       1.645  13.693  18.855  0.00  0.00    +0.000 A 
ATOM     22  C   UNL     1       2.834  13.905  18.167  0.00  0.00    +0.000 A 
ATOM     23  C   UNL     1       3.961  14.270  18.873  0.00  0.00    +0.000 A 
ATOM     24  C   UNL     1       3.881  14.489  20.247  0.00  0.00    +0.000 A 
ATOM     25  C   UNL     1       2.666  14.381  20.952  0.00  0.00    +0.000 A 
BRANCH  25  26
ATOM     26  O   UNL     1       2.577  14.703  22.300  0.00  0.00    +0.000 OA
BRANCH  26  27
ATOM     27  C   UNL     1       3.215  15.964  22.632  0.00  0.00    +0.000 C 
BRANCH  27  28
ATOM     28  C   UNL     1       4.468  15.829  23.495  0.00  0.00    +0.000 C 
BRANCH  28  29
ATOM     29  O   UNL     1       4.643  14.500  23.968  0.00  0.00    +0.000 OA
ATOM     30  H   UNL     1       3.968  13.947  23.540  0.00  0.00    +0.000 HD
ENDBRANCH  28  29
ENDBRANCH  27  28
ENDBRANCH  26  27
ENDBRANCH  25  26
ENDBRANCH   7  20
BRANCH   6  31
ATOM     31  C   UNL     1      -0.673  15.926  20.706  0.00  0.00    +0.000 C 
ATOM     32  O   UNL     1      -0.347  16.846  21.462  0.00  0.00    +0.000 OA
BRANCH  31  33
ATOM     33  C   UNL     1      -0.686  16.205  19.210  0.00  0.00    +0.000 C 
BRANCH  33  34
ATOM     34  C   UNL     1      -0.009  17.482  18.704  0.00  0.00    +0.000 C 
ATOM     35  C   UNL     1       1.391  17.228  18.148  0.00  0.00    +0.000 C 
ATOM     36  C   UNL     1      -0.873  18.101  17.599  0.00  0.00    +0.000 C 
ENDBRANCH  33  34
ENDBRANCH  31  33
ENDBRANCH   6  31
TORSDOF 10
ENDMDL
MODEL 6
REMARK VINA RESULT:      -6.0      7.652     11.607
REMARK  Name = 
REMARK  13 active torsions:
REMARK  status: ('A' for Active; 'I' for Inactive)
REMARK    1  A    between atoms: C_1  and  C_2
REMARK    2  A    between atoms: C_5  and  C_6
REMARK    3  A    between atoms: C_9  and  N_10
REMARK    4  A    between atoms: C_15  and  C_16
REMARK    5  A    between atoms: C_16  and  C_18
REMARK    6  A    between atoms: C_18  and  C_19
REMARK    7  A    between atoms: C_19  and  C_20
REMARK    8  A    between atoms: C_19  and  C_21
REMARK    9  A    between atoms: C_22  and  C_23
REMARK   10  A    between atoms: C_28  and  O_29
REMARK   11  A    between atoms: O_29  and  C_30
REMARK   12  A    between atoms: C_30  and  C_31
REMARK   13  A    between atoms: C_31  and  O_32
REMARK                            x       y       z     vdW  Elec       q    Type
REMARK                         _______ _______ _______ _____ _____    ______ ____
ROOT
ATOM      1  N   UNL     1      -0.907  14.710  20.901  0.00  0.00    +0.000 N 
ATOM      2  C   UNL     1      -1.483  15.571  21.819  0.00  0.00    +0.000 C 
ATOM      3  O   UNL     1      -1.001  16.491  22.450  0.00  0.00    +0.000 OA
ATOM      4  C   UNL     1      -2.928  15.131  21.979  0.00  0.00    +0.000 C 
ATOM      5  O   UNL     1      -3.693  15.625  22.790  0.00  0.00    +0.000 OA
ATOM      6  C   UNL     1      -3.271  14.051  20.995  0.00  0.00    +0.000 C 
ATOM      7  C   UNL     1      -1.903  13.794  20.279  0.00  0.00    +0.000 C 
ENDROOT
BRANCH   1  11
ATOM      8  C   UNL     1       3.202  14.856  19.651  0.00  0.00    +0.000 A 
ATOM      9  C   UNL     1       2.156  15.180  18.798  0.00  0.00    +0.000 A 
ATOM     10  C   UNL     1       0.839  15.122  19.231  0.00  0.00    +0.000 A 
ATOM     11  C   UNL     1       0.473  14.788  20.530  0.00  0.00    +0.000 A 
ATOM     12  C   UNL     1       1.515  14.430  21.389  0.00  0.00    +0.000 A 
ATOM     13  C   UNL     1       2.870  14.483  20.962  0.00  0.00    +0.000 A 
BRANCH   8  18
ATOM     14  C   UNL     1       8.008  14.969  20.000  0.00  0.00    +0.000 C 
ATOM     15  C   UNL     1       6.744  14.919  19.247  0.00  0.00    +0.000 A 
ATOM     16  C   UNL     1       6.456  14.831  17.903  0.00  0.00    +0.000 A 
ATOM     17  C   UNL     1       5.049  14.810  17.811  0.00  0.00    +0.000 A 
ATOM     18  C   UNL     1       4.555  14.877  19.103  0.00  0.00    +0.000 A 
ATOM     19  O   UNL     1       5.595  14.954  19.983  0.00  0.00    +0.000 OA
ENDBRANCH   8  18
ENDBRANCH   1  11
BRANCH   7  20
ATOM     20  C   UNL     1      -1.436  12.350  20.171  0.00  0.00    +0.000 A 
ATOM     21  C   UNL     1      -0.696  11.834  21.264  0.00  0.00    +0.000 A 
ATOM     22  C   UNL     1      -0.050  10.604  21.210  0.00  0.00    +0.000 A 
ATOM     23  C   UNL     1      -0.070   9.887  20.032  0.00  0.00    +0.000 A 
ATOM     24  C   UNL     1      -0.791  10.364  18.940  0.00  0.00    +0.000 A 
ATOM     25  C   UNL     1      -1.539  11.556  19.000  0.00  0.00    +0.000 A 
BRANCH  25  26
ATOM     26  O   UNL     1      -2.336  11.969  17.940  0.00  0.00    +0.000 OA
BRANCH  26  27
ATOM     27  C   UNL     1      -3.515  11.141  17.754  0.00  0.00    +0.000 C 
BRANCH  27  28
ATOM     28  C   UNL     1      -4.178  11.285  16.385  0.00  0.00    +0.000 C 
BRANCH  28  29
ATOM     29  O   UNL     1      -3.226  11.549  15.363  0.00  0.00    +0.000 OA
ATOM     30  H   UNL     1      -2.342  11.470  15.760  0.00  0.00    +0.000 HD
ENDBRANCH  28  29
ENDBRANCH  27  28
ENDBRANCH  26  27
ENDBRANCH  25  26
ENDBRANCH   7  20
BRANCH   6  31
ATOM     31  C   UNL     1      -3.987  12.904  21.695  0.00  0.00    +0.000 C 
ATOM     32  O   UNL     1      -3.625  12.505  22.806  0.00  0.00    +0.000 OA
BRANCH  31  33
ATOM     33  C   UNL     1      -5.297  12.366  21.139  0.00  0.00    +0.000 C 
BRANCH  33  34
ATOM     34  C   UNL     1      -6.580  12.609  21.939  0.00  0.00    +0.000 C 
ATOM     35  C   UNL     1      -7.001  14.077  21.949  0.00  0.00    +0.000 C 
ATOM     36  C   UNL     1      -7.714  11.776  21.328  0.00  0.00    +0.000 C 
ENDBRANCH  33  34
ENDBRANCH  31  33
ENDBRANCH   6  31
TORSDOF 10
ENDMDL
MODEL 7
REMARK VINA RESULT:      -6.0      4.301     10.542
REMARK  Name = 
REMARK  13 active torsions:
REMARK  status: ('A' for Active; 'I' for Inactive)
REMARK    1  A    between atoms: C_1  and  C_2
REMARK    2  A    between atoms: C_5  and  C_6
REMARK    3  A    between atoms: C_9  and  N_10
REMARK    4  A    between atoms: C_15  and  C_16
REMARK    5  A    between atoms: C_16  and  C_18
REMARK    6  A    between atoms: C_18  and  C_19
REMARK    7  A    between atoms: C_19  and  C_20
REMARK    8  A    between atoms: C_19  and  C_21
REMARK    9  A    between atoms: C_22  and  C_23
REMARK   10  A    between atoms: C_28  and  O_29
REMARK   11  A    between atoms: O_29  and  C_30
REMARK   12  A    between atoms: C_30  and  C_31
REMARK   13  A    between atoms: C_31  and  O_32
REMARK                            x       y       z     vdW  Elec       q    Type
REMARK                         _______ _______ _______ _____ _____    ______ ____
ROOT
ATOM      1  N   UNL     1      -0.554  12.674  20.410  0.00  0.00    +0.000 N 
ATOM      2  C   UNL     1      -1.917  12.902  20.315  0.00  0.00    +0.000 C 
ATOM      3  O   UNL     1      -2.810  12.186  19.909  0.00  0.00    +0.000 OA
ATOM      4  C   UNL     1      -2.152  14.326  20.789  0.00  0.00    +0.000 C 
ATOM      5  O   UNL     1      -3.239  14.876  20.744  0.00  0.00    +0.000 OA
ATOM      6  C   UNL     1      -0.890  14.924  21.337  0.00  0.00    +0.000 C 
ATOM      7  C   UNL     1       0.163  13.795  21.080  0.00  0.00    +0.000 C 
ENDROOT
BRANCH   1  11
ATOM      8  C   UNL     1       1.395   9.013  19.287  0.00  0.00    +0.000 A 
ATOM      9  C   UNL     1       1.199   9.372  20.613  0.00  0.00    +0.000 A 
ATOM     10  C   UNL     1       0.567  10.562  20.944  0.00  0.00    +0.000 A 
ATOM     11  C   UNL     1       0.053  11.445  20.001  0.00  0.00    +0.000 A 
ATOM     12  C   UNL     1       0.271  11.110  18.662  0.00  0.00    +0.000 A 
ATOM     13  C   UNL     1       0.917   9.896  18.306  0.00  0.00    +0.000 A 
BRANCH   8  18
ATOM     14  C   UNL     1       2.821   4.524  20.309  0.00  0.00    +0.000 C 
ATOM     15  C   UNL     1       2.776   5.731  19.467  0.00  0.00    +0.000 A 
ATOM     16  C   UNL     1       3.316   6.038  18.238  0.00  0.00    +0.000 A 
ATOM     17  C   UNL     1       2.904   7.356  17.954  0.00  0.00    +0.000 A 
ATOM     18  C   UNL     1       2.126   7.778  19.019  0.00  0.00    +0.000 A 
ATOM     19  O   UNL     1       2.056   6.784  19.951  0.00  0.00    +0.000 OA
ENDBRANCH   8  18
ENDBRANCH   1  11
BRANCH   7  20
ATOM     20  C   UNL     1       1.461  14.198  20.395  0.00  0.00    +0.000 A 
ATOM     21  C   UNL     1       1.527  14.015  18.991  0.00  0.00    +0.000 A 
ATOM     22  C   UNL     1       2.712  14.158  18.278  0.00  0.00    +0.000 A 
ATOM     23  C   UNL     1       3.880  14.423  18.963  0.00  0.00    +0.000 A 
ATOM     24  C   UNL     1       3.849  14.612  20.343  0.00  0.00    +0.000 A 
ATOM     25  C   UNL     1       2.647  14.573  21.076  0.00  0.00    +0.000 A 
BRANCH  25  26
ATOM     26  O   UNL     1       2.614  14.866  22.434  0.00  0.00    +0.000 OA
BRANCH  26  27
ATOM     27  C   UNL     1       2.911  16.257  22.728  0.00  0.00    +0.000 C 
BRANCH  27  28
ATOM     28  C   UNL     1       4.199  16.473  23.521  0.00  0.00    +0.000 C 
BRANCH  28  29
ATOM     29  O   UNL     1       4.179  15.776  24.760  0.00  0.00    +0.000 OA
ATOM     30  H   UNL     1       3.921  16.411  25.449  0.00  0.00    +0.000 HD
ENDBRANCH  28  29
ENDBRANCH  27  28
ENDBRANCH  26  27
ENDBRANCH  25  26
ENDBRANCH   7  20
BRANCH   6  31
ATOM     31  C   UNL     1      -0.667  16.315  20.757  0.00  0.00    +0.000 C 
ATOM     32  O   UNL     1      -0.253  17.243  21.458  0.00  0.00    +0.000 OA
BRANCH  31  33
ATOM     33  C   UNL     1      -0.742  16.538  19.254  0.00  0.00    +0.000 C 
BRANCH  33  34
ATOM     34  C   UNL     1      -0.026  17.755  18.664  0.00  0.00    +0.000 C 
ATOM     35  C   UNL     1       1.484  17.555  18.548  0.00  0.00    +0.000 C 
ATOM     36  C   UNL     1      -0.593  18.039  17.267  0.00  0.00    +0.000 C 
ENDBRANCH  33  34
ENDBRANCH  31  33
ENDBRANCH   6  31
TORSDOF 10
ENDMDL
MODEL 8
REMARK VINA RESULT:      -5.9      3.017     10.011
REMARK  Name = 
REMARK  13 active torsions:
REMARK  status: ('A' for Active; 'I' for Inactive)
REMARK    1  A    between atoms: C_1  and  C_2
REMARK    2  A    between atoms: C_5  and  C_6
REMARK    3  A    between atoms: C_9  and  N_10
REMARK    4  A    between atoms: C_15  and  C_16
REMARK    5  A    between atoms: C_16  and  C_18
REMARK    6  A    between atoms: C_18  and  C_19
REMARK    7  A    between atoms: C_19  and  C_20
REMARK    8  A    between atoms: C_19  and  C_21
REMARK    9  A    between atoms: C_22  and  C_23
REMARK   10  A    between atoms: C_28  and  O_29
REMARK   11  A    between atoms: O_29  and  C_30
REMARK   12  A    between atoms: C_30  and  C_31
REMARK   13  A    between atoms: C_31  and  O_32
REMARK                            x       y       z     vdW  Elec       q    Type
REMARK                         _______ _______ _______ _____ _____    ______ ____
ROOT
ATOM      1  N   UNL     1       0.428   9.916  21.172  0.00  0.00    +0.000 N 
ATOM      2  C   UNL     1      -0.557   9.498  22.050  0.00  0.00    +0.000 C 
ATOM      3  O   UNL     1      -1.017   8.391  22.252  0.00  0.00    +0.000 OA
ATOM      4  C   UNL     1      -1.064  10.742  22.758  0.00  0.00    +0.000 C 
ATOM      5  O   UNL     1      -2.004  10.735  23.535  0.00  0.00    +0.000 OA
ATOM      6  C   UNL     1      -0.236  11.940  22.396  0.00  0.00    +0.000 C 
ATOM      7  C   UNL     1       0.762  11.359  21.339  0.00  0.00    +0.000 C 
ENDROOT
BRANCH   1  11
ATOM      8  C   UNL     1       2.589   7.203  18.637  0.00  0.00    +0.000 A 
ATOM      9  C   UNL     1       2.325   6.920  19.969  0.00  0.00    +0.000 A 
ATOM     10  C   UNL     1       1.625   7.817  20.763  0.00  0.00    +0.000 A 
ATOM     11  C   UNL     1       1.107   9.019  20.290  0.00  0.00    +0.000 A 
ATOM     12  C   UNL     1       1.394   9.328  18.958  0.00  0.00    +0.000 A 
ATOM     13  C   UNL     1       2.110   8.421  18.131  0.00  0.00    +0.000 A 
BRANCH   8  18
ATOM     14  C   UNL     1       6.450   5.830  16.098  0.00  0.00    +0.000 C 
ATOM     15  C   UNL     1       5.143   5.597  16.735  0.00  0.00    +0.000 A 
ATOM     16  C   UNL     1       4.348   4.481  16.863  0.00  0.00    +0.000 A 
ATOM     17  C   UNL     1       3.216   4.895  17.597  0.00  0.00    +0.000 A 
ATOM     18  C   UNL     1       3.388   6.239  17.885  0.00  0.00    +0.000 A 
ATOM     19  O   UNL     1       4.565   6.671  17.348  0.00  0.00    +0.000 OA
ENDBRANCH   8  18
ENDBRANCH   1  11
BRANCH   7  20
ATOM     20  C   UNL     1       0.906  12.119  20.029  0.00  0.00    +0.000 A 
ATOM     21  C   UNL     1       2.064  12.923  19.881  0.00  0.00    +0.000 A 
ATOM     22  C   UNL     1       2.220  13.813  18.824  0.00  0.00    +0.000 A 
ATOM     23  C   UNL     1       1.189  13.971  17.922  0.00  0.00    +0.000 A 
ATOM     24  C   UNL     1       0.039  13.194  18.037  0.00  0.00    +0.000 A 
ATOM     25  C   UNL     1      -0.104  12.213  19.037  0.00  0.00    +0.000 A 
BRANCH  25  26
ATOM     26  O   UNL     1      -1.209  11.373  19.080  0.00  0.00    +0.000 OA
BRANCH  26  27
ATOM     27  C   UNL     1      -1.979  11.376  17.848  0.00  0.00    +0.000 C 
BRANCH  27  28
ATOM     28  C   UNL     1      -3.486  11.529  18.047  0.00  0.00    +0.000 C 
BRANCH  28  29
ATOM     29  O   UNL     1      -4.131  11.987  16.865  0.00  0.00    +0.000 OA
ATOM     30  H   UNL     1      -4.296  12.938  16.973  0.00  0.00    +0.000 HD
ENDBRANCH  28  29
ENDBRANCH  27  28
ENDBRANCH  26  27
ENDBRANCH  25  26
ENDBRANCH   7  20
BRANCH   6  31
ATOM     31  C   UNL     1      -1.134  13.113  22.025  0.00  0.00    +0.000 C 
ATOM     32  O   UNL     1      -2.188  12.942  21.403  0.00  0.00    +0.000 OA
BRANCH  31  33
ATOM     33  C   UNL     1      -0.864  14.496  22.598  0.00  0.00    +0.000 C 
BRANCH  33  34
ATOM     34  C   UNL     1      -1.125  14.728  24.089  0.00  0.00    +0.000 C 
ATOM     35  C   UNL     1      -0.740  16.133  24.545  0.00  0.00    +0.000 C 
ATOM     36  C   UNL     1      -2.616  14.508  24.374  0.00  0.00    +0.000 C 
ENDBRANCH  33  34
ENDBRANCH  31  33
ENDBRANCH   6  31
TORSDOF 10
ENDMDL
MODEL 9
REMARK VINA RESULT:      -5.9      2.928     10.087
REMARK  Name = 
REMARK  13 active torsions:
REMARK  status: ('A' for Active; 'I' for Inactive)
REMARK    1  A    between atoms: C_1  and  C_2
REMARK    2  A    between atoms: C_5  and  C_6
REMARK    3  A    between atoms: C_9  and  N_10
REMARK    4  A    between atoms: C_15  and  C_16
REMARK    5  A    between atoms: C_16  and  C_18
REMARK    6  A    between atoms: C_18  and  C_19
REMARK    7  A    between atoms: C_19  and  C_20
REMARK    8  A    between atoms: C_19  and  C_21
REMARK    9  A    between atoms: C_22  and  C_23
REMARK   10  A    between atoms: C_28  and  O_29
REMARK   11  A    between atoms: O_29  and  C_30
REMARK   12  A    between atoms: C_30  and  C_31
REMARK   13  A    between atoms: C_31  and  O_32
REMARK                            x       y       z     vdW  Elec       q    Type
REMARK                         _______ _______ _______ _____ _____    ______ ____
ROOT
ATOM      1  N   UNL     1       0.443   9.934  21.161  0.00  0.00    +0.000 N 
ATOM      2  C   UNL     1      -0.526   9.473  22.036  0.00  0.00    +0.000 C 
ATOM      3  O   UNL     1      -0.954   8.351  22.218  0.00  0.00    +0.000 OA
ATOM      4  C   UNL     1      -1.062  10.690  22.770  0.00  0.00    +0.000 C 
ATOM      5  O   UNL     1      -1.997  10.643  23.550  0.00  0.00    +0.000 OA
ATOM      6  C   UNL     1      -0.268  11.916  22.426  0.00  0.00    +0.000 C 
ATOM      7  C   UNL     1       0.739  11.382  21.354  0.00  0.00    +0.000 C 
ENDROOT
BRANCH   1  11
ATOM      8  C   UNL     1       2.660   7.323  18.567  0.00  0.00    +0.000 A 
ATOM      9  C   UNL     1       2.373   6.991  19.883  0.00  0.00    +0.000 A 
ATOM     10  C   UNL     1       1.655   7.856  20.696  0.00  0.00    +0.000 A 
ATOM     11  C   UNL     1       1.142   9.072  20.259  0.00  0.00    +0.000 A 
ATOM     12  C   UNL     1       1.452   9.432  18.945  0.00  0.00    +0.000 A 
ATOM     13  C   UNL     1       2.186   8.558  18.098  0.00  0.00    +0.000 A 
BRANCH   8  18
ATOM     14  C   UNL     1       4.035   2.924  17.157  0.00  0.00    +0.000 C 
ATOM     15  C   UNL     1       4.106   4.395  17.136  0.00  0.00    +0.000 A 
ATOM     16  C   UNL     1       4.859   5.287  16.407  0.00  0.00    +0.000 A 
ATOM     17  C   UNL     1       4.458   6.570  16.835  0.00  0.00    +0.000 A 
ATOM     18  C   UNL     1       3.476   6.390  17.794  0.00  0.00    +0.000 A 
ATOM     19  O   UNL     1       3.267   5.056  17.986  0.00  0.00    +0.000 OA
ENDBRANCH   8  18
ENDBRANCH   1  11
BRANCH   7  20
ATOM     20  C   UNL     1       0.856  12.170  20.057  0.00  0.00    +0.000 A 
ATOM     21  C   UNL     1       1.999  12.996  19.912  0.00  0.00    +0.000 A 
ATOM     22  C   UNL     1       2.129  13.909  18.872  0.00  0.00    +0.000 A 
ATOM     23  C   UNL     1       1.085  14.069  17.985  0.00  0.00    +0.000 A 
ATOM     24  C   UNL     1      -0.052  13.271  18.098  0.00  0.00    +0.000 A 
ATOM     25  C   UNL     1      -0.167  12.268  19.080  0.00  0.00    +0.000 A 
BRANCH  25  26
ATOM     26  O   UNL     1      -1.259  11.410  19.118  0.00  0.00    +0.000 OA
BRANCH  26  27
ATOM     27  C   UNL     1      -2.064  11.452  17.910  0.00  0.00    +0.000 C 
BRANCH  27  28
ATOM     28  C   UNL     1      -3.563  11.617  18.156  0.00  0.00    +0.000 C 
BRANCH  28  29
ATOM     29  O   UNL     1      -3.827  12.525  19.218  0.00  0.00    +0.000 OA
ATOM     30  H   UNL     1      -4.136  12.002  19.977  0.00  0.00    +0.000 HD
ENDBRANCH  28  29
ENDBRANCH  27  28
ENDBRANCH  26  27
ENDBRANCH  25  26
ENDBRANCH   7  20
BRANCH   6  31
ATOM     31  C   UNL     1      -1.200  13.071  22.082  0.00  0.00    +0.000 C 
ATOM     32  O   UNL     1      -2.360  12.870  21.710  0.00  0.00    +0.000 OA
BRANCH  31  33
ATOM     33  C   UNL     1      -0.791  14.503  22.393  0.00  0.00    +0.000 C 
BRANCH  33  34
ATOM     34  C   UNL     1      -1.782  15.392  23.151  0.00  0.00    +0.000 C 
ATOM     35  C   UNL     1      -1.779  15.132  24.655  0.00  0.00    +0.000 C 
ATOM     36  C   UNL     1      -1.421  16.862  22.905  0.00  0.00    +0.000 C 
ENDBRANCH  33  34
ENDBRANCH  31  33
ENDBRANCH   6  31
TORSDOF 10
ENDMDL
