MODEL 1
REMARK VINA RESULT:      -8.0      0.000      0.000
REMARK  Name = 
REMARK  6 active torsions:
REMARK  status: ('A' for Active; 'I' for Inactive)
REMARK    1  A    between atoms: C_1  and  C_2
REMARK    2  A    between atoms: C_5  and  S_6
REMARK    3  A    between atoms: S_6  and  N_9
REMARK    4  A    between atoms: C_10  and  C_11
REMARK    5  A    between atoms: C_11  and  N_12
REMARK    6  A    between atoms: C_16  and  C_17
REMARK                            x       y       z     vdW  Elec       q    Type
REMARK                         _______ _______ _______ _____ _____    ______ ____
ROOT
ATOM      1  N   UNL     1       1.071   9.509  19.779  0.00  0.00    +0.000 N 
ATOM      2  C   UNL     1       1.648   8.276  20.039  0.00  0.00    +0.000 A 
ATOM      3  N   UNL     1       1.384   7.929  21.295  0.00  0.00    +0.000 NA
ATOM      4  C   UNL     1       0.615   8.934  21.827  0.00  0.00    +0.000 A 
ATOM      5  C   UNL     1       0.062   9.044  23.113  0.00  0.00    +0.000 A 
ATOM      6  C   UNL     1      -0.662  10.194  23.448  0.00  0.00    +0.000 A 
ATOM      7  C   UNL     1      -0.860  11.207  22.513  0.00  0.00    +0.000 A 
ATOM      8  C   UNL     1      -0.357  11.092  21.214  0.00  0.00    +0.000 A 
ATOM      9  C   UNL     1       0.394   9.946  20.902  0.00  0.00    +0.000 A 
ENDROOT
BRANCH   1  10
ATOM     10  S   UNL     1       1.090  10.420  18.355  0.00  0.00    +0.000 S 
ATOM     11  O   UNL     1       1.684   9.535  17.359  0.00  0.00    +0.000 OA
ATOM     12  O   UNL     1       1.674  11.711  18.649  0.00  0.00    +0.000 OA
BRANCH  10  17
ATOM     13  C   UNL     1      -4.846  11.171  17.235  0.00  0.00    +0.000 C 
ATOM     14  C   UNL     1      -3.373  10.997  17.460  0.00  0.00    +0.000 A 
ATOM     15  C   UNL     1      -2.615  12.033  18.036  0.00  0.00    +0.000 A 
ATOM     16  C   UNL     1      -1.246  11.873  18.258  0.00  0.00    +0.000 A 
ATOM     17  C   UNL     1      -0.621  10.671  17.920  0.00  0.00    +0.000 A 
ATOM     18  C   UNL     1      -1.361   9.637  17.330  0.00  0.00    +0.000 A 
ATOM     19  C   UNL     1      -2.729   9.808  17.104  0.00  0.00    +0.000 A 
ENDBRANCH  10  17
ENDBRANCH   1  10
BRANCH   2  20
ATOM     20  C   UNL     1       2.352   7.339  19.080  0.00  0.00    +0.000 C 
BRANCH  20  21
ATOM     21  N   UNL     1       2.757   6.043  19.654  0.00  0.00    +0.000 NA
ATOM     22  C   UNL     1       1.728   4.994  19.658  0.00  0.00    +0.000 C 
ATOM     23  C   UNL     1       1.595   4.081  18.424  0.00  0.00    +0.000 C 
ATOM     24  C   UNL     1       2.894   3.751  17.696  0.00  0.00    +0.000 C 
ATOM     25  C   UNL     1       3.850   4.941  17.649  0.00  0.00    +0.000 C 
ATOM     26  C   UNL     1       5.213   4.507  17.099  0.00  0.00    +0.000 C 
ATOM     27  C   UNL     1       4.007   5.550  19.055  0.00  0.00    +0.000 C 
ENDBRANCH  20  21
ENDBRANCH   2  20
TORSDOF 4
ENDMDL
MODEL 2
REMARK VINA RESULT:      -7.9      1.816      2.725
REMARK  Name = 
REMARK  6 active torsions:
REMARK  status: ('A' for Active; 'I' for Inactive)
REMARK    1  A    between atoms: C_1  and  C_2
REMARK    2  A    between atoms: C_5  and  S_6
REMARK    3  A    between atoms: S_6  and  N_9
REMARK    4  A    between atoms: C_10  and  C_11
REMARK    5  A    between atoms: C_11  and  N_12
REMARK    6  A    between atoms: C_16  and  C_17
REMARK                            x       y       z     vdW  Elec       q    Type
REMARK                         _______ _______ _______ _____ _____    ______ ____
ROOT
ATOM      1  N   UNL     1       0.918   9.446  19.711  0.00  0.00    +0.000 N 
ATOM      2  C   UNL     1       1.614   8.297  20.049  0.00  0.00    +0.000 A 
ATOM      3  N   UNL     1       1.420   8.037  21.339  0.00  0.00    +0.000 NA
ATOM      4  C   UNL     1       0.577   9.010  21.814  0.00  0.00    +0.000 A 
ATOM      5  C   UNL     1       0.054   9.179  23.107  0.00  0.00    +0.000 A 
ATOM      6  C   UNL     1      -0.764  10.284  23.372  0.00  0.00    +0.000 A 
ATOM      7  C   UNL     1      -1.082  11.191  22.364  0.00  0.00    +0.000 A 
ATOM      8  C   UNL     1      -0.609  11.012  21.061  0.00  0.00    +0.000 A 
ATOM      9  C   UNL     1       0.236   9.915  20.818  0.00  0.00    +0.000 A 
ENDROOT
BRANCH   1  10
ATOM     10  S   UNL     1       0.811  10.231  18.216  0.00  0.00    +0.000 S 
ATOM     11  O   UNL     1      -0.543   9.953  17.751  0.00  0.00    +0.000 OA
ATOM     12  O   UNL     1       1.963   9.859  17.425  0.00  0.00    +0.000 OA
BRANCH  10  17
ATOM     13  C   UNL     1       1.253  16.243  19.062  0.00  0.00    +0.000 C 
ATOM     14  C   UNL     1       1.140  14.755  18.907  0.00  0.00    +0.000 A 
ATOM     15  C   UNL     1      -0.089  14.169  18.555  0.00  0.00    +0.000 A 
ATOM     16  C   UNL     1      -0.198  12.786  18.398  0.00  0.00    +0.000 A 
ATOM     17  C   UNL     1       0.924  11.973  18.576  0.00  0.00    +0.000 A 
ATOM     18  C   UNL     1       2.151  12.543  18.943  0.00  0.00    +0.000 A 
ATOM     19  C   UNL     1       2.250  13.927  19.106  0.00  0.00    +0.000 A 
ENDBRANCH  10  17
ENDBRANCH   1  10
BRANCH   2  20
ATOM     20  C   UNL     1       2.374   7.349  19.146  0.00  0.00    +0.000 C 
BRANCH  20  21
ATOM     21  N   UNL     1       2.731   6.055  19.754  0.00  0.00    +0.000 NA
ATOM     22  C   UNL     1       1.683   5.025  19.733  0.00  0.00    +0.000 C 
ATOM     23  C   UNL     1       1.581   4.096  18.507  0.00  0.00    +0.000 C 
ATOM     24  C   UNL     1       2.902   3.732  17.837  0.00  0.00    +0.000 C 
ATOM     25  C   UNL     1       3.881   4.902  17.811  0.00  0.00    +0.000 C 
ATOM     26  C   UNL     1       5.257   4.435  17.322  0.00  0.00    +0.000 C 
ATOM     27  C   UNL     1       3.994   5.530  19.213  0.00  0.00    +0.000 C 
ENDBRANCH  20  21
ENDBRANCH   2  20
TORSDOF 4
ENDMDL
MODEL 3
REMARK VINA RESULT:      -7.4      5.079      8.880
REMARK  Name = 
REMARK  6 active torsions:
REMARK  status: ('A' for Active; 'I' for Inactive)
REMARK    1  A    between atoms: C_1  and  C_2
REMARK    2  A    between atoms: C_5  and  S_6
REMARK    3  A    between atoms: S_6  and  N_9
REMARK    4  A    between atoms: C_10  and  C_11
REMARK    5  A    between atoms: C_11  and  N_12
REMARK    6  A    between atoms: C_16  and  C_17
REMARK                            x       y       z     vdW  Elec       q    Type
REMARK                         _______ _______ _______ _____ _____    ______ ____
ROOT
ATOM      1  N   UNL     1       6.039   4.396  16.877  0.00  0.00    +0.000 N 
ATOM      2  C   UNL     1       4.727   3.951  16.879  0.00  0.00    +0.000 A 
ATOM      3  N   UNL     1       4.312   3.817  15.623  0.00  0.00    +0.000 NA
ATOM      4  C   UNL     1       5.372   4.155  14.820  0.00  0.00    +0.000 A 
ATOM      5  C   UNL     1       5.457   4.167  13.418  0.00  0.00    +0.000 A 
ATOM      6  C   UNL     1       6.644   4.593  12.811  0.00  0.00    +0.000 A 
ATOM      7  C   UNL     1       7.740   4.973  13.581  0.00  0.00    +0.000 A 
ATOM      8  C   UNL     1       7.688   4.923  14.977  0.00  0.00    +0.000 A 
ATOM      9  C   UNL     1       6.480   4.522  15.573  0.00  0.00    +0.000 A 
ENDROOT
BRANCH   1  10
ATOM     10  S   UNL     1       7.057   4.733  18.184  0.00  0.00    +0.000 S 
ATOM     11  O   UNL     1       8.310   4.064  17.857  0.00  0.00    +0.000 OA
ATOM     12  O   UNL     1       6.344   4.427  19.405  0.00  0.00    +0.000 OA
BRANCH  10  17
ATOM     13  C   UNL     1       8.239  10.684  17.687  0.00  0.00    +0.000 C 
ATOM     14  C   UNL     1       7.922   9.228  17.855  0.00  0.00    +0.000 A 
ATOM     15  C   UNL     1       6.849   8.649  17.154  0.00  0.00    +0.000 A 
ATOM     16  C   UNL     1       6.555   7.291  17.298  0.00  0.00    +0.000 A 
ATOM     17  C   UNL     1       7.340   6.493  18.133  0.00  0.00    +0.000 A 
ATOM     18  C   UNL     1       8.402   7.061  18.851  0.00  0.00    +0.000 A 
ATOM     19  C   UNL     1       8.685   8.421  18.707  0.00  0.00    +0.000 A 
ENDBRANCH  10  17
ENDBRANCH   1  10
BRANCH   2  20
ATOM     20  C   UNL     1       3.875   3.521  18.055  0.00  0.00    +0.000 C 
BRANCH  20  21
ATOM     21  N   UNL     1       2.456   3.909  17.976  0.00  0.00    +0.000 NA
ATOM     22  C   UNL     1       1.524   3.104  18.778  0.00  0.00    +0.000 C 
ATOM     23  C   UNL     1       1.259   3.514  20.239  0.00  0.00    +0.000 C 
ATOM     24  C   UNL     1       1.275   5.012  20.524  0.00  0.00    +0.000 C 
ATOM     25  C   UNL     1       2.352   5.742  19.725  0.00  0.00    +0.000 C 
ATOM     26  C   UNL     1       2.196   7.259  19.882  0.00  0.00    +0.000 C 
ATOM     27  C   UNL     1       2.269   5.344  18.239  0.00  0.00    +0.000 C 
ENDBRANCH  20  21
ENDBRANCH   2  20
TORSDOF 4
ENDMDL
MODEL 4
REMARK VINA RESULT:      -7.4      0.858      1.542
REMARK  Name = 
REMARK  6 active torsions:
REMARK  status: ('A' for Active; 'I' for Inactive)
REMARK    1  A    between atoms: C_1  and  C_2
REMARK    2  A    between atoms: C_5  and  S_6
REMARK    3  A    between atoms: S_6  and  N_9
REMARK    4  A    between atoms: C_10  and  C_11
REMARK    5  A    between atoms: C_11  and  N_12
REMARK    6  A    between atoms: C_16  and  C_17
REMARK                            x       y       z     vdW  Elec       q    Type
REMARK                         _______ _______ _______ _____ _____    ______ ____
ROOT
ATOM      1  N   UNL     1       1.114   9.320  19.876  0.00  0.00    +0.000 N 
ATOM      2  C   UNL     1       1.695   8.147  20.332  0.00  0.00    +0.000 A 
ATOM      3  N   UNL     1       1.348   7.958  21.602  0.00  0.00    +0.000 NA
ATOM      4  C   UNL     1       0.524   9.000  21.944  0.00  0.00    +0.000 A 
ATOM      5  C   UNL     1      -0.122   9.259  23.165  0.00  0.00    +0.000 A 
ATOM      6  C   UNL     1      -0.890  10.422  23.296  0.00  0.00    +0.000 A 
ATOM      7  C   UNL     1      -1.041  11.300  22.225  0.00  0.00    +0.000 A 
ATOM      8  C   UNL     1      -0.443  11.033  20.990  0.00  0.00    +0.000 A 
ATOM      9  C   UNL     1       0.350   9.878  20.882  0.00  0.00    +0.000 A 
ENDROOT
BRANCH   1  10
ATOM     10  S   UNL     1       1.218  10.040  18.349  0.00  0.00    +0.000 S 
ATOM     11  O   UNL     1       1.673   8.971  17.468  0.00  0.00    +0.000 OA
ATOM     12  O   UNL     1       1.965  11.272  18.478  0.00  0.00    +0.000 OA
BRANCH  10  17
ATOM     13  C   UNL     1      -4.601  11.390  17.175  0.00  0.00    +0.000 C 
ATOM     14  C   UNL     1      -3.157  11.062  17.413  0.00  0.00    +0.000 A 
ATOM     15  C   UNL     1      -2.272  12.049  17.884  0.00  0.00    +0.000 A 
ATOM     16  C   UNL     1      -0.930  11.748  18.118  0.00  0.00    +0.000 A 
ATOM     17  C   UNL     1      -0.457  10.452  17.896  0.00  0.00    +0.000 A 
ATOM     18  C   UNL     1      -1.324   9.463  17.410  0.00  0.00    +0.000 A 
ATOM     19  C   UNL     1      -2.664   9.775  17.172  0.00  0.00    +0.000 A 
ENDBRANCH  10  17
ENDBRANCH   1  10
BRANCH   2  20
ATOM     20  C   UNL     1       2.483   7.115  19.555  0.00  0.00    +0.000 C 
BRANCH  20  21
ATOM     21  N   UNL     1       1.705   5.957  19.081  0.00  0.00    +0.000 NA
ATOM     22  C   UNL     1       2.242   5.259  17.905  0.00  0.00    +0.000 C 
ATOM     23  C   UNL     1       3.261   4.123  18.119  0.00  0.00    +0.000 C 
ATOM     24  C   UNL     1       3.064   3.279  19.374  0.00  0.00    +0.000 C 
ATOM     25  C   UNL     1       2.611   4.115  20.568  0.00  0.00    +0.000 C 
ATOM     26  C   UNL     1       2.227   3.205  21.740  0.00  0.00    +0.000 C 
ATOM     27  C   UNL     1       1.422   5.009  20.169  0.00  0.00    +0.000 C 
ENDBRANCH  20  21
ENDBRANCH   2  20
TORSDOF 4
ENDMDL
MODEL 5
REMARK VINA RESULT:      -7.3      1.938      3.070
REMARK  Name = 
REMARK  6 active torsions:
REMARK  status: ('A' for Active; 'I' for Inactive)
REMARK    1  A    between atoms: C_1  and  C_2
REMARK    2  A    between atoms: C_5  and  S_6
REMARK    3  A    between atoms: S_6  and  N_9
REMARK    4  A    between atoms: C_10  and  C_11
REMARK    5  A    between atoms: C_11  and  N_12
REMARK    6  A    between atoms: C_16  and  C_17
REMARK                            x       y       z     vdW  Elec       q    Type
REMARK                         _______ _______ _______ _____ _____    ______ ____
ROOT
ATOM      1  N   UNL     1       0.907   9.423  19.848  0.00  0.00    +0.000 N 
ATOM      2  C   UNL     1       1.619   8.345  20.347  0.00  0.00    +0.000 A 
ATOM      3  N   UNL     1       1.356   8.213  21.643  0.00  0.00    +0.000 NA
ATOM      4  C   UNL     1       0.453   9.196  21.963  0.00  0.00    +0.000 A 
ATOM      5  C   UNL     1      -0.153   9.478  23.198  0.00  0.00    +0.000 A 
ATOM      6  C   UNL     1      -1.022  10.571  23.297  0.00  0.00    +0.000 A 
ATOM      7  C   UNL     1      -1.309  11.354  22.182  0.00  0.00    +0.000 A 
ATOM      8  C   UNL     1      -0.751  11.059  20.935  0.00  0.00    +0.000 A 
ATOM      9  C   UNL     1       0.143   9.978  20.858  0.00  0.00    +0.000 A 
ENDROOT
BRANCH   1  10
ATOM     10  S   UNL     1       0.864  10.041  18.275  0.00  0.00    +0.000 S 
ATOM     11  O   UNL     1      -0.469   9.711  17.785  0.00  0.00    +0.000 OA
ATOM     12  O   UNL     1       2.048   9.591  17.577  0.00  0.00    +0.000 OA
BRANCH  10  17
ATOM     13  C   UNL     1       1.143  16.043  19.256  0.00  0.00    +0.000 C 
ATOM     14  C   UNL     1       1.079  14.573  18.962  0.00  0.00    +0.000 A 
ATOM     15  C   UNL     1       2.220  13.766  19.122  0.00  0.00    +0.000 A 
ATOM     16  C   UNL     1       2.164  12.396  18.861  0.00  0.00    +0.000 A 
ATOM     17  C   UNL     1       0.964  11.813  18.450  0.00  0.00    +0.000 A 
ATOM     18  C   UNL     1      -0.177  12.609  18.270  0.00  0.00    +0.000 A 
ATOM     19  C   UNL     1      -0.111  13.980  18.527  0.00  0.00    +0.000 A 
ENDBRANCH  10  17
ENDBRANCH   1  10
BRANCH   2  20
ATOM     20  C   UNL     1       2.464   7.338  19.594  0.00  0.00    +0.000 C 
BRANCH  20  21
ATOM     21  N   UNL     1       1.733   6.167  19.078  0.00  0.00    +0.000 NA
ATOM     22  C   UNL     1       2.338   5.490  17.922  0.00  0.00    +0.000 C 
ATOM     23  C   UNL     1       3.371   4.375  18.175  0.00  0.00    +0.000 C 
ATOM     24  C   UNL     1       3.136   3.517  19.414  0.00  0.00    +0.000 C 
ATOM     25  C   UNL     1       2.611   4.334  20.592  0.00  0.00    +0.000 C 
ATOM     26  C   UNL     1       2.194   3.406  21.739  0.00  0.00    +0.000 C 
ATOM     27  C   UNL     1       1.422   5.205  20.146  0.00  0.00    +0.000 C 
ENDBRANCH  20  21
ENDBRANCH   2  20
TORSDOF 4
ENDMDL
MODEL 6
REMARK VINA RESULT:      -7.2      3.486      7.663
REMARK  Name = 
REMARK  6 active torsions:
REMARK  status: ('A' for Active; 'I' for Inactive)
REMARK    1  A    between atoms: C_1  and  C_2
REMARK    2  A    between atoms: C_5  and  S_6
REMARK    3  A    between atoms: S_6  and  N_9
REMARK    4  A    between atoms: C_10  and  C_11
REMARK    5  A    between atoms: C_11  and  N_12
REMARK    6  A    between atoms: C_16  and  C_17
REMARK                            x       y       z     vdW  Elec       q    Type
REMARK                         _______ _______ _______ _____ _____    ______ ____
ROOT
ATOM      1  N   UNL     1       0.574  12.577  20.308  0.00  0.00    +0.000 N 
ATOM      2  C   UNL     1       0.376  13.064  21.590  0.00  0.00    +0.000 A 
ATOM      3  N   UNL     1       1.314  13.968  21.860  0.00  0.00    +0.000 NA
ATOM      4  C   UNL     1       2.094  14.072  20.737  0.00  0.00    +0.000 A 
ATOM      5  C   UNL     1       3.207  14.897  20.501  0.00  0.00    +0.000 A 
ATOM      6  C   UNL     1       3.879  14.801  19.277  0.00  0.00    +0.000 A 
ATOM      7  C   UNL     1       3.438  13.922  18.290  0.00  0.00    +0.000 A 
ATOM      8  C   UNL     1       2.305  13.129  18.490  0.00  0.00    +0.000 A 
ATOM      9  C   UNL     1       1.659  13.214  19.735  0.00  0.00    +0.000 A 
ENDROOT
BRANCH   1  10
ATOM     10  S   UNL     1      -0.314  11.418  19.456  0.00  0.00    +0.000 S 
ATOM     11  O   UNL     1      -0.525  12.010  18.140  0.00  0.00    +0.000 OA
ATOM     12  O   UNL     1      -1.432  11.007  20.278  0.00  0.00    +0.000 OA
BRANCH  10  17
ATOM     13  C   UNL     1       3.099   6.438  18.671  0.00  0.00    +0.000 C 
ATOM     14  C   UNL     1       2.301   7.691  18.884  0.00  0.00    +0.000 A 
ATOM     15  C   UNL     1       2.054   8.567  17.812  0.00  0.00    +0.000 A 
ATOM     16  C   UNL     1       1.302   9.728  18.002  0.00  0.00    +0.000 A 
ATOM     17  C   UNL     1       0.776  10.020  19.263  0.00  0.00    +0.000 A 
ATOM     18  C   UNL     1       1.028   9.163  20.343  0.00  0.00    +0.000 A 
ATOM     19  C   UNL     1       1.788   8.008  20.147  0.00  0.00    +0.000 A 
ENDBRANCH  10  17
ENDBRANCH   1  10
BRANCH   2  20
ATOM     20  C   UNL     1      -0.768  12.787  22.543  0.00  0.00    +0.000 C 
BRANCH  20  21
ATOM     21  N   UNL     1      -1.766  13.866  22.654  0.00  0.00    +0.000 NA
ATOM     22  C   UNL     1      -2.515  14.177  21.429  0.00  0.00    +0.000 C 
ATOM     23  C   UNL     1      -3.812  13.397  21.135  0.00  0.00    +0.000 C 
ATOM     24  C   UNL     1      -4.641  13.001  22.353  0.00  0.00    +0.000 C 
ATOM     25  C   UNL     1      -3.770  12.589  23.537  0.00  0.00    +0.000 C 
ATOM     26  C   UNL     1      -4.631  12.402  24.792  0.00  0.00    +0.000 C 
ATOM     27  C   UNL     1      -2.679  13.647  23.786  0.00  0.00    +0.000 C 
ENDBRANCH  20  21
ENDBRANCH   2  20
TORSDOF 4
ENDMDL
MODEL 7
REMARK VINA RESULT:      -7.0      4.128      7.703
REMARK  Name = 
REMARK  6 active torsions:
REMARK  status: ('A' for Active; 'I' for Inactive)
REMARK    1  A    between atoms: C_1  and  C_2
REMARK    2  A    between atoms: C_5  and  S_6
REMARK    3  A    between atoms: S_6  and  N_9
REMARK    4  A    between atoms: C_10  and  C_11
REMARK    5  A    between atoms: C_11  and  N_12
REMARK    6  A    between atoms: C_16  and  C_17
REMARK                            x       y       z     vdW  Elec       q    Type
REMARK                         _______ _______ _______ _____ _____    ______ ____
ROOT
ATOM      1  N   UNL     1      -1.793  12.226  21.568  0.00  0.00    +0.000 N 
ATOM      2  C   UNL     1      -2.604  12.163  22.689  0.00  0.00    +0.000 A 
ATOM      3  N   UNL     1      -2.161  11.200  23.491  0.00  0.00    +0.000 NA
ATOM      4  C   UNL     1      -1.050  10.666  22.889  0.00  0.00    +0.000 A 
ATOM      5  C   UNL     1      -0.207   9.634  23.333  0.00  0.00    +0.000 A 
ATOM      6  C   UNL     1       0.856   9.224  22.520  0.00  0.00    +0.000 A 
ATOM      7  C   UNL     1       1.098   9.848  21.299  0.00  0.00    +0.000 A 
ATOM      8  C   UNL     1       0.298  10.908  20.863  0.00  0.00    +0.000 A 
ATOM      9  C   UNL     1      -0.784  11.288  21.676  0.00  0.00    +0.000 A 
ENDROOT
BRANCH   1  10
ATOM     10  S   UNL     1      -1.893  13.257  20.231  0.00  0.00    +0.000 S 
ATOM     11  O   UNL     1      -0.514  13.642  19.959  0.00  0.00    +0.000 OA
ATOM     12  O   UNL     1      -2.907  14.254  20.502  0.00  0.00    +0.000 OA
BRANCH  10  17
ATOM     13  C   UNL     1      -3.859  10.117  15.400  0.00  0.00    +0.000 C 
ATOM     14  C   UNL     1      -3.375  10.846  16.619  0.00  0.00    +0.000 A 
ATOM     15  C   UNL     1      -2.011  11.156  16.767  0.00  0.00    +0.000 A 
ATOM     16  C   UNL     1      -1.556  11.844  17.893  0.00  0.00    +0.000 A 
ATOM     17  C   UNL     1      -2.461  12.242  18.880  0.00  0.00    +0.000 A 
ATOM     18  C   UNL     1      -3.820  11.925  18.753  0.00  0.00    +0.000 A 
ATOM     19  C   UNL     1      -4.266  11.230  17.626  0.00  0.00    +0.000 A 
ENDBRANCH  10  17
ENDBRANCH   1  10
BRANCH   2  20
ATOM     20  C   UNL     1      -3.735  13.085  23.093  0.00  0.00    +0.000 C 
BRANCH  20  21
ATOM     21  N   UNL     1      -5.080  12.484  23.054  0.00  0.00    +0.000 NA
ATOM     22  C   UNL     1      -6.013  12.927  24.099  0.00  0.00    +0.000 C 
ATOM     23  C   UNL     1      -6.877  14.177  23.839  0.00  0.00    +0.000 C 
ATOM     24  C   UNL     1      -7.327  14.387  22.397  0.00  0.00    +0.000 C 
ATOM     25  C   UNL     1      -6.246  14.001  21.391  0.00  0.00    +0.000 C 
ATOM     26  C   UNL     1      -6.811  14.029  19.966  0.00  0.00    +0.000 C 
ATOM     27  C   UNL     1      -5.690  12.603  21.721  0.00  0.00    +0.000 C 
ENDBRANCH  20  21
ENDBRANCH   2  20
TORSDOF 4
ENDMDL
MODEL 8
REMARK VINA RESULT:      -7.0      2.768      7.834
REMARK  Name = 
REMARK  6 active torsions:
REMARK  status: ('A' for Active; 'I' for Inactive)
REMARK    1  A    between atoms: C_1  and  C_2
REMARK    2  A    between atoms: C_5  and  S_6
REMARK    3  A    between atoms: S_6  and  N_9
REMARK    4  A    between atoms: C_10  and  C_11
REMARK    5  A    between atoms: C_11  and  N_12
REMARK    6  A    between atoms: C_16  and  C_17
REMARK                            x       y       z     vdW  Elec       q    Type
REMARK                         _______ _______ _______ _____ _____    ______ ____
ROOT
ATOM      1  N   UNL     1      -1.146  12.082  19.294  0.00  0.00    +0.000 N 
ATOM      2  C   UNL     1      -2.086  12.800  20.015  0.00  0.00    +0.000 A 
ATOM      3  N   UNL     1      -3.303  12.467  19.594  0.00  0.00    +0.000 NA
ATOM      4  C   UNL     1      -3.134  11.516  18.619  0.00  0.00    +0.000 A 
ATOM      5  C   UNL     1      -4.104  10.831  17.869  0.00  0.00    +0.000 A 
ATOM      6  C   UNL     1      -3.691   9.922  16.888  0.00  0.00    +0.000 A 
ATOM      7  C   UNL     1      -2.337   9.674  16.674  0.00  0.00    +0.000 A 
ATOM      8  C   UNL     1      -1.361  10.312  17.444  0.00  0.00    +0.000 A 
ATOM      9  C   UNL     1      -1.790  11.244  18.404  0.00  0.00    +0.000 A 
ENDROOT
BRANCH   1  10
ATOM     10  S   UNL     1       0.541  12.109  19.412  0.00  0.00    +0.000 S 
ATOM     11  O   UNL     1       0.808  12.585  20.764  0.00  0.00    +0.000 OA
ATOM     12  O   UNL     1       1.066  12.806  18.258  0.00  0.00    +0.000 OA
BRANCH  10  17
ATOM     13  C   UNL     1       2.641   6.397  19.260  0.00  0.00    +0.000 C 
ATOM     14  C   UNL     1       2.081   7.789  19.270  0.00  0.00    +0.000 A 
ATOM     15  C   UNL     1       1.395   8.271  20.400  0.00  0.00    +0.000 A 
ATOM     16  C   UNL     1       0.882   9.569  20.419  0.00  0.00    +0.000 A 
ATOM     17  C   UNL     1       1.059  10.406  19.314  0.00  0.00    +0.000 A 
ATOM     18  C   UNL     1       1.725   9.931  18.176  0.00  0.00    +0.000 A 
ATOM     19  C   UNL     1       2.230   8.629  18.162  0.00  0.00    +0.000 A 
ENDBRANCH  10  17
ENDBRANCH   1  10
BRANCH   2  20
ATOM     20  C   UNL     1      -1.872  13.719  21.199  0.00  0.00    +0.000 C 
BRANCH  20  21
ATOM     21  N   UNL     1      -1.771  13.045  22.506  0.00  0.00    +0.000 NA
ATOM     22  C   UNL     1      -1.107  13.808  23.573  0.00  0.00    +0.000 C 
ATOM     23  C   UNL     1      -1.956  14.751  24.447  0.00  0.00    +0.000 C 
ATOM     24  C   UNL     1      -3.383  14.292  24.731  0.00  0.00    +0.000 C 
ATOM     25  C   UNL     1      -4.023  13.610  23.525  0.00  0.00    +0.000 C 
ATOM     26  C   UNL     1      -5.366  12.984  23.917  0.00  0.00    +0.000 C 
ATOM     27  C   UNL     1      -3.075  12.536  22.959  0.00  0.00    +0.000 C 
ENDBRANCH  20  21
ENDBRANCH   2  20
TORSDOF 4
ENDMDL
MODEL 9
REMARK VINA RESULT:      -6.9      4.125      7.147
REMARK  Name = 
REMARK  6 active torsions:
REMARK  status: ('A' for Active; 'I' for Inactive)
REMARK    1  A    between atoms: C_1  and  C_2
REMARK    2  A    between atoms: C_5  and  S_6
REMARK    3  A    between atoms: S_6  and  N_9
REMARK    4  A    between atoms: C_10  and  C_11
REMARK    5  A    between atoms: C_11  and  N_12
REMARK    6  A    between atoms: C_16  and  C_17
REMARK                            x       y       z     vdW  Elec       q    Type
REMARK                         _______ _______ _______ _____ _____    ______ ____
ROOT
ATOM      1  N   UNL     1       0.592  12.196  20.549  0.00  0.00    +0.000 N 
ATOM      2  C   UNL     1       0.173  13.024  21.577  0.00  0.00    +0.000 A 
ATOM      3  N   UNL     1       0.791  14.196  21.469  0.00  0.00    +0.000 NA
ATOM      4  C   UNL     1       1.586  14.120  20.353  0.00  0.00    +0.000 A 
ATOM      5  C   UNL     1       2.429  15.094  19.794  0.00  0.00    +0.000 A 
ATOM      6  C   UNL     1       3.185  14.773  18.660  0.00  0.00    +0.000 A 
ATOM      7  C   UNL     1       3.084  13.515  18.072  0.00  0.00    +0.000 A 
ATOM      8  C   UNL     1       2.214  12.550  18.587  0.00  0.00    +0.000 A 
ATOM      9  C   UNL     1       1.485  12.876  19.743  0.00  0.00    +0.000 A 
ENDROOT
BRANCH   1  10
ATOM     10  S   UNL     1       0.134  10.605  20.203  0.00  0.00    +0.000 S 
ATOM     11  O   UNL     1      -0.602  10.169  21.384  0.00  0.00    +0.000 OA
ATOM     12  O   UNL     1       1.302   9.886  19.744  0.00  0.00    +0.000 OA
BRANCH  10  17
ATOM     13  C   UNL     1      -4.039  10.758  15.774  0.00  0.00    +0.000 C 
ATOM     14  C   UNL     1      -2.978  10.749  16.835  0.00  0.00    +0.000 A 
ATOM     15  C   UNL     1      -3.046  11.646  17.916  0.00  0.00    +0.000 A 
ATOM     16  C   UNL     1      -2.068  11.635  18.912  0.00  0.00    +0.000 A 
ATOM     17  C   UNL     1      -1.017  10.717  18.847  0.00  0.00    +0.000 A 
ATOM     18  C   UNL     1      -0.928   9.829  17.766  0.00  0.00    +0.000 A 
ATOM     19  C   UNL     1      -1.907   9.851  16.769  0.00  0.00    +0.000 A 
ENDBRANCH  10  17
ENDBRANCH   1  10
BRANCH   2  20
ATOM     20  C   UNL     1      -0.907  12.781  22.610  0.00  0.00    +0.000 C 
BRANCH  20  21
ATOM     21  N   UNL     1      -1.903  13.859  22.742  0.00  0.00    +0.000 NA
ATOM     22  C   UNL     1      -2.675  14.171  21.531  0.00  0.00    +0.000 C 
ATOM     23  C   UNL     1      -3.976  13.392  21.259  0.00  0.00    +0.000 C 
ATOM     24  C   UNL     1      -4.783  12.993  22.491  0.00  0.00    +0.000 C 
ATOM     25  C   UNL     1      -3.891  12.579  23.659  0.00  0.00    +0.000 C 
ATOM     26  C   UNL     1      -4.729  12.391  24.928  0.00  0.00    +0.000 C 
ATOM     27  C   UNL     1      -2.795  13.638  23.890  0.00  0.00    +0.000 C 
ENDBRANCH  20  21
ENDBRANCH   2  20
TORSDOF 4
ENDMDL
