MODEL 1
REMARK VINA RESULT:      -7.5      0.000      0.000
REMARK  Name = 
REMARK  5 active torsions:
REMARK  status: ('A' for Active; 'I' for Inactive)
REMARK    1  A    between atoms: C_1  and  N_2
REMARK    2  A    between atoms: N_2  and  C_14
REMARK    3  A    between atoms: C_3  and  C_5
REMARK    4  A    between atoms: C_14  and  C_15
REMARK    5  A    between atoms: N_17  and  C_18
REMARK                            x       y       z     vdW  Elec       q    Type
REMARK                         _______ _______ _______ _____ _____    ______ ____
ROOT
ATOM      1  C   UNL     1       3.166   3.713  18.827  0.00  0.00    +0.000 C 
ATOM      2  C   UNL     1       3.390   3.335  20.320  0.00  0.00    +0.000 C 
ATOM      3  C   UNL     1       2.070   3.039  21.040  0.00  0.00    +0.000 C 
ATOM      4  C   UNL     1       1.377   1.832  20.422  0.00  0.00    +0.000 C 
ATOM      5  C   UNL     1       1.155   2.029  18.931  0.00  0.00    +0.000 C 
ATOM      6  C   UNL     1       2.428   2.466  18.208  0.00  0.00    +0.000 C 
ENDROOT
BRANCH   1   8
ATOM      7  C   UNL     1       1.399   5.049  17.587  0.00  0.00    +0.000 C 
ATOM      8  N   UNL     1       2.423   5.024  18.634  0.00  0.00    +0.000 N 
ATOM      9  C   UNL     1       2.959   6.217  19.172  0.00  0.00    +0.000 C 
ATOM     10  O   UNL     1       4.030   6.229  19.787  0.00  0.00    +0.000 OA
BRANCH   9  11
ATOM     11  C   UNL     1       2.350   7.563  18.962  0.00  0.00    +0.000 A 
ATOM     12  C   UNL     1       2.516   8.327  17.786  0.00  0.00    +0.000 A 
ATOM     13  C   UNL     1       2.045   9.645  17.720  0.00  0.00    +0.000 A 
ATOM     14  C   UNL     1       1.338  10.134  18.797  0.00  0.00    +0.000 A 
ATOM     15  C   UNL     1       1.078   9.359  19.900  0.00  0.00    +0.000 A 
ATOM     16  C   UNL     1       1.569   8.077  20.012  0.00  0.00    +0.000 A 
ATOM     17  O   UNL     1       0.329  10.008  20.829  0.00  0.00    +0.000 OA
ATOM     18  C   UNL     1       0.165  11.294  20.195  0.00  0.00    +0.000 C 
ATOM     19  O   UNL     1       0.817  11.384  18.910  0.00  0.00    +0.000 OA
ENDBRANCH   9  11
ENDBRANCH   1   8
BRANCH   1  20
ATOM     20  C   UNL     1       4.528   3.839  18.038  0.00  0.00    +0.000 C 
ATOM     21  O   UNL     1       5.620   3.804  18.607  0.00  0.00    +0.000 OA
ATOM     22  N   UNL     1       4.445   3.953  16.666  0.00  0.00    +0.000 N 
ATOM     23  H   UNL     1       3.531   3.793  16.238  0.00  0.00    +0.000 HD
BRANCH  22  24
ATOM     24  C   UNL     1       5.627   3.989  15.829  0.00  0.00    +0.000 C 
ATOM     25  C   UNL     1       5.371   3.665  14.358  0.00  0.00    +0.000 C 
ATOM     26  C   UNL     1       6.628   4.175  13.655  0.00  0.00    +0.000 C 
ATOM     27  C   UNL     1       7.169   5.307  14.530  0.00  0.00    +0.000 C 
ATOM     28  C   UNL     1       6.253   5.377  15.749  0.00  0.00    +0.000 C 
ENDBRANCH  22  24
ENDBRANCH   1  20
TORSDOF 4
ENDMDL
MODEL 2
REMARK VINA RESULT:      -7.3      1.344      2.071
REMARK  Name = 
REMARK  5 active torsions:
REMARK  status: ('A' for Active; 'I' for Inactive)
REMARK    1  A    between atoms: C_1  and  N_2
REMARK    2  A    between atoms: N_2  and  C_14
REMARK    3  A    between atoms: C_3  and  C_5
REMARK    4  A    between atoms: C_14  and  C_15
REMARK    5  A    between atoms: N_17  and  C_18
REMARK                            x       y       z     vdW  Elec       q    Type
REMARK                         _______ _______ _______ _____ _____    ______ ____
ROOT
ATOM      1  C   UNL     1       3.886   4.131  17.722  0.00  0.00    +0.000 C 
ATOM      2  C   UNL     1       4.951   3.678  18.763  0.00  0.00    +0.000 C 
ATOM      3  C   UNL     1       4.332   2.838  19.886  0.00  0.00    +0.000 C 
ATOM      4  C   UNL     1       3.740   1.549  19.333  0.00  0.00    +0.000 C 
ATOM      5  C   UNL     1       2.722   1.836  18.239  0.00  0.00    +0.000 C 
ATOM      6  C   UNL     1       3.267   2.789  17.177  0.00  0.00    +0.000 C 
ENDROOT
BRANCH   1   8
ATOM      7  C   UNL     1       1.533   5.080  17.659  0.00  0.00    +0.000 C 
ATOM      8  N   UNL     1       2.858   5.099  18.283  0.00  0.00    +0.000 N 
ATOM      9  C   UNL     1       3.283   6.185  19.083  0.00  0.00    +0.000 C 
ATOM     10  O   UNL     1       4.476   6.381  19.332  0.00  0.00    +0.000 OA
BRANCH   9  11
ATOM     11  C   UNL     1       2.361   7.234  19.606  0.00  0.00    +0.000 A 
ATOM     12  C   UNL     1       1.719   7.163  20.863  0.00  0.00    +0.000 A 
ATOM     13  C   UNL     1       0.748   8.107  21.222  0.00  0.00    +0.000 A 
ATOM     14  C   UNL     1       0.510   9.151  20.355  0.00  0.00    +0.000 A 
ATOM     15  C   UNL     1       1.209   9.288  19.182  0.00  0.00    +0.000 A 
ATOM     16  C   UNL     1       2.135   8.351  18.782  0.00  0.00    +0.000 A 
ATOM     17  O   UNL     1       0.860  10.406  18.494  0.00  0.00    +0.000 OA
ATOM     18  C   UNL     1      -0.160  10.949  19.358  0.00  0.00    +0.000 C 
ATOM     19  O   UNL     1      -0.397  10.148  20.536  0.00  0.00    +0.000 OA
ENDBRANCH   9  11
ENDBRANCH   1   8
BRANCH   1  20
ATOM     20  C   UNL     1       4.544   4.838  16.473  0.00  0.00    +0.000 C 
ATOM     21  O   UNL     1       4.672   6.062  16.405  0.00  0.00    +0.000 OA
ATOM     22  N   UNL     1       5.012   4.018  15.467  0.00  0.00    +0.000 N 
ATOM     23  H   UNL     1       5.045   3.015  15.659  0.00  0.00    +0.000 HD
BRANCH  22  24
ATOM     24  C   UNL     1       5.711   4.546  14.313  0.00  0.00    +0.000 C 
ATOM     25  C   UNL     1       7.179   4.887  14.564  0.00  0.00    +0.000 C 
ATOM     26  C   UNL     1       7.766   5.001  13.158  0.00  0.00    +0.000 C 
ATOM     27  C   UNL     1       6.905   4.100  12.270  0.00  0.00    +0.000 C 
ATOM     28  C   UNL     1       5.804   3.543  13.169  0.00  0.00    +0.000 C 
ENDBRANCH  22  24
ENDBRANCH   1  20
TORSDOF 4
ENDMDL
MODEL 3
REMARK VINA RESULT:      -7.2      1.496      1.976
REMARK  Name = 
REMARK  5 active torsions:
REMARK  status: ('A' for Active; 'I' for Inactive)
REMARK    1  A    between atoms: C_1  and  N_2
REMARK    2  A    between atoms: N_2  and  C_14
REMARK    3  A    between atoms: C_3  and  C_5
REMARK    4  A    between atoms: C_14  and  C_15
REMARK    5  A    between atoms: N_17  and  C_18
REMARK                            x       y       z     vdW  Elec       q    Type
REMARK                         _______ _______ _______ _____ _____    ______ ____
ROOT
ATOM      1  C   UNL     1       4.081   4.320  17.536  0.00  0.00    +0.000 C 
ATOM      2  C   UNL     1       5.175   4.030  18.604  0.00  0.00    +0.000 C 
ATOM      3  C   UNL     1       4.611   3.264  19.807  0.00  0.00    +0.000 C 
ATOM      4  C   UNL     1       4.094   1.896  19.382  0.00  0.00    +0.000 C 
ATOM      5  C   UNL     1       3.058   2.018  18.276  0.00  0.00    +0.000 C 
ATOM      6  C   UNL     1       3.541   2.898  17.124  0.00  0.00    +0.000 C 
ENDROOT
BRANCH   1   8
ATOM      7  C   UNL     1       1.634   4.992  17.563  0.00  0.00    +0.000 C 
ATOM      8  N   UNL     1       2.999   5.273  18.013  0.00  0.00    +0.000 N 
ATOM      9  C   UNL     1       3.361   6.540  18.530  0.00  0.00    +0.000 C 
ATOM     10  O   UNL     1       4.539   6.903  18.594  0.00  0.00    +0.000 OA
BRANCH   9  11
ATOM     11  C   UNL     1       2.370   7.576  18.942  0.00  0.00    +0.000 A 
ATOM     12  C   UNL     1       1.858   8.565  18.073  0.00  0.00    +0.000 A 
ATOM     13  C   UNL     1       1.051   9.598  18.566  0.00  0.00    +0.000 A 
ATOM     14  C   UNL     1       0.699   9.565  19.898  0.00  0.00    +0.000 A 
ATOM     15  C   UNL     1       1.103   8.545  20.724  0.00  0.00    +0.000 A 
ATOM     16  C   UNL     1       1.934   7.543  20.278  0.00  0.00    +0.000 A 
ATOM     17  O   UNL     1       0.612   8.671  21.985  0.00  0.00    +0.000 OA
ATOM     18  C   UNL     1      -0.129   9.903  21.866  0.00  0.00    +0.000 C 
ATOM     19  O   UNL     1      -0.065  10.483  20.545  0.00  0.00    +0.000 OA
ENDBRANCH   9  11
ENDBRANCH   1   8
BRANCH   1  20
ATOM     20  C   UNL     1       4.692   4.944  16.219  0.00  0.00    +0.000 C 
ATOM     21  O   UNL     1       4.806   6.160  16.064  0.00  0.00    +0.000 OA
ATOM     22  N   UNL     1       5.134   4.059  15.257  0.00  0.00    +0.000 N 
ATOM     23  H   UNL     1       5.182   3.072  15.516  0.00  0.00    +0.000 HD
BRANCH  22  24
ATOM     24  C   UNL     1       5.790   4.511  14.047  0.00  0.00    +0.000 C 
ATOM     25  C   UNL     1       7.252   4.915  14.234  0.00  0.00    +0.000 C 
ATOM     26  C   UNL     1       7.803   4.931  12.809  0.00  0.00    +0.000 C 
ATOM     27  C   UNL     1       6.952   3.935  12.018  0.00  0.00    +0.000 C 
ATOM     28  C   UNL     1       5.889   3.421  12.986  0.00  0.00    +0.000 C 
ENDBRANCH  22  24
ENDBRANCH   1  20
TORSDOF 4
ENDMDL
MODEL 4
REMARK VINA RESULT:      -7.0      1.027      1.646
REMARK  Name = 
REMARK  5 active torsions:
REMARK  status: ('A' for Active; 'I' for Inactive)
REMARK    1  A    between atoms: C_1  and  N_2
REMARK    2  A    between atoms: N_2  and  C_14
REMARK    3  A    between atoms: C_3  and  C_5
REMARK    4  A    between atoms: C_14  and  C_15
REMARK    5  A    between atoms: N_17  and  C_18
REMARK                            x       y       z     vdW  Elec       q    Type
REMARK                         _______ _______ _______ _____ _____    ______ ____
ROOT
ATOM      1  C   UNL     1       3.141   3.885  19.202  0.00  0.00    +0.000 C 
ATOM      2  C   UNL     1       3.195   2.691  20.198  0.00  0.00    +0.000 C 
ATOM      3  C   UNL     1       1.805   2.327  20.732  0.00  0.00    +0.000 C 
ATOM      4  C   UNL     1       0.898   1.862  19.601  0.00  0.00    +0.000 C 
ATOM      5  C   UNL     1       0.806   2.910  18.503  0.00  0.00    +0.000 C 
ATOM      6  C   UNL     1       2.181   3.398  18.051  0.00  0.00    +0.000 C 
ENDROOT
BRANCH   1   8
ATOM      7  C   UNL     1       2.216   5.121  21.217  0.00  0.00    +0.000 C 
ATOM      8  N   UNL     1       2.716   5.195  19.842  0.00  0.00    +0.000 N 
ATOM      9  C   UNL     1       2.471   6.325  19.027  0.00  0.00    +0.000 C 
ATOM     10  O   UNL     1       2.579   6.276  17.799  0.00  0.00    +0.000 OA
BRANCH   9  11
ATOM     11  C   UNL     1       1.969   7.628  19.553  0.00  0.00    +0.000 A 
ATOM     12  C   UNL     1       1.591   7.841  20.897  0.00  0.00    +0.000 A 
ATOM     13  C   UNL     1       0.983   9.043  21.284  0.00  0.00    +0.000 A 
ATOM     14  C   UNL     1       0.853  10.036  20.339  0.00  0.00    +0.000 A 
ATOM     15  C   UNL     1       1.319   9.876  19.057  0.00  0.00    +0.000 A 
ATOM     16  C   UNL     1       1.877   8.690  18.636  0.00  0.00    +0.000 A 
ATOM     17  O   UNL     1       1.137  10.986  18.294  0.00  0.00    +0.000 OA
ATOM     18  C   UNL     1       0.481  11.859  19.237  0.00  0.00    +0.000 C 
ATOM     19  O   UNL     1       0.285  11.255  20.534  0.00  0.00    +0.000 OA
ENDBRANCH   9  11
ENDBRANCH   1   8
BRANCH   1  20
ATOM     20  C   UNL     1       4.538   4.145  18.513  0.00  0.00    +0.000 C 
ATOM     21  O   UNL     1       5.575   4.276  19.165  0.00  0.00    +0.000 OA
ATOM     22  N   UNL     1       4.557   4.178  17.134  0.00  0.00    +0.000 N 
ATOM     23  H   UNL     1       3.708   3.883  16.648  0.00  0.00    +0.000 HD
BRANCH  22  24
ATOM     24  C   UNL     1       5.791   4.323  16.390  0.00  0.00    +0.000 C 
ATOM     25  C   UNL     1       5.758   3.718  14.987  0.00  0.00    +0.000 C 
ATOM     26  C   UNL     1       6.961   4.356  14.293  0.00  0.00    +0.000 C 
ATOM     27  C   UNL     1       7.178   5.704  14.985  0.00  0.00    +0.000 C 
ATOM     28  C   UNL     1       6.142   5.779  16.104  0.00  0.00    +0.000 C 
ENDBRANCH  22  24
ENDBRANCH   1  20
TORSDOF 4
ENDMDL
MODEL 5
REMARK VINA RESULT:      -7.0      2.086      7.006
REMARK  Name = 
REMARK  5 active torsions:
REMARK  status: ('A' for Active; 'I' for Inactive)
REMARK    1  A    between atoms: C_1  and  N_2
REMARK    2  A    between atoms: N_2  and  C_14
REMARK    3  A    between atoms: C_3  and  C_5
REMARK    4  A    between atoms: C_14  and  C_15
REMARK    5  A    between atoms: N_17  and  C_18
REMARK                            x       y       z     vdW  Elec       q    Type
REMARK                         _______ _______ _______ _____ _____    ______ ____
ROOT
ATOM      1  C   UNL     1       2.036   5.305  19.999  0.00  0.00    +0.000 C 
ATOM      2  C   UNL     1       0.642   4.619  19.922  0.00  0.00    +0.000 C 
ATOM      3  C   UNL     1       0.753   3.090  19.960  0.00  0.00    +0.000 C 
ATOM      4  C   UNL     1       1.355   2.625  21.279  0.00  0.00    +0.000 C 
ATOM      5  C   UNL     1       2.706   3.278  21.527  0.00  0.00    +0.000 C 
ATOM      6  C   UNL     1       2.656   4.796  21.355  0.00  0.00    +0.000 C 
ENDROOT
BRANCH   1   8
ATOM      7  C   UNL     1       2.309   4.270  17.697  0.00  0.00    +0.000 C 
ATOM      8  N   UNL     1       2.913   5.042  18.786  0.00  0.00    +0.000 N 
ATOM      9  C   UNL     1       4.314   5.207  18.886  0.00  0.00    +0.000 C 
ATOM     10  O   UNL     1       4.854   5.548  19.942  0.00  0.00    +0.000 OA
BRANCH   9  11
ATOM     11  C   UNL     1       5.263   4.890  17.780  0.00  0.00    +0.000 A 
ATOM     12  C   UNL     1       6.661   4.779  17.949  0.00  0.00    +0.000 A 
ATOM     13  C   UNL     1       7.504   4.634  16.839  0.00  0.00    +0.000 A 
ATOM     14  C   UNL     1       6.922   4.510  15.597  0.00  0.00    +0.000 A 
ATOM     15  C   UNL     1       5.559   4.506  15.437  0.00  0.00    +0.000 A 
ATOM     16  C   UNL     1       4.708   4.694  16.503  0.00  0.00    +0.000 A 
ATOM     17  O   UNL     1       5.186   4.325  14.143  0.00  0.00    +0.000 OA
ATOM     18  C   UNL     1       6.474   4.239  13.499  0.00  0.00    +0.000 C 
ATOM     19  O   UNL     1       7.581   4.370  14.417  0.00  0.00    +0.000 OA
ENDBRANCH   9  11
ENDBRANCH   1   8
BRANCH   1  20
ATOM     20  C   UNL     1       1.917   6.873  20.144  0.00  0.00    +0.000 C 
ATOM     21  O   UNL     1       2.351   7.645  19.288  0.00  0.00    +0.000 OA
ATOM     22  N   UNL     1       1.263   7.347  21.262  0.00  0.00    +0.000 N 
ATOM     23  H   UNL     1       0.768   6.664  21.839  0.00  0.00    +0.000 HD
BRANCH  22  24
ATOM     24  C   UNL     1       1.017   8.760  21.462  0.00  0.00    +0.000 C 
ATOM     25  C   UNL     1       0.149   9.409  20.384  0.00  0.00    +0.000 C 
ATOM     26  C   UNL     1      -0.299  10.721  21.027  0.00  0.00    +0.000 C 
ATOM     27  C   UNL     1      -0.293  10.473  22.537  0.00  0.00    +0.000 C 
ATOM     28  C   UNL     1       0.224   9.049  22.731  0.00  0.00    +0.000 C 
ENDBRANCH  22  24
ENDBRANCH   1  20
TORSDOF 4
ENDMDL
MODEL 6
REMARK VINA RESULT:      -6.9      1.167      1.280
REMARK  Name = 
REMARK  5 active torsions:
REMARK  status: ('A' for Active; 'I' for Inactive)
REMARK    1  A    between atoms: C_1  and  N_2
REMARK    2  A    between atoms: N_2  and  C_14
REMARK    3  A    between atoms: C_3  and  C_5
REMARK    4  A    between atoms: C_14  and  C_15
REMARK    5  A    between atoms: N_17  and  C_18
REMARK                            x       y       z     vdW  Elec       q    Type
REMARK                         _______ _______ _______ _____ _____    ______ ____
ROOT
ATOM      1  C   UNL     1       3.863   3.893  17.931  0.00  0.00    +0.000 C 
ATOM      2  C   UNL     1       4.803   3.617  19.139  0.00  0.00    +0.000 C 
ATOM      3  C   UNL     1       4.035   3.079  20.352  0.00  0.00    +0.000 C 
ATOM      4  C   UNL     1       3.392   1.736  20.030  0.00  0.00    +0.000 C 
ATOM      5  C   UNL     1       2.489   1.836  18.811  0.00  0.00    +0.000 C 
ATOM      6  C   UNL     1       3.188   2.503  17.627  0.00  0.00    +0.000 C 
ENDROOT
BRANCH   1   8
ATOM      7  C   UNL     1       1.554   4.876  17.548  0.00  0.00    +0.000 C 
ATOM      8  N   UNL     1       2.870   5.017  18.175  0.00  0.00    +0.000 N 
ATOM      9  C   UNL     1       3.331   6.267  18.652  0.00  0.00    +0.000 C 
ATOM     10  O   UNL     1       4.528   6.479  18.865  0.00  0.00    +0.000 OA
BRANCH   9  11
ATOM     11  C   UNL     1       2.448   7.455  18.840  0.00  0.00    +0.000 A 
ATOM     12  C   UNL     1       2.146   8.380  17.817  0.00  0.00    +0.000 A 
ATOM     13  C   UNL     1       1.437   9.554  18.104  0.00  0.00    +0.000 A 
ATOM     14  C   UNL     1       0.968   9.728  19.388  0.00  0.00    +0.000 A 
ATOM     15  C   UNL     1       1.164   8.781  20.361  0.00  0.00    +0.000 A 
ATOM     16  C   UNL     1       1.896   7.640  20.120  0.00  0.00    +0.000 A 
ATOM     17  O   UNL     1       0.585   9.119  21.543  0.00  0.00    +0.000 OA
ATOM     18  C   UNL     1       0.020  10.404  21.209  0.00  0.00    +0.000 C 
ATOM     19  O   UNL     1       0.273  10.803  19.845  0.00  0.00    +0.000 OA
ENDBRANCH   9  11
ENDBRANCH   1   8
BRANCH   1  20
ATOM     20  C   UNL     1       4.670   4.273  16.628  0.00  0.00    +0.000 C 
ATOM     21  O   UNL     1       4.547   5.368  16.077  0.00  0.00    +0.000 OA
ATOM     22  N   UNL     1       5.557   3.332  16.148  0.00  0.00    +0.000 N 
ATOM     23  H   UNL     1       5.749   2.524  16.744  0.00  0.00    +0.000 HD
BRANCH  22  24
ATOM     24  C   UNL     1       6.415   3.599  15.012  0.00  0.00    +0.000 C 
ATOM     25  C   UNL     1       5.682   3.685  13.674  0.00  0.00    +0.000 C 
ATOM     26  C   UNL     1       6.692   4.372  12.756  0.00  0.00    +0.000 C 
ATOM     27  C   UNL     1       7.575   5.226  13.668  0.00  0.00    +0.000 C 
ATOM     28  C   UNL     1       7.098   4.959  15.093  0.00  0.00    +0.000 C 
ENDBRANCH  22  24
ENDBRANCH   1  20
TORSDOF 4
ENDMDL
MODEL 7
REMARK VINA RESULT:      -6.7      1.575      2.407
REMARK  Name = 
REMARK  5 active torsions:
REMARK  status: ('A' for Active; 'I' for Inactive)
REMARK    1  A    between atoms: C_1  and  N_2
REMARK    2  A    between atoms: N_2  and  C_14
REMARK    3  A    between atoms: C_3  and  C_5
REMARK    4  A    between atoms: C_14  and  C_15
REMARK    5  A    between atoms: N_17  and  C_18
REMARK                            x       y       z     vdW  Elec       q    Type
REMARK                         _______ _______ _______ _____ _____    ______ ____
ROOT
ATOM      1  C   UNL     1       4.164   4.460  17.529  0.00  0.00    +0.000 C 
ATOM      2  C   UNL     1       5.139   3.458  18.211  0.00  0.00    +0.000 C 
ATOM      3  C   UNL     1       4.491   2.751  19.406  0.00  0.00    +0.000 C 
ATOM      4  C   UNL     1       3.304   1.910  18.956  0.00  0.00    +0.000 C 
ATOM      5  C   UNL     1       2.287   2.752  18.201  0.00  0.00    +0.000 C 
ATOM      6  C   UNL     1       2.932   3.581  17.091  0.00  0.00    +0.000 C 
ENDROOT
BRANCH   1   8
ATOM      7  C   UNL     1       4.659   5.901  19.560  0.00  0.00    +0.000 C 
ATOM      8  N   UNL     1       3.792   5.643  18.407  0.00  0.00    +0.000 N 
ATOM      9  C   UNL     1       2.494   6.199  18.320  0.00  0.00    +0.000 C 
ATOM     10  O   UNL     1       1.641   5.741  17.555  0.00  0.00    +0.000 OA
BRANCH   9  11
ATOM     11  C   UNL     1       2.009   7.302  19.199  0.00  0.00    +0.000 A 
ATOM     12  C   UNL     1       1.687   7.137  20.565  0.00  0.00    +0.000 A 
ATOM     13  C   UNL     1       1.091   8.179  21.287  0.00  0.00    +0.000 A 
ATOM     14  C   UNL     1       0.917   9.389  20.653  0.00  0.00    +0.000 A 
ATOM     15  C   UNL     1       1.330   9.591  19.360  0.00  0.00    +0.000 A 
ATOM     16  C   UNL     1       1.875   8.572  18.610  0.00  0.00    +0.000 A 
ATOM     17  O   UNL     1       1.113  10.863  18.935  0.00  0.00    +0.000 OA
ATOM     18  C   UNL     1       0.493  11.437  20.104  0.00  0.00    +0.000 C 
ATOM     19  O   UNL     1       0.353  10.501  21.194  0.00  0.00    +0.000 OA
ENDBRANCH   9  11
ENDBRANCH   1   8
BRANCH   1  20
ATOM     20  C   UNL     1       4.763   5.054  16.194  0.00  0.00    +0.000 C 
ATOM     21  O   UNL     1       4.883   6.266  16.012  0.00  0.00    +0.000 OA
ATOM     22  N   UNL     1       5.188   4.148  15.245  0.00  0.00    +0.000 N 
ATOM     23  H   UNL     1       5.232   3.165  15.523  0.00  0.00    +0.000 HD
BRANCH  22  24
ATOM     24  C   UNL     1       5.832   4.571  14.019  0.00  0.00    +0.000 C 
ATOM     25  C   UNL     1       7.302   4.958  14.178  0.00  0.00    +0.000 C 
ATOM     26  C   UNL     1       7.833   4.943  12.745  0.00  0.00    +0.000 C 
ATOM     27  C   UNL     1       6.958   3.945  11.983  0.00  0.00    +0.000 C 
ATOM     28  C   UNL     1       5.902   3.462  12.974  0.00  0.00    +0.000 C 
ENDBRANCH  22  24
ENDBRANCH   1  20
TORSDOF 4
ENDMDL
MODEL 8
REMARK VINA RESULT:      -6.7      3.166      7.953
REMARK  Name = 
REMARK  5 active torsions:
REMARK  status: ('A' for Active; 'I' for Inactive)
REMARK    1  A    between atoms: C_1  and  N_2
REMARK    2  A    between atoms: N_2  and  C_14
REMARK    3  A    between atoms: C_3  and  C_5
REMARK    4  A    between atoms: C_14  and  C_15
REMARK    5  A    between atoms: N_17  and  C_18
REMARK                            x       y       z     vdW  Elec       q    Type
REMARK                         _______ _______ _______ _____ _____    ______ ____
ROOT
ATOM      1  C   UNL     1       5.910   6.060  17.822  0.00  0.00    +0.000 C 
ATOM      2  C   UNL     1       6.712   5.810  19.132  0.00  0.00    +0.000 C 
ATOM      3  C   UNL     1       8.182   6.223  18.991  0.00  0.00    +0.000 C 
ATOM      4  C   UNL     1       8.300   7.718  18.729  0.00  0.00    +0.000 C 
ATOM      5  C   UNL     1       7.497   8.128  17.504  0.00  0.00    +0.000 C 
ATOM      6  C   UNL     1       6.062   7.605  17.552  0.00  0.00    +0.000 C 
ENDROOT
BRANCH   1   8
ATOM      7  C   UNL     1       7.439   4.242  16.928  0.00  0.00    +0.000 C 
ATOM      8  N   UNL     1       6.353   5.187  16.660  0.00  0.00    +0.000 N 
ATOM      9  C   UNL     1       5.993   5.545  15.339  0.00  0.00    +0.000 C 
ATOM     10  O   UNL     1       5.336   6.561  15.098  0.00  0.00    +0.000 OA
BRANCH   9  11
ATOM     11  C   UNL     1       6.451   4.801  14.130  0.00  0.00    +0.000 A 
ATOM     12  C   UNL     1       7.562   5.183  13.345  0.00  0.00    +0.000 A 
ATOM     13  C   UNL     1       7.840   4.529  12.138  0.00  0.00    +0.000 A 
ATOM     14  C   UNL     1       7.057   3.450  11.792  0.00  0.00    +0.000 A 
ATOM     15  C   UNL     1       6.044   3.004  12.604  0.00  0.00    +0.000 A 
ATOM     16  C   UNL     1       5.718   3.656  13.773  0.00  0.00    +0.000 A 
ATOM     17  O   UNL     1       5.424   1.902  12.107  0.00  0.00    +0.000 OA
ATOM     18  C   UNL     1       6.147   1.717  10.873  0.00  0.00    +0.000 C 
ATOM     19  O   UNL     1       7.177   2.706  10.660  0.00  0.00    +0.000 OA
ENDBRANCH   9  11
ENDBRANCH   1   8
BRANCH   1  20
ATOM     20  C   UNL     1       4.363   5.809  18.018  0.00  0.00    +0.000 C 
ATOM     21  O   UNL     1       3.526   6.691  17.818  0.00  0.00    +0.000 OA
ATOM     22  N   UNL     1       3.981   4.537  18.389  0.00  0.00    +0.000 N 
ATOM     23  H   UNL     1       4.695   3.807  18.362  0.00  0.00    +0.000 HD
BRANCH  22  24
ATOM     24  C   UNL     1       2.586   4.165  18.516  0.00  0.00    +0.000 C 
ATOM     25  C   UNL     1       2.281   2.717  18.133  0.00  0.00    +0.000 C 
ATOM     26  C   UNL     1       0.902   2.469  18.741  0.00  0.00    +0.000 C 
ATOM     27  C   UNL     1       0.795   3.414  19.940  0.00  0.00    +0.000 C 
ATOM     28  C   UNL     1       2.085   4.230  19.954  0.00  0.00    +0.000 C 
ENDBRANCH  22  24
ENDBRANCH   1  20
TORSDOF 4
ENDMDL
MODEL 9
REMARK VINA RESULT:      -6.7      1.937      2.575
REMARK  Name = 
REMARK  5 active torsions:
REMARK  status: ('A' for Active; 'I' for Inactive)
REMARK    1  A    between atoms: C_1  and  N_2
REMARK    2  A    between atoms: N_2  and  C_14
REMARK    3  A    between atoms: C_3  and  C_5
REMARK    4  A    between atoms: C_14  and  C_15
REMARK    5  A    between atoms: N_17  and  C_18
REMARK                            x       y       z     vdW  Elec       q    Type
REMARK                         _______ _______ _______ _____ _____    ______ ____
ROOT
ATOM      1  C   UNL     1       2.987   4.091  18.985  0.00  0.00    +0.000 C 
ATOM      2  C   UNL     1       3.176   2.843  19.895  0.00  0.00    +0.000 C 
ATOM      3  C   UNL     1       1.847   2.357  20.484  0.00  0.00    +0.000 C 
ATOM      4  C   UNL     1       0.899   1.907  19.379  0.00  0.00    +0.000 C 
ATOM      5  C   UNL     1       0.675   3.015  18.362  0.00  0.00    +0.000 C 
ATOM      6  C   UNL     1       1.987   3.618  17.863  0.00  0.00    +0.000 C 
ENDROOT
BRANCH   1   8
ATOM      7  C   UNL     1       1.926   5.109  21.055  0.00  0.00    +0.000 C 
ATOM      8  N   UNL     1       2.526   5.329  19.736  0.00  0.00    +0.000 N 
ATOM      9  C   UNL     1       2.348   6.546  19.038  0.00  0.00    +0.000 C 
ATOM     10  O   UNL     1       2.546   6.632  17.823  0.00  0.00    +0.000 OA
BRANCH   9  11
ATOM     11  C   UNL     1       1.818   7.789  19.669  0.00  0.00    +0.000 A 
ATOM     12  C   UNL     1       1.503   7.903  21.041  0.00  0.00    +0.000 A 
ATOM     13  C   UNL     1       0.865   9.049  21.533  0.00  0.00    +0.000 A 
ATOM     14  C   UNL     1       0.641  10.090  20.660  0.00  0.00    +0.000 A 
ATOM     15  C   UNL     1       1.044  10.030  19.349  0.00  0.00    +0.000 A 
ATOM     16  C   UNL     1       1.631   8.899  18.826  0.00  0.00    +0.000 A 
ATOM     17  O   UNL     1       0.774  11.174  18.667  0.00  0.00    +0.000 OA
ATOM     18  C   UNL     1       0.131  11.957  19.695  0.00  0.00    +0.000 C 
ATOM     19  O   UNL     1       0.031  11.267  20.959  0.00  0.00    +0.000 OA
ENDBRANCH   9  11
ENDBRANCH   1   8
BRANCH   1  20
ATOM     20  C   UNL     1       4.319   4.483  18.234  0.00  0.00    +0.000 C 
ATOM     21  O   UNL     1       4.562   4.101  17.089  0.00  0.00    +0.000 OA
ATOM     22  N   UNL     1       5.193   5.313  18.906  0.00  0.00    +0.000 N 
ATOM     23  H   UNL     1       4.858   5.742  19.771  0.00  0.00    +0.000 HD
BRANCH  22  24
ATOM     24  C   UNL     1       6.405   5.809  18.288  0.00  0.00    +0.000 C 
ATOM     25  C   UNL     1       6.223   7.093  17.479  0.00  0.00    +0.000 C 
ATOM     26  C   UNL     1       7.648   7.614  17.308  0.00  0.00    +0.000 C 
ATOM     27  C   UNL     1       8.435   7.086  18.510  0.00  0.00    +0.000 C 
ATOM     28  C   UNL     1       7.464   6.218  19.305  0.00  0.00    +0.000 C 
ENDBRANCH  22  24
ENDBRANCH   1  20
TORSDOF 4
ENDMDL
