MODEL 1
REMARK VINA RESULT:      -8.7      0.000      0.000
REMARK  Name = 
REMARK  4 active torsions:
REMARK  status: ('A' for Active; 'I' for Inactive)
REMARK    1  A    between atoms: C_2  and  C_3
REMARK    2  A    between atoms: C_2  and  C_17
REMARK    3  A    between atoms: C_3  and  N_12
REMARK    4  A    between atoms: C_4  and  C_5
REMARK                            x       y       z     vdW  Elec       q    Type
REMARK                         _______ _______ _______ _____ _____    ______ ____
ROOT
ATOM      1  C   UNL     1       3.695   5.278  18.740  0.00  0.00    +0.000 C 
ATOM      2  C   UNL     1       3.610   6.567  18.324  0.00  0.00    +0.000 C 
ENDROOT
BRANCH   2   3
ATOM      3  C   UNL     1       2.558   7.513  18.727  0.00  0.00    +0.000 A 
ATOM      4  C   UNL     1       2.038   8.411  17.783  0.00  0.00    +0.000 A 
ATOM      5  C   UNL     1       1.116   9.384  18.175  0.00  0.00    +0.000 A 
ATOM      6  C   UNL     1       0.720   9.453  19.506  0.00  0.00    +0.000 A 
ATOM      7  F   UNL     1      -0.138  10.408  19.889  0.00  0.00    +0.000 F 
ATOM      8  C   UNL     1       1.210   8.555  20.447  0.00  0.00    +0.000 A 
ATOM      9  C   UNL     1       2.124   7.574  20.057  0.00  0.00    +0.000 A 
ENDBRANCH   2   3
BRANCH   1  10
ATOM     10  N   UNL     1       2.633   4.605  19.410  0.00  0.00    +0.000 N 
ATOM     11  C   UNL     1       1.504   4.022  18.841  0.00  0.00    +0.000 A 
ATOM     12  N   UNL     1       0.698   3.515  19.745  0.00  0.00    +0.000 NA
ATOM     13  C   UNL     1       1.343   3.800  20.899  0.00  0.00    +0.000 A 
ATOM     14  N   UNL     1       2.507   4.422  20.765  0.00  0.00    +0.000 NA
ENDBRANCH   1  10
BRANCH   1  16
ATOM     15  O   UNL     1       5.400   3.678  19.180  0.00  0.00    +0.000 OA
ATOM     16  C   UNL     1       4.933   4.488  18.380  0.00  0.00    +0.000 C 
BRANCH  16  17
ATOM     17  C   UNL     1       5.612   4.575  17.062  0.00  0.00    +0.000 A 
ATOM     18  C   UNL     1       4.899   4.145  15.926  0.00  0.00    +0.000 A 
ATOM     19  C   UNL     1       5.479   4.217  14.659  0.00  0.00    +0.000 A 
ATOM     20  C   UNL     1       6.769   4.717  14.524  0.00  0.00    +0.000 A 
ATOM     21  F   UNL     1       7.313   4.812  13.304  0.00  0.00    +0.000 F 
ATOM     22  C   UNL     1       7.502   5.110  15.635  0.00  0.00    +0.000 A 
ATOM     23  C   UNL     1       6.932   5.010  16.901  0.00  0.00    +0.000 A 
ATOM     24  F   UNL     1       7.682   5.332  17.961  0.00  0.00    +0.000 F 
ENDBRANCH  16  17
ENDBRANCH   1  16
TORSDOF 4
ENDMDL
MODEL 2
REMARK VINA RESULT:      -8.3      0.988      1.394
REMARK  Name = 
REMARK  4 active torsions:
REMARK  status: ('A' for Active; 'I' for Inactive)
REMARK    1  A    between atoms: C_2  and  C_3
REMARK    2  A    between atoms: C_2  and  C_17
REMARK    3  A    between atoms: C_3  and  N_12
REMARK    4  A    between atoms: C_4  and  C_5
REMARK                            x       y       z     vdW  Elec       q    Type
REMARK                         _______ _______ _______ _____ _____    ______ ____
ROOT
ATOM      1  C   UNL     1       3.693   5.497  18.824  0.00  0.00    +0.000 C 
ATOM      2  C   UNL     1       3.558   6.785  18.419  0.00  0.00    +0.000 C 
ENDROOT
BRANCH   2   3
ATOM      3  C   UNL     1       2.458   7.679  18.812  0.00  0.00    +0.000 A 
ATOM      4  C   UNL     1       1.888   8.535  17.856  0.00  0.00    +0.000 A 
ATOM      5  C   UNL     1       0.916   9.463  18.238  0.00  0.00    +0.000 A 
ATOM      6  C   UNL     1       0.521   9.530  19.568  0.00  0.00    +0.000 A 
ATOM      7  F   UNL     1      -0.386  10.443  19.941  0.00  0.00    +0.000 F 
ATOM      8  C   UNL     1       1.060   8.673  20.521  0.00  0.00    +0.000 A 
ATOM      9  C   UNL     1       2.024   7.736  20.142  0.00  0.00    +0.000 A 
ENDBRANCH   2   3
BRANCH   1  10
ATOM     10  N   UNL     1       2.650   4.771  19.469  0.00  0.00    +0.000 N 
ATOM     11  C   UNL     1       1.569   4.126  18.872  0.00  0.00    +0.000 A 
ATOM     12  N   UNL     1       0.767   3.581  19.756  0.00  0.00    +0.000 NA
ATOM     13  C   UNL     1       1.364   3.904  20.926  0.00  0.00    +0.000 A 
ATOM     14  N   UNL     1       2.497   4.587  20.821  0.00  0.00    +0.000 NA
ENDBRANCH   1  10
BRANCH   1  16
ATOM     15  O   UNL     1       5.557   4.113  19.342  0.00  0.00    +0.000 OA
ATOM     16  C   UNL     1       4.971   4.766  18.479  0.00  0.00    +0.000 C 
BRANCH  16  17
ATOM     17  C   UNL     1       5.554   4.726  17.115  0.00  0.00    +0.000 A 
ATOM     18  C   UNL     1       6.820   5.313  16.924  0.00  0.00    +0.000 A 
ATOM     19  C   UNL     1       7.426   5.292  15.666  0.00  0.00    +0.000 A 
ATOM     20  C   UNL     1       6.771   4.686  14.601  0.00  0.00    +0.000 A 
ATOM     21  F   UNL     1       7.367   4.641  13.402  0.00  0.00    +0.000 F 
ATOM     22  C   UNL     1       5.507   4.136  14.760  0.00  0.00    +0.000 A 
ATOM     23  C   UNL     1       4.892   4.183  16.008  0.00  0.00    +0.000 A 
ATOM     24  F   UNL     1       3.647   3.705  16.120  0.00  0.00    +0.000 F 
ENDBRANCH  16  17
ENDBRANCH   1  16
TORSDOF 4
ENDMDL
MODEL 3
REMARK VINA RESULT:      -8.1      0.906      1.450
REMARK  Name = 
REMARK  4 active torsions:
REMARK  status: ('A' for Active; 'I' for Inactive)
REMARK    1  A    between atoms: C_2  and  C_3
REMARK    2  A    between atoms: C_2  and  C_17
REMARK    3  A    between atoms: C_3  and  N_12
REMARK    4  A    between atoms: C_4  and  C_5
REMARK                            x       y       z     vdW  Elec       q    Type
REMARK                         _______ _______ _______ _____ _____    ______ ____
ROOT
ATOM      1  C   UNL     1       3.293   4.778  18.303  0.00  0.00    +0.000 C 
ATOM      2  C   UNL     1       3.281   6.061  17.860  0.00  0.00    +0.000 C 
ENDROOT
BRANCH   2   3
ATOM      3  C   UNL     1       2.587   7.174  18.524  0.00  0.00    +0.000 A 
ATOM      4  C   UNL     1       2.333   7.106  19.903  0.00  0.00    +0.000 A 
ATOM      5  C   UNL     1       1.583   8.107  20.528  0.00  0.00    +0.000 A 
ATOM      6  C   UNL     1       1.095   9.166  19.772  0.00  0.00    +0.000 A 
ATOM      7  F   UNL     1       0.347  10.107  20.364  0.00  0.00    +0.000 F 
ATOM      8  C   UNL     1       1.359   9.258  18.410  0.00  0.00    +0.000 A 
ATOM      9  C   UNL     1       2.117   8.266  17.784  0.00  0.00    +0.000 A 
ENDBRANCH   2   3
BRANCH   1  10
ATOM     10  N   UNL     1       2.420   4.301  19.323  0.00  0.00    +0.000 N 
ATOM     11  C   UNL     1       2.719   4.088  20.666  0.00  0.00    +0.000 A 
ATOM     12  N   UNL     1       1.695   3.606  21.332  0.00  0.00    +0.000 NA
ATOM     13  C   UNL     1       0.745   3.513  20.373  0.00  0.00    +0.000 A 
ATOM     14  N   UNL     1       1.106   3.934  19.168  0.00  0.00    +0.000 NA
ENDBRANCH   1  10
BRANCH   1  16
ATOM     15  O   UNL     1       4.065   2.582  17.816  0.00  0.00    +0.000 OA
ATOM     16  C   UNL     1       4.199   3.787  17.609  0.00  0.00    +0.000 C 
BRANCH  16  17
ATOM     17  C   UNL     1       5.231   4.171  16.614  0.00  0.00    +0.000 A 
ATOM     18  C   UNL     1       4.901   4.064  15.249  0.00  0.00    +0.000 A 
ATOM     19  C   UNL     1       5.825   4.425  14.268  0.00  0.00    +0.000 A 
ATOM     20  C   UNL     1       7.078   4.894  14.646  0.00  0.00    +0.000 A 
ATOM     21  F   UNL     1       7.952   5.267  13.703  0.00  0.00    +0.000 F 
ATOM     22  C   UNL     1       7.437   4.970  15.984  0.00  0.00    +0.000 A 
ATOM     23  C   UNL     1       6.523   4.582  16.961  0.00  0.00    +0.000 A 
ATOM     24  F   UNL     1       6.916   4.603  18.240  0.00  0.00    +0.000 F 
ENDBRANCH  16  17
ENDBRANCH   1  16
TORSDOF 4
ENDMDL
MODEL 4
REMARK VINA RESULT:      -8.0      3.531      4.698
REMARK  Name = 
REMARK  4 active torsions:
REMARK  status: ('A' for Active; 'I' for Inactive)
REMARK    1  A    between atoms: C_2  and  C_3
REMARK    2  A    between atoms: C_2  and  C_17
REMARK    3  A    between atoms: C_3  and  N_12
REMARK    4  A    between atoms: C_4  and  C_5
REMARK                            x       y       z     vdW  Elec       q    Type
REMARK                         _______ _______ _______ _____ _____    ______ ____
ROOT
ATOM      1  C   UNL     1       5.078   5.060  16.732  0.00  0.00    +0.000 C 
ATOM      2  C   UNL     1       3.911   4.402  16.942  0.00  0.00    +0.000 C 
ENDROOT
BRANCH   2   3
ATOM      3  C   UNL     1       3.434   3.932  18.252  0.00  0.00    +0.000 A 
ATOM      4  C   UNL     1       2.457   4.671  18.938  0.00  0.00    +0.000 A 
ATOM      5  C   UNL     1       2.071   4.296  20.227  0.00  0.00    +0.000 A 
ATOM      6  C   UNL     1       2.662   3.187  20.821  0.00  0.00    +0.000 A 
ATOM      7  F   UNL     1       2.317   2.847  22.070  0.00  0.00    +0.000 F 
ATOM      8  C   UNL     1       3.614   2.433  20.144  0.00  0.00    +0.000 A 
ATOM      9  C   UNL     1       3.995   2.798  18.851  0.00  0.00    +0.000 A 
ENDBRANCH   2   3
BRANCH   1  10
ATOM     10  N   UNL     1       6.109   5.148  17.712  0.00  0.00    +0.000 N 
ATOM     11  C   UNL     1       7.371   4.561  17.673  0.00  0.00    +0.000 A 
ATOM     12  N   UNL     1       8.067   4.811  18.757  0.00  0.00    +0.000 NA
ATOM     13  C   UNL     1       7.211   5.563  19.485  0.00  0.00    +0.000 A 
ATOM     14  N   UNL     1       6.044   5.819  18.908  0.00  0.00    +0.000 NA
ENDBRANCH   1  10
BRANCH   1  16
ATOM     15  O   UNL     1       5.172   6.836  15.151  0.00  0.00    +0.000 OA
ATOM     16  C   UNL     1       5.341   5.635  15.358  0.00  0.00    +0.000 C 
BRANCH  16  17
ATOM     17  C   UNL     1       5.867   4.841  14.220  0.00  0.00    +0.000 A 
ATOM     18  C   UNL     1       4.992   3.936  13.589  0.00  0.00    +0.000 A 
ATOM     19  C   UNL     1       5.426   3.173  12.504  0.00  0.00    +0.000 A 
ATOM     20  C   UNL     1       6.731   3.313  12.047  0.00  0.00    +0.000 A 
ATOM     21  F   UNL     1       7.136   2.601  10.987  0.00  0.00    +0.000 F 
ATOM     22  C   UNL     1       7.620   4.171  12.679  0.00  0.00    +0.000 A 
ATOM     23  C   UNL     1       7.194   4.909  13.779  0.00  0.00    +0.000 A 
ATOM     24  F   UNL     1       8.088   5.679  14.410  0.00  0.00    +0.000 F 
ENDBRANCH  16  17
ENDBRANCH   1  16
TORSDOF 4
ENDMDL
MODEL 5
REMARK VINA RESULT:      -8.0      1.804      6.398
REMARK  Name = 
REMARK  4 active torsions:
REMARK  status: ('A' for Active; 'I' for Inactive)
REMARK    1  A    between atoms: C_2  and  C_3
REMARK    2  A    between atoms: C_2  and  C_17
REMARK    3  A    between atoms: C_3  and  N_12
REMARK    4  A    between atoms: C_4  and  C_5
REMARK                            x       y       z     vdW  Elec       q    Type
REMARK                         _______ _______ _______ _____ _____    ______ ____
ROOT
ATOM      1  C   UNL     1       3.193   5.476  19.101  0.00  0.00    +0.000 C 
ATOM      2  C   UNL     1       4.311   6.167  18.763  0.00  0.00    +0.000 C 
ENDROOT
BRANCH   2   3
ATOM      3  C   UNL     1       5.244   5.786  17.692  0.00  0.00    +0.000 A 
ATOM      4  C   UNL     1       4.918   6.071  16.356  0.00  0.00    +0.000 A 
ATOM      5  C   UNL     1       5.743   5.622  15.322  0.00  0.00    +0.000 A 
ATOM      6  C   UNL     1       6.886   4.893  15.629  0.00  0.00    +0.000 A 
ATOM      7  F   UNL     1       7.660   4.433  14.636  0.00  0.00    +0.000 F 
ATOM      8  C   UNL     1       7.233   4.623  16.947  0.00  0.00    +0.000 A 
ATOM      9  C   UNL     1       6.417   5.080  17.985  0.00  0.00    +0.000 A 
ENDBRANCH   2   3
BRANCH   1  10
ATOM     10  N   UNL     1       2.925   4.156  18.635  0.00  0.00    +0.000 N 
ATOM     11  C   UNL     1       2.045   3.774  17.626  0.00  0.00    +0.000 A 
ATOM     12  N   UNL     1       2.007   2.471  17.469  0.00  0.00    +0.000 NA
ATOM     13  C   UNL     1       2.878   2.041  18.410  0.00  0.00    +0.000 A 
ATOM     14  N   UNL     1       3.474   2.993  19.116  0.00  0.00    +0.000 NA
ENDBRANCH   1  10
BRANCH   1  16
ATOM     15  O   UNL     1       1.853   5.436  21.066  0.00  0.00    +0.000 OA
ATOM     16  C   UNL     1       2.243   6.094  20.101  0.00  0.00    +0.000 C 
BRANCH  16  17
ATOM     17  C   UNL     1       1.781   7.503  20.038  0.00  0.00    +0.000 A 
ATOM     18  C   UNL     1       1.414   8.129  21.245  0.00  0.00    +0.000 A 
ATOM     19  C   UNL     1       0.987   9.458  21.250  0.00  0.00    +0.000 A 
ATOM     20  C   UNL     1       0.927  10.162  20.053  0.00  0.00    +0.000 A 
ATOM     21  F   UNL     1       0.544  11.446  20.064  0.00  0.00    +0.000 F 
ATOM     22  C   UNL     1       1.247   9.552  18.849  0.00  0.00    +0.000 A 
ATOM     23  C   UNL     1       1.645   8.217  18.843  0.00  0.00    +0.000 A 
ATOM     24  F   UNL     1       1.885   7.634  17.663  0.00  0.00    +0.000 F 
ENDBRANCH  16  17
ENDBRANCH   1  16
TORSDOF 4
ENDMDL
MODEL 6
REMARK VINA RESULT:      -7.9      1.797      6.379
REMARK  Name = 
REMARK  4 active torsions:
REMARK  status: ('A' for Active; 'I' for Inactive)
REMARK    1  A    between atoms: C_2  and  C_3
REMARK    2  A    between atoms: C_2  and  C_17
REMARK    3  A    between atoms: C_3  and  N_12
REMARK    4  A    between atoms: C_4  and  C_5
REMARK                            x       y       z     vdW  Elec       q    Type
REMARK                         _______ _______ _______ _____ _____    ______ ____
ROOT
ATOM      1  C   UNL     1       3.254   5.657  18.848  0.00  0.00    +0.000 C 
ATOM      2  C   UNL     1       4.357   6.326  18.426  0.00  0.00    +0.000 C 
ENDROOT
BRANCH   2   3
ATOM      3  C   UNL     1       5.283   5.850  17.387  0.00  0.00    +0.000 A 
ATOM      4  C   UNL     1       4.985   6.086  16.035  0.00  0.00    +0.000 A 
ATOM      5  C   UNL     1       5.800   5.551  15.034  0.00  0.00    +0.000 A 
ATOM      6  C   UNL     1       6.903   4.785  15.390  0.00  0.00    +0.000 A 
ATOM      7  F   UNL     1       7.665   4.242  14.430  0.00  0.00    +0.000 F 
ATOM      8  C   UNL     1       7.223   4.562  16.724  0.00  0.00    +0.000 A 
ATOM      9  C   UNL     1       6.418   5.105  17.728  0.00  0.00    +0.000 A 
ENDBRANCH   2   3
BRANCH   1  10
ATOM     10  N   UNL     1       3.000   4.294  18.522  0.00  0.00    +0.000 N 
ATOM     11  C   UNL     1       2.125   3.800  17.557  0.00  0.00    +0.000 A 
ATOM     12  N   UNL     1       2.100   2.488  17.536  0.00  0.00    +0.000 NA
ATOM     13  C   UNL     1       2.975   2.166  18.517  0.00  0.00    +0.000 A 
ATOM     14  N   UNL     1       3.560   3.192  19.120  0.00  0.00    +0.000 NA
ENDBRANCH   1  10
BRANCH   1  16
ATOM     15  O   UNL     1       1.934   5.797  20.822  0.00  0.00    +0.000 OA
ATOM     16  C   UNL     1       2.307   6.360  19.793  0.00  0.00    +0.000 C 
BRANCH  16  17
ATOM     17  C   UNL     1       1.828   7.751  19.597  0.00  0.00    +0.000 A 
ATOM     18  C   UNL     1       1.921   8.302  18.304  0.00  0.00    +0.000 A 
ATOM     19  C   UNL     1       1.472   9.601  18.056  0.00  0.00    +0.000 A 
ATOM     20  C   UNL     1       0.931  10.349  19.094  0.00  0.00    +0.000 A 
ATOM     21  F   UNL     1       0.475  11.584  18.847  0.00  0.00    +0.000 F 
ATOM     22  C   UNL     1       0.867   9.838  20.383  0.00  0.00    +0.000 A 
ATOM     23  C   UNL     1       1.341   8.554  20.635  0.00  0.00    +0.000 A 
ATOM     24  F   UNL     1       1.328   8.110  21.897  0.00  0.00    +0.000 F 
ENDBRANCH  16  17
ENDBRANCH   1  16
TORSDOF 4
ENDMDL
MODEL 7
REMARK VINA RESULT:      -7.8      1.749      6.420
REMARK  Name = 
REMARK  4 active torsions:
REMARK  status: ('A' for Active; 'I' for Inactive)
REMARK    1  A    between atoms: C_2  and  C_3
REMARK    2  A    between atoms: C_2  and  C_17
REMARK    3  A    between atoms: C_3  and  N_12
REMARK    4  A    between atoms: C_4  and  C_5
REMARK                            x       y       z     vdW  Elec       q    Type
REMARK                         _______ _______ _______ _____ _____    ______ ____
ROOT
ATOM      1  C   UNL     1       3.184   5.577  18.888  0.00  0.00    +0.000 C 
ATOM      2  C   UNL     1       4.301   6.192  18.425  0.00  0.00    +0.000 C 
ENDROOT
BRANCH   2   3
ATOM      3  C   UNL     1       5.182   5.657  17.375  0.00  0.00    +0.000 A 
ATOM      4  C   UNL     1       6.362   4.990  17.737  0.00  0.00    +0.000 A 
ATOM      5  C   UNL     1       7.260   4.569  16.752  0.00  0.00    +0.000 A 
ATOM      6  C   UNL     1       6.973   4.818  15.416  0.00  0.00    +0.000 A 
ATOM      7  F   UNL     1       7.849   4.446  14.473  0.00  0.00    +0.000 F 
ATOM      8  C   UNL     1       5.797   5.458  15.041  0.00  0.00    +0.000 A 
ATOM      9  C   UNL     1       4.891   5.870  16.022  0.00  0.00    +0.000 A 
ENDBRANCH   2   3
BRANCH   1  10
ATOM     10  N   UNL     1       2.869   4.217  18.601  0.00  0.00    +0.000 N 
ATOM     11  C   UNL     1       1.880   3.736  17.747  0.00  0.00    +0.000 A 
ATOM     12  N   UNL     1       1.830   2.425  17.735  0.00  0.00    +0.000 NA
ATOM     13  C   UNL     1       2.806   2.090  18.609  0.00  0.00    +0.000 A 
ATOM     14  N   UNL     1       3.476   3.107  19.135  0.00  0.00    +0.000 NA
ENDBRANCH   1  10
BRANCH   1  16
ATOM     15  O   UNL     1       1.935   5.819  20.898  0.00  0.00    +0.000 OA
ATOM     16  C   UNL     1       2.288   6.337  19.839  0.00  0.00    +0.000 C 
BRANCH  16  17
ATOM     17  C   UNL     1       1.841   7.734  19.611  0.00  0.00    +0.000 A 
ATOM     18  C   UNL     1       1.975   8.263  18.312  0.00  0.00    +0.000 A 
ATOM     19  C   UNL     1       1.558   9.566  18.034  0.00  0.00    +0.000 A 
ATOM     20  C   UNL     1       1.007  10.340  19.048  0.00  0.00    +0.000 A 
ATOM     21  F   UNL     1       0.581  11.580  18.771  0.00  0.00    +0.000 F 
ATOM     22  C   UNL     1       0.901   9.851  20.342  0.00  0.00    +0.000 A 
ATOM     23  C   UNL     1       1.344   8.561  20.624  0.00  0.00    +0.000 A 
ATOM     24  F   UNL     1       1.292   8.137  21.892  0.00  0.00    +0.000 F 
ENDBRANCH  16  17
ENDBRANCH   1  16
TORSDOF 4
ENDMDL
MODEL 8
REMARK VINA RESULT:      -7.8      1.778      6.432
REMARK  Name = 
REMARK  4 active torsions:
REMARK  status: ('A' for Active; 'I' for Inactive)
REMARK    1  A    between atoms: C_2  and  C_3
REMARK    2  A    between atoms: C_2  and  C_17
REMARK    3  A    between atoms: C_3  and  N_12
REMARK    4  A    between atoms: C_4  and  C_5
REMARK                            x       y       z     vdW  Elec       q    Type
REMARK                         _______ _______ _______ _____ _____    ______ ____
ROOT
ATOM      1  C   UNL     1       3.149   5.407  19.133  0.00  0.00    +0.000 C 
ATOM      2  C   UNL     1       4.275   6.052  18.737  0.00  0.00    +0.000 C 
ENDROOT
BRANCH   2   3
ATOM      3  C   UNL     1       5.158   5.611  17.647  0.00  0.00    +0.000 A 
ATOM      4  C   UNL     1       6.363   4.959  17.954  0.00  0.00    +0.000 A 
ATOM      5  C   UNL     1       7.261   4.629  16.936  0.00  0.00    +0.000 A 
ATOM      6  C   UNL     1       6.950   4.951  15.621  0.00  0.00    +0.000 A 
ATOM      7  F   UNL     1       7.826   4.665  14.648  0.00  0.00    +0.000 F 
ATOM      8  C   UNL     1       5.751   5.577  15.299  0.00  0.00    +0.000 A 
ATOM      9  C   UNL     1       4.845   5.898  16.313  0.00  0.00    +0.000 A 
ENDBRANCH   2   3
BRANCH   1  10
ATOM     10  N   UNL     1       2.825   4.083  18.717  0.00  0.00    +0.000 N 
ATOM     11  C   UNL     1       1.853   3.695  17.798  0.00  0.00    +0.000 A 
ATOM     12  N   UNL     1       1.786   2.391  17.667  0.00  0.00    +0.000 NA
ATOM     13  C   UNL     1       2.735   1.965  18.532  0.00  0.00    +0.000 A 
ATOM     14  N   UNL     1       3.403   2.921  19.165  0.00  0.00    +0.000 NA
ENDBRANCH   1  10
BRANCH   1  16
ATOM     15  O   UNL     1       1.907   5.478  21.161  0.00  0.00    +0.000 OA
ATOM     16  C   UNL     1       2.253   6.082  20.146  0.00  0.00    +0.000 C 
BRANCH  16  17
ATOM     17  C   UNL     1       1.797   7.490  20.034  0.00  0.00    +0.000 A 
ATOM     18  C   UNL     1       1.426   8.157  21.217  0.00  0.00    +0.000 A 
ATOM     19  C   UNL     1       1.004   9.487  21.176  0.00  0.00    +0.000 A 
ATOM     20  C   UNL     1       0.953  10.152  19.956  0.00  0.00    +0.000 A 
ATOM     21  F   UNL     1       0.576  11.437  19.923  0.00  0.00    +0.000 F 
ATOM     22  C   UNL     1       1.278   9.501  18.774  0.00  0.00    +0.000 A 
ATOM     23  C   UNL     1       1.671   8.166  18.815  0.00  0.00    +0.000 A 
ATOM     24  F   UNL     1       1.916   7.542  17.656  0.00  0.00    +0.000 F 
ENDBRANCH  16  17
ENDBRANCH   1  16
TORSDOF 4
ENDMDL
MODEL 9
REMARK VINA RESULT:      -7.7      3.233      7.297
REMARK  Name = 
REMARK  4 active torsions:
REMARK  status: ('A' for Active; 'I' for Inactive)
REMARK    1  A    between atoms: C_2  and  C_3
REMARK    2  A    between atoms: C_2  and  C_17
REMARK    3  A    between atoms: C_3  and  N_12
REMARK    4  A    between atoms: C_4  and  C_5
REMARK                            x       y       z     vdW  Elec       q    Type
REMARK                         _______ _______ _______ _____ _____    ______ ____
ROOT
ATOM      1  C   UNL     1       2.934   6.793  18.053  0.00  0.00    +0.000 C 
ATOM      2  C   UNL     1       2.098   5.756  18.308  0.00  0.00    +0.000 C 
ENDROOT
BRANCH   2   3
ATOM      3  C   UNL     1       2.512   4.349  18.419  0.00  0.00    +0.000 A 
ATOM      4  C   UNL     1       3.092   3.891  19.613  0.00  0.00    +0.000 A 
ATOM      5  C   UNL     1       3.585   2.587  19.697  0.00  0.00    +0.000 A 
ATOM      6  C   UNL     1       3.497   1.751  18.590  0.00  0.00    +0.000 A 
ATOM      7  F   UNL     1       4.001   0.511  18.659  0.00  0.00    +0.000 F 
ATOM      8  C   UNL     1       2.905   2.184  17.409  0.00  0.00    +0.000 A 
ATOM      9  C   UNL     1       2.401   3.483  17.324  0.00  0.00    +0.000 A 
ENDBRANCH   2   3
BRANCH   1  10
ATOM     10  N   UNL     1       4.275   6.619  17.603  0.00  0.00    +0.000 N 
ATOM     11  C   UNL     1       4.746   6.675  16.293  0.00  0.00    +0.000 A 
ATOM     12  N   UNL     1       6.033   6.433  16.219  0.00  0.00    +0.000 NA
ATOM     13  C   UNL     1       6.362   6.214  17.513  0.00  0.00    +0.000 A 
ATOM     14  N   UNL     1       5.369   6.335  18.383  0.00  0.00    +0.000 NA
ENDBRANCH   1  10
BRANCH   1  16
ATOM     15  O   UNL     1       2.597   9.005  17.243  0.00  0.00    +0.000 OA
ATOM     16  C   UNL     1       2.384   8.199  18.148  0.00  0.00    +0.000 C 
BRANCH  16  17
ATOM     17  C   UNL     1       1.524   8.673  19.261  0.00  0.00    +0.000 A 
ATOM     18  C   UNL     1       1.761   8.147  20.545  0.00  0.00    +0.000 A 
ATOM     19  C   UNL     1       0.993   8.566  21.634  0.00  0.00    +0.000 A 
ATOM     20  C   UNL     1      -0.009   9.510  21.441  0.00  0.00    +0.000 A 
ATOM     21  F   UNL     1      -0.724   9.932  22.492  0.00  0.00    +0.000 F 
ATOM     22  C   UNL     1      -0.284  10.011  20.177  0.00  0.00    +0.000 A 
ATOM     23  C   UNL     1       0.464   9.570  19.088  0.00  0.00    +0.000 A 
ATOM     24  F   UNL     1       0.136  10.019  17.871  0.00  0.00    +0.000 F 
ENDBRANCH  16  17
ENDBRANCH   1  16
TORSDOF 4
ENDMDL
