MODEL 1
REMARK VINA RESULT:      -7.7      0.000      0.000
REMARK  Name = 
REMARK  8 active torsions:
REMARK  status: ('A' for Active; 'I' for Inactive)
REMARK    1  A    between atoms: C_1  and  O_2
REMARK    2  A    between atoms: O_2  and  C_3
REMARK    3  A    between atoms: C_3  and  C_5
REMARK    4  A    between atoms: C_8  and  C_9
REMARK    5  A    between atoms: N_10  and  O_11
REMARK    6  A    between atoms: O_11  and  C_12
REMARK    7  A    between atoms: C_12  and  C_13
REMARK    8  A    between atoms: N_15  and  C_16
REMARK                            x       y       z     vdW  Elec       q    Type
REMARK                         _______ _______ _______ _____ _____    ______ ____
ROOT
ATOM      1  O   UNL     1       7.547   7.123  17.123  0.00  0.00    +0.000 OA
ENDROOT
BRANCH   1   3
ATOM      2  C   UNL     1       8.488   8.757  18.242  0.00  0.00    +0.000 C 
ATOM      3  N   UNL     1       7.715   8.511  17.235  0.00  0.00    +0.000 NA
BRANCH   2   7
ATOM      4  C   UNL     1       9.597  12.702  19.448  0.00  0.00    +0.000 A 
ATOM      5  C   UNL     1       8.999  12.499  18.196  0.00  0.00    +0.000 A 
ATOM      6  C   UNL     1       8.631  11.213  17.789  0.00  0.00    +0.000 A 
ATOM      7  C   UNL     1       8.859  10.125  18.636  0.00  0.00    +0.000 A 
ATOM      8  C   UNL     1       9.452  10.318  19.885  0.00  0.00    +0.000 A 
ATOM      9  C   UNL     1       9.821  11.602  20.290  0.00  0.00    +0.000 A 
BRANCH   4  10
ATOM     10  C   UNL     1       9.966  14.090  19.837  0.00  0.00    +0.000 C 
ATOM     11  O   UNL     1       9.745  15.067  19.140  0.00  0.00    +0.000 OA
BRANCH  10  13
ATOM     12  C   UNL     1      10.053  15.078  21.952  0.00  0.00    +0.000 C 
ATOM     13  O   UNL     1      10.568  14.097  21.052  0.00  0.00    +0.000 OA
ENDBRANCH  10  13
ENDBRANCH   4  10
ENDBRANCH   2   7
ENDBRANCH   1   3
BRANCH   1  14
ATOM     14  C   UNL     1       7.730   6.547  18.408  0.00  0.00    +0.000 C 
BRANCH  14  15
ATOM     15  C   UNL     1       6.532   5.706  18.827  0.00  0.00    +0.000 C 
ATOM     16  O   UNL     1       6.649   4.865  19.713  0.00  0.00    +0.000 OA
ATOM     17  N   UNL     1       5.361   6.008  18.151  0.00  0.00    +0.000 N 
ATOM     18  H   UNL     1       5.448   6.613  17.338  0.00  0.00    +0.000 HD
BRANCH  17  19
ATOM     19  C   UNL     1       4.093   5.427  18.372  0.00  0.00    +0.000 A 
ATOM     20  C   UNL     1       3.301   5.722  19.483  0.00  0.00    +0.000 A 
ATOM     21  C   UNL     1       2.074   5.085  19.652  0.00  0.00    +0.000 A 
ATOM     22  F   UNL     1       1.329   5.375  20.726  0.00  0.00    +0.000 F 
ATOM     23  C   UNL     1       1.609   4.155  18.731  0.00  0.00    +0.000 A 
ATOM     24  C   UNL     1       2.378   3.868  17.604  0.00  0.00    +0.000 A 
ATOM     25  C   UNL     1       3.604   4.510  17.429  0.00  0.00    +0.000 A 
ATOM     26  F   UNL     1       4.337   4.218  16.344  0.00  0.00    +0.000 F 
ENDBRANCH  17  19
ENDBRANCH  14  15
ENDBRANCH   1  14
TORSDOF 7
ENDMDL
MODEL 2
REMARK VINA RESULT:      -7.6      0.480      1.336
REMARK  Name = 
REMARK  8 active torsions:
REMARK  status: ('A' for Active; 'I' for Inactive)
REMARK    1  A    between atoms: C_1  and  O_2
REMARK    2  A    between atoms: O_2  and  C_3
REMARK    3  A    between atoms: C_3  and  C_5
REMARK    4  A    between atoms: C_8  and  C_9
REMARK    5  A    between atoms: N_10  and  O_11
REMARK    6  A    between atoms: O_11  and  C_12
REMARK    7  A    between atoms: C_12  and  C_13
REMARK    8  A    between atoms: N_15  and  C_16
REMARK                            x       y       z     vdW  Elec       q    Type
REMARK                         _______ _______ _______ _____ _____    ______ ____
ROOT
ATOM      1  O   UNL     1       7.393   7.364  17.094  0.00  0.00    +0.000 OA
ENDROOT
BRANCH   1   3
ATOM      2  C   UNL     1       8.546   8.925  18.115  0.00  0.00    +0.000 C 
ATOM      3  N   UNL     1       7.443   8.714  17.472  0.00  0.00    +0.000 NA
BRANCH   2   7
ATOM      4  C   UNL     1       9.556  12.792  19.623  0.00  0.00    +0.000 A 
ATOM      5  C   UNL     1       9.715  11.663  20.439  0.00  0.00    +0.000 A 
ATOM      6  C   UNL     1       9.388  10.392  19.959  0.00  0.00    +0.000 A 
ATOM      7  C   UNL     1       8.903  10.247  18.656  0.00  0.00    +0.000 A 
ATOM      8  C   UNL     1       8.744  11.364  17.835  0.00  0.00    +0.000 A 
ATOM      9  C   UNL     1       9.069  12.634  18.317  0.00  0.00    +0.000 A 
BRANCH   4  10
ATOM     10  C   UNL     1       9.923  14.122  20.180  0.00  0.00    +0.000 C 
ATOM     11  O   UNL     1      10.515  14.271  21.236  0.00  0.00    +0.000 OA
BRANCH  10  13
ATOM     12  C   UNL     1      10.528  16.051  19.007  0.00  0.00    +0.000 C 
ATOM     13  O   UNL     1       9.508  15.112  19.351  0.00  0.00    +0.000 OA
ENDBRANCH  10  13
ENDBRANCH   4  10
ENDBRANCH   2   7
ENDBRANCH   1   3
BRANCH   1  14
ATOM     14  C   UNL     1       7.719   6.572  18.228  0.00  0.00    +0.000 C 
BRANCH  14  15
ATOM     15  C   UNL     1       6.547   5.706  18.669  0.00  0.00    +0.000 C 
ATOM     16  O   UNL     1       6.711   4.831  19.514  0.00  0.00    +0.000 OA
ATOM     17  N   UNL     1       5.344   6.024  18.061  0.00  0.00    +0.000 N 
ATOM     18  H   UNL     1       5.389   6.662  17.269  0.00  0.00    +0.000 HD
BRANCH  17  19
ATOM     19  C   UNL     1       4.091   5.424  18.318  0.00  0.00    +0.000 A 
ATOM     20  C   UNL     1       3.326   5.710  19.450  0.00  0.00    +0.000 A 
ATOM     21  C   UNL     1       2.114   5.055  19.654  0.00  0.00    +0.000 A 
ATOM     22  F   UNL     1       1.394   5.336  20.747  0.00  0.00    +0.000 F 
ATOM     23  C   UNL     1       1.638   4.116  18.747  0.00  0.00    +0.000 A 
ATOM     24  C   UNL     1       2.380   3.838  17.600  0.00  0.00    +0.000 A 
ATOM     25  C   UNL     1       3.591   4.498  17.390  0.00  0.00    +0.000 A 
ATOM     26  F   UNL     1       4.298   4.215  16.286  0.00  0.00    +0.000 F 
ENDBRANCH  17  19
ENDBRANCH  14  15
ENDBRANCH   1  14
TORSDOF 7
ENDMDL
MODEL 3
REMARK VINA RESULT:      -7.6      3.714      9.608
REMARK  Name = 
REMARK  8 active torsions:
REMARK  status: ('A' for Active; 'I' for Inactive)
REMARK    1  A    between atoms: C_1  and  O_2
REMARK    2  A    between atoms: O_2  and  C_3
REMARK    3  A    between atoms: C_3  and  C_5
REMARK    4  A    between atoms: C_8  and  C_9
REMARK    5  A    between atoms: N_10  and  O_11
REMARK    6  A    between atoms: O_11  and  C_12
REMARK    7  A    between atoms: C_12  and  C_13
REMARK    8  A    between atoms: N_15  and  C_16
REMARK                            x       y       z     vdW  Elec       q    Type
REMARK                         _______ _______ _______ _____ _____    ______ ____
ROOT
ATOM      1  O   UNL     1       7.778   7.383  16.669  0.00  0.00    +0.000 OA
ENDROOT
BRANCH   1   3
ATOM      2  C   UNL     1       6.217   6.337  17.799  0.00  0.00    +0.000 C 
ATOM      3  N   UNL     1       6.667   6.528  16.602  0.00  0.00    +0.000 NA
BRANCH   2   7
ATOM      4  C   UNL     1       2.888   3.790  18.620  0.00  0.00    +0.000 A 
ATOM      5  C   UNL     1       2.674   5.147  18.342  0.00  0.00    +0.000 A 
ATOM      6  C   UNL     1       3.754   5.992  18.072  0.00  0.00    +0.000 A 
ATOM      7  C   UNL     1       5.054   5.479  18.077  0.00  0.00    +0.000 A 
ATOM      8  C   UNL     1       5.277   4.128  18.350  0.00  0.00    +0.000 A 
ATOM      9  C   UNL     1       4.197   3.286  18.622  0.00  0.00    +0.000 A 
BRANCH   4  10
ATOM     10  C   UNL     1       1.704   2.931  18.896  0.00  0.00    +0.000 C 
ATOM     11  O   UNL     1       0.741   2.850  18.151  0.00  0.00    +0.000 OA
BRANCH  10  13
ATOM     12  C   UNL     1       1.345   2.974  21.205  0.00  0.00    +0.000 C 
ATOM     13  O   UNL     1       1.861   2.274  20.072  0.00  0.00    +0.000 OA
ENDBRANCH  10  13
ENDBRANCH   4  10
ENDBRANCH   2   7
ENDBRANCH   1   3
BRANCH   1  14
ATOM     14  C   UNL     1       8.026   7.684  18.035  0.00  0.00    +0.000 C 
BRANCH  14  15
ATOM     15  C   UNL     1       8.314   9.164  18.245  0.00  0.00    +0.000 C 
ATOM     16  O   UNL     1       7.705  10.009  17.596  0.00  0.00    +0.000 OA
ATOM     17  N   UNL     1       9.266   9.426  19.216  0.00  0.00    +0.000 N 
ATOM     18  H   UNL     1       9.799   8.629  19.558  0.00  0.00    +0.000 HD
BRANCH  17  19
ATOM     19  C   UNL     1       9.687  10.702  19.653  0.00  0.00    +0.000 A 
ATOM     20  C   UNL     1       9.361  11.226  20.905  0.00  0.00    +0.000 A 
ATOM     21  C   UNL     1       9.784  12.506  21.255  0.00  0.00    +0.000 A 
ATOM     22  F   UNL     1       9.459  12.997  22.457  0.00  0.00    +0.000 F 
ATOM     23  C   UNL     1      10.537  13.283  20.383  0.00  0.00    +0.000 A 
ATOM     24  C   UNL     1      10.891  12.762  19.139  0.00  0.00    +0.000 A 
ATOM     25  C   UNL     1      10.474  11.478  18.789  0.00  0.00    +0.000 A 
ATOM     26  F   UNL     1      10.815  10.994  17.585  0.00  0.00    +0.000 F 
ENDBRANCH  17  19
ENDBRANCH  14  15
ENDBRANCH   1  14
TORSDOF 7
ENDMDL
MODEL 4
REMARK VINA RESULT:      -7.6      6.176      7.745
REMARK  Name = 
REMARK  8 active torsions:
REMARK  status: ('A' for Active; 'I' for Inactive)
REMARK    1  A    between atoms: C_1  and  O_2
REMARK    2  A    between atoms: O_2  and  C_3
REMARK    3  A    between atoms: C_3  and  C_5
REMARK    4  A    between atoms: C_8  and  C_9
REMARK    5  A    between atoms: N_10  and  O_11
REMARK    6  A    between atoms: O_11  and  C_12
REMARK    7  A    between atoms: C_12  and  C_13
REMARK    8  A    between atoms: N_15  and  C_16
REMARK                            x       y       z     vdW  Elec       q    Type
REMARK                         _______ _______ _______ _____ _____    ______ ____
ROOT
ATOM      1  O   UNL     1       3.301   3.223  21.000  0.00  0.00    +0.000 OA
ENDROOT
BRANCH   1   3
ATOM      2  C   UNL     1       4.689   3.354  19.308  0.00  0.00    +0.000 C 
ATOM      3  N   UNL     1       3.531   3.754  19.722  0.00  0.00    +0.000 NA
BRANCH   2   7
ATOM      4  C   UNL     1       6.339   4.496  15.537  0.00  0.00    +0.000 A 
ATOM      5  C   UNL     1       5.048   3.954  15.596  0.00  0.00    +0.000 A 
ATOM      6  C   UNL     1       4.496   3.575  16.823  0.00  0.00    +0.000 A 
ATOM      7  C   UNL     1       5.235   3.742  17.998  0.00  0.00    +0.000 A 
ATOM      8  C   UNL     1       6.521   4.284  17.949  0.00  0.00    +0.000 A 
ATOM      9  C   UNL     1       7.072   4.660  16.723  0.00  0.00    +0.000 A 
BRANCH   4  10
ATOM     10  C   UNL     1       6.880   4.887  14.208  0.00  0.00    +0.000 C 
ATOM     11  O   UNL     1       7.852   5.611  14.061  0.00  0.00    +0.000 OA
BRANCH  10  13
ATOM     12  C   UNL     1       6.923   3.712  12.189  0.00  0.00    +0.000 C 
ATOM     13  O   UNL     1       6.145   4.329  13.214  0.00  0.00    +0.000 OA
ENDBRANCH  10  13
ENDBRANCH   4  10
ENDBRANCH   2   7
ENDBRANCH   1   3
BRANCH   1  14
ATOM     14  C   UNL     1       2.264   3.974  21.615  0.00  0.00    +0.000 C 
BRANCH  14  15
ATOM     15  C   UNL     1       1.694   5.027  20.673  0.00  0.00    +0.000 C 
ATOM     16  O   UNL     1       0.672   4.793  20.032  0.00  0.00    +0.000 OA
ATOM     17  N   UNL     1       2.405   6.215  20.650  0.00  0.00    +0.000 N 
ATOM     18  H   UNL     1       3.314   6.210  21.108  0.00  0.00    +0.000 HD
BRANCH  17  19
ATOM     19  C   UNL     1       2.075   7.374  19.914  0.00  0.00    +0.000 A 
ATOM     20  C   UNL     1       1.378   8.453  20.460  0.00  0.00    +0.000 A 
ATOM     21  C   UNL     1       1.058   9.549  19.664  0.00  0.00    +0.000 A 
ATOM     22  F   UNL     1       0.384  10.574  20.200  0.00  0.00    +0.000 F 
ATOM     23  C   UNL     1       1.425   9.603  18.325  0.00  0.00    +0.000 A 
ATOM     24  C   UNL     1       2.144   8.543  17.772  0.00  0.00    +0.000 A 
ATOM     25  C   UNL     1       2.470   7.447  18.569  0.00  0.00    +0.000 A 
ATOM     26  F   UNL     1       3.154   6.431  18.022  0.00  0.00    +0.000 F 
ENDBRANCH  17  19
ENDBRANCH  14  15
ENDBRANCH   1  14
TORSDOF 7
ENDMDL
MODEL 5
REMARK VINA RESULT:      -7.4      3.971      9.994
REMARK  Name = 
REMARK  8 active torsions:
REMARK  status: ('A' for Active; 'I' for Inactive)
REMARK    1  A    between atoms: C_1  and  O_2
REMARK    2  A    between atoms: O_2  and  C_3
REMARK    3  A    between atoms: C_3  and  C_5
REMARK    4  A    between atoms: C_8  and  C_9
REMARK    5  A    between atoms: N_10  and  O_11
REMARK    6  A    between atoms: O_11  and  C_12
REMARK    7  A    between atoms: C_12  and  C_13
REMARK    8  A    between atoms: N_15  and  C_16
REMARK                            x       y       z     vdW  Elec       q    Type
REMARK                         _______ _______ _______ _____ _____    ______ ____
ROOT
ATOM      1  O   UNL     1       8.139   8.674  17.241  0.00  0.00    +0.000 OA
ENDROOT
BRANCH   1   3
ATOM      2  C   UNL     1       7.263   6.687  17.544  0.00  0.00    +0.000 C 
ATOM      3  N   UNL     1       6.964   7.908  17.239  0.00  0.00    +0.000 NA
BRANCH   2   7
ATOM      4  C   UNL     1       4.326   3.590  17.700  0.00  0.00    +0.000 A 
ATOM      5  C   UNL     1       4.791   4.168  18.889  0.00  0.00    +0.000 A 
ATOM      6  C   UNL     1       5.752   5.183  18.853  0.00  0.00    +0.000 A 
ATOM      7  C   UNL     1       6.249   5.623  17.623  0.00  0.00    +0.000 A 
ATOM      8  C   UNL     1       5.791   5.055  16.434  0.00  0.00    +0.000 A 
ATOM      9  C   UNL     1       4.832   4.040  16.472  0.00  0.00    +0.000 A 
BRANCH   4  10
ATOM     10  C   UNL     1       3.299   2.517  17.792  0.00  0.00    +0.000 C 
ATOM     11  O   UNL     1       3.537   1.389  18.193  0.00  0.00    +0.000 OA
BRANCH  10  13
ATOM     12  C   UNL     1       1.239   3.416  18.427  0.00  0.00    +0.000 C 
ATOM     13  O   UNL     1       2.095   2.977  17.372  0.00  0.00    +0.000 OA
ENDBRANCH  10  13
ENDBRANCH   4  10
ENDBRANCH   2   7
ENDBRANCH   1   3
BRANCH   1  14
ATOM     14  C   UNL     1       8.630   8.733  18.573  0.00  0.00    +0.000 C 
BRANCH  14  15
ATOM     15  C   UNL     1       9.098  10.134  18.942  0.00  0.00    +0.000 C 
ATOM     16  O   UNL     1       9.332  10.417  20.114  0.00  0.00    +0.000 OA
ATOM     17  N   UNL     1       9.246  10.987  17.862  0.00  0.00    +0.000 N 
ATOM     18  H   UNL     1       8.866  10.667  16.973  0.00  0.00    +0.000 HD
BRANCH  17  19
ATOM     19  C   UNL     1       9.715  12.319  17.905  0.00  0.00    +0.000 A 
ATOM     20  C   UNL     1       8.867  13.425  17.988  0.00  0.00    +0.000 A 
ATOM     21  C   UNL     1       9.399  14.711  17.993  0.00  0.00    +0.000 A 
ATOM     22  F   UNL     1       8.572  15.762  18.068  0.00  0.00    +0.000 F 
ATOM     23  C   UNL     1      10.770  14.927  17.921  0.00  0.00    +0.000 A 
ATOM     24  C   UNL     1      11.630  13.832  17.862  0.00  0.00    +0.000 A 
ATOM     25  C   UNL     1      11.099  12.542  17.864  0.00  0.00    +0.000 A 
ATOM     26  F   UNL     1      11.939  11.498  17.798  0.00  0.00    +0.000 F 
ENDBRANCH  17  19
ENDBRANCH  14  15
ENDBRANCH   1  14
TORSDOF 7
ENDMDL
MODEL 6
REMARK VINA RESULT:      -7.4      4.964      8.226
REMARK  Name = 
REMARK  8 active torsions:
REMARK  status: ('A' for Active; 'I' for Inactive)
REMARK    1  A    between atoms: C_1  and  O_2
REMARK    2  A    between atoms: O_2  and  C_3
REMARK    3  A    between atoms: C_3  and  C_5
REMARK    4  A    between atoms: C_8  and  C_9
REMARK    5  A    between atoms: N_10  and  O_11
REMARK    6  A    between atoms: O_11  and  C_12
REMARK    7  A    between atoms: C_12  and  C_13
REMARK    8  A    between atoms: N_15  and  C_16
REMARK                            x       y       z     vdW  Elec       q    Type
REMARK                         _______ _______ _______ _____ _____    ______ ____
ROOT
ATOM      1  O   UNL     1       7.025   6.568  18.144  0.00  0.00    +0.000 OA
ENDROOT
BRANCH   1   3
ATOM      2  C   UNL     1       7.109   5.574  16.191  0.00  0.00    +0.000 C 
ATOM      3  N   UNL     1       6.299   5.901  17.146  0.00  0.00    +0.000 NA
BRANCH   2   7
ATOM      4  C   UNL     1       5.736   3.494  12.722  0.00  0.00    +0.000 A 
ATOM      5  C   UNL     1       6.969   4.161  12.691  0.00  0.00    +0.000 A 
ATOM      6  C   UNL     1       7.430   4.846  13.819  0.00  0.00    +0.000 A 
ATOM      7  C   UNL     1       6.658   4.862  14.984  0.00  0.00    +0.000 A 
ATOM      8  C   UNL     1       5.431   4.199  15.025  0.00  0.00    +0.000 A 
ATOM      9  C   UNL     1       4.970   3.517  13.897  0.00  0.00    +0.000 A 
BRANCH   4  10
ATOM     10  C   UNL     1       5.292   2.776  11.496  0.00  0.00    +0.000 C 
ATOM     11  O   UNL     1       4.172   2.877  11.025  0.00  0.00    +0.000 OA
BRANCH  10  13
ATOM     12  C   UNL     1       6.136   0.614  11.227  0.00  0.00    +0.000 C 
ATOM     13  O   UNL     1       6.300   2.015  11.002  0.00  0.00    +0.000 OA
ENDBRANCH  10  13
ENDBRANCH   4  10
ENDBRANCH   2   7
ENDBRANCH   1   3
BRANCH   1  14
ATOM     14  C   UNL     1       6.829   5.881  19.372  0.00  0.00    +0.000 C 
BRANCH  14  15
ATOM     15  C   UNL     1       5.692   4.871  19.279  0.00  0.00    +0.000 C 
ATOM     16  O   UNL     1       5.934   3.691  19.041  0.00  0.00    +0.000 OA
ATOM     17  N   UNL     1       4.436   5.407  19.511  0.00  0.00    +0.000 N 
ATOM     18  H   UNL     1       4.372   6.422  19.538  0.00  0.00    +0.000 HD
BRANCH  17  19
ATOM     19  C   UNL     1       3.216   4.696  19.542  0.00  0.00    +0.000 A 
ATOM     20  C   UNL     1       2.663   4.178  20.714  0.00  0.00    +0.000 A 
ATOM     21  C   UNL     1       1.472   3.458  20.663  0.00  0.00    +0.000 A 
ATOM     22  F   UNL     1       0.958   2.963  21.796  0.00  0.00    +0.000 F 
ATOM     23  C   UNL     1       0.807   3.244  19.462  0.00  0.00    +0.000 A 
ATOM     24  C   UNL     1       1.334   3.777  18.287  0.00  0.00    +0.000 A 
ATOM     25  C   UNL     1       2.524   4.503  18.336  0.00  0.00    +0.000 A 
ATOM     26  F   UNL     1       3.024   5.002  17.196  0.00  0.00    +0.000 F 
ENDBRANCH  17  19
ENDBRANCH  14  15
ENDBRANCH   1  14
TORSDOF 7
ENDMDL
MODEL 7
REMARK VINA RESULT:      -7.4      1.515      2.250
REMARK  Name = 
REMARK  8 active torsions:
REMARK  status: ('A' for Active; 'I' for Inactive)
REMARK    1  A    between atoms: C_1  and  O_2
REMARK    2  A    between atoms: O_2  and  C_3
REMARK    3  A    between atoms: C_3  and  C_5
REMARK    4  A    between atoms: C_8  and  C_9
REMARK    5  A    between atoms: N_10  and  O_11
REMARK    6  A    between atoms: O_11  and  C_12
REMARK    7  A    between atoms: C_12  and  C_13
REMARK    8  A    between atoms: N_15  and  C_16
REMARK                            x       y       z     vdW  Elec       q    Type
REMARK                         _______ _______ _______ _____ _____    ______ ____
ROOT
ATOM      1  O   UNL     1       7.249   7.030  17.439  0.00  0.00    +0.000 OA
ENDROOT
BRANCH   1   3
ATOM      2  C   UNL     1       8.361   8.675  18.370  0.00  0.00    +0.000 C 
ATOM      3  N   UNL     1       7.540   8.403  17.408  0.00  0.00    +0.000 NA
BRANCH   2   7
ATOM      4  C   UNL     1       9.779  12.650  19.026  0.00  0.00    +0.000 A 
ATOM      5  C   UNL     1      10.020  11.658  19.986  0.00  0.00    +0.000 A 
ATOM      6  C   UNL     1       9.561  10.353  19.785  0.00  0.00    +0.000 A 
ATOM      7  C   UNL     1       8.861  10.037  18.617  0.00  0.00    +0.000 A 
ATOM      8  C   UNL     1       8.619  11.017  17.654  0.00  0.00    +0.000 A 
ATOM      9  C   UNL     1       9.076  12.321  17.858  0.00  0.00    +0.000 A 
BRANCH   4  10
ATOM     10  C   UNL     1      10.292  14.023  19.286  0.00  0.00    +0.000 C 
ATOM     11  O   UNL     1      11.413  14.394  18.977  0.00  0.00    +0.000 OA
BRANCH  10  13
ATOM     12  C   UNL     1       8.948  15.930  19.164  0.00  0.00    +0.000 C 
ATOM     13  O   UNL     1       9.345  14.774  19.901  0.00  0.00    +0.000 OA
ENDBRANCH  10  13
ENDBRANCH   4  10
ENDBRANCH   2   7
ENDBRANCH   1   3
BRANCH   1  14
ATOM     14  C   UNL     1       5.897   6.853  17.039  0.00  0.00    +0.000 C 
BRANCH  14  15
ATOM     15  C   UNL     1       5.149   5.915  17.977  0.00  0.00    +0.000 C 
ATOM     16  O   UNL     1       5.753   5.315  18.861  0.00  0.00    +0.000 OA
ATOM     17  N   UNL     1       3.785   5.848  17.744  0.00  0.00    +0.000 N 
ATOM     18  H   UNL     1       3.449   6.273  16.883  0.00  0.00    +0.000 HD
BRANCH  17  19
ATOM     19  C   UNL     1       2.844   5.104  18.490  0.00  0.00    +0.000 A 
ATOM     20  C   UNL     1       2.363   3.857  18.088  0.00  0.00    +0.000 A 
ATOM     21  C   UNL     1       1.410   3.197  18.859  0.00  0.00    +0.000 A 
ATOM     22  F   UNL     1       0.955   2.004  18.456  0.00  0.00    +0.000 F 
ATOM     23  C   UNL     1       0.923   3.750  20.036  0.00  0.00    +0.000 A 
ATOM     24  C   UNL     1       1.412   4.984  20.464  0.00  0.00    +0.000 A 
ATOM     25  C   UNL     1       2.371   5.644  19.696  0.00  0.00    +0.000 A 
ATOM     26  F   UNL     1       2.826   6.834  20.116  0.00  0.00    +0.000 F 
ENDBRANCH  17  19
ENDBRANCH  14  15
ENDBRANCH   1  14
TORSDOF 7
ENDMDL
MODEL 8
REMARK VINA RESULT:      -7.3      1.793      2.423
REMARK  Name = 
REMARK  8 active torsions:
REMARK  status: ('A' for Active; 'I' for Inactive)
REMARK    1  A    between atoms: C_1  and  O_2
REMARK    2  A    between atoms: O_2  and  C_3
REMARK    3  A    between atoms: C_3  and  C_5
REMARK    4  A    between atoms: C_8  and  C_9
REMARK    5  A    between atoms: N_10  and  O_11
REMARK    6  A    between atoms: O_11  and  C_12
REMARK    7  A    between atoms: C_12  and  C_13
REMARK    8  A    between atoms: N_15  and  C_16
REMARK                            x       y       z     vdW  Elec       q    Type
REMARK                         _______ _______ _______ _____ _____    ______ ____
ROOT
ATOM      1  O   UNL     1       7.595   7.279  17.840  0.00  0.00    +0.000 OA
ENDROOT
BRANCH   1   3
ATOM      2  C   UNL     1       8.463   9.228  18.349  0.00  0.00    +0.000 C 
ATOM      3  N   UNL     1       8.052   8.513  17.352  0.00  0.00    +0.000 NA
BRANCH   2   7
ATOM      4  C   UNL     1       9.956  13.197  17.835  0.00  0.00    +0.000 A 
ATOM      5  C   UNL     1      10.822  12.176  18.250  0.00  0.00    +0.000 A 
ATOM      6  C   UNL     1      10.347  10.872  18.422  0.00  0.00    +0.000 A 
ATOM      7  C   UNL     1       9.001  10.587  18.177  0.00  0.00    +0.000 A 
ATOM      8  C   UNL     1       8.131  11.596  17.762  0.00  0.00    +0.000 A 
ATOM      9  C   UNL     1       8.607  12.899  17.592  0.00  0.00    +0.000 A 
BRANCH   4  10
ATOM     10  C   UNL     1      10.512  14.566  17.662  0.00  0.00    +0.000 C 
ATOM     11  O   UNL     1      11.271  14.876  16.759  0.00  0.00    +0.000 OA
BRANCH  10  13
ATOM     12  C   UNL     1      10.547  16.727  18.550  0.00  0.00    +0.000 C 
ATOM     13  O   UNL     1      10.054  15.390  18.638  0.00  0.00    +0.000 OA
ENDBRANCH  10  13
ENDBRANCH   4  10
ENDBRANCH   2   7
ENDBRANCH   1   3
BRANCH   1  14
ATOM     14  C   UNL     1       6.355   6.985  17.213  0.00  0.00    +0.000 C 
BRANCH  14  15
ATOM     15  C   UNL     1       5.613   5.863  17.927  0.00  0.00    +0.000 C 
ATOM     16  O   UNL     1       5.956   5.516  19.054  0.00  0.00    +0.000 OA
ATOM     17  N   UNL     1       4.553   5.335  17.209  0.00  0.00    +0.000 N 
ATOM     18  H   UNL     1       4.484   5.609  16.231  0.00  0.00    +0.000 HD
BRANCH  17  19
ATOM     19  C   UNL     1       3.664   4.329  17.646  0.00  0.00    +0.000 A 
ATOM     20  C   UNL     1       4.049   3.001  17.841  0.00  0.00    +0.000 A 
ATOM     21  C   UNL     1       3.109   2.055  18.241  0.00  0.00    +0.000 A 
ATOM     22  F   UNL     1       3.493   0.785  18.419  0.00  0.00    +0.000 F 
ATOM     23  C   UNL     1       1.782   2.403  18.461  0.00  0.00    +0.000 A 
ATOM     24  C   UNL     1       1.388   3.730  18.294  0.00  0.00    +0.000 A 
ATOM     25  C   UNL     1       2.329   4.680  17.899  0.00  0.00    +0.000 A 
ATOM     26  F   UNL     1       1.933   5.951  17.734  0.00  0.00    +0.000 F 
ENDBRANCH  17  19
ENDBRANCH  14  15
ENDBRANCH   1  14
TORSDOF 7
ENDMDL
MODEL 9
REMARK VINA RESULT:      -7.3      1.583      1.715
REMARK  Name = 
REMARK  8 active torsions:
REMARK  status: ('A' for Active; 'I' for Inactive)
REMARK    1  A    between atoms: C_1  and  O_2
REMARK    2  A    between atoms: O_2  and  C_3
REMARK    3  A    between atoms: C_3  and  C_5
REMARK    4  A    between atoms: C_8  and  C_9
REMARK    5  A    between atoms: N_10  and  O_11
REMARK    6  A    between atoms: O_11  and  C_12
REMARK    7  A    between atoms: C_12  and  C_13
REMARK    8  A    between atoms: N_15  and  C_16
REMARK                            x       y       z     vdW  Elec       q    Type
REMARK                         _______ _______ _______ _____ _____    ______ ____
ROOT
ATOM      1  O   UNL     1       7.777   7.076  17.806  0.00  0.00    +0.000 OA
ENDROOT
BRANCH   1   3
ATOM      2  C   UNL     1       8.316   9.194  17.977  0.00  0.00    +0.000 C 
ATOM      3  N   UNL     1       8.427   8.053  18.575  0.00  0.00    +0.000 NA
BRANCH   2   7
ATOM      4  C   UNL     1      10.033  12.744  19.619  0.00  0.00    +0.000 A 
ATOM      5  C   UNL     1       9.396  12.792  18.372  0.00  0.00    +0.000 A 
ATOM      6  C   UNL     1       8.830  11.638  17.823  0.00  0.00    +0.000 A 
ATOM      7  C   UNL     1       8.898  10.431  18.523  0.00  0.00    +0.000 A 
ATOM      8  C   UNL     1       9.529  10.374  19.767  0.00  0.00    +0.000 A 
ATOM      9  C   UNL     1      10.096  11.527  20.314  0.00  0.00    +0.000 A 
BRANCH   4  10
ATOM     10  C   UNL     1      10.616  14.001  20.163  0.00  0.00    +0.000 C 
ATOM     11  O   UNL     1      11.789  14.311  20.034  0.00  0.00    +0.000 OA
BRANCH  10  13
ATOM     12  C   UNL     1      10.023  15.111  22.132  0.00  0.00    +0.000 C 
ATOM     13  O   UNL     1       9.665  14.724  20.805  0.00  0.00    +0.000 OA
ENDBRANCH  10  13
ENDBRANCH   4  10
ENDBRANCH   2   7
ENDBRANCH   1   3
BRANCH   1  14
ATOM     14  C   UNL     1       7.493   5.966  18.646  0.00  0.00    +0.000 C 
BRANCH  14  15
ATOM     15  C   UNL     1       6.325   5.142  18.119  0.00  0.00    +0.000 C 
ATOM     16  O   UNL     1       6.427   4.539  17.054  0.00  0.00    +0.000 OA
ATOM     17  N   UNL     1       5.215   5.134  18.948  0.00  0.00    +0.000 N 
ATOM     18  H   UNL     1       5.215   5.803  19.715  0.00  0.00    +0.000 HD
BRANCH  17  19
ATOM     19  C   UNL     1       4.018   4.415  18.736  0.00  0.00    +0.000 A 
ATOM     20  C   UNL     1       2.971   4.890  17.945  0.00  0.00    +0.000 A 
ATOM     21  C   UNL     1       1.806   4.141  17.809  0.00  0.00    +0.000 A 
ATOM     22  F   UNL     1       0.808   4.613  17.051  0.00  0.00    +0.000 F 
ATOM     23  C   UNL     1       1.656   2.914  18.443  0.00  0.00    +0.000 A 
ATOM     24  C   UNL     1       2.703   2.415  19.218  0.00  0.00    +0.000 A 
ATOM     25  C   UNL     1       3.874   3.161  19.350  0.00  0.00    +0.000 A 
ATOM     26  F   UNL     1       4.870   2.672  20.105  0.00  0.00    +0.000 F 
ENDBRANCH  17  19
ENDBRANCH  14  15
ENDBRANCH   1  14
TORSDOF 7
ENDMDL
