MODEL 1
REMARK VINA RESULT:      -5.8      0.000      0.000
REMARK  Name = 
REMARK  1 active torsions:
REMARK  status: ('A' for Active; 'I' for Inactive)
REMARK    1  A    between atoms: C_8  and  O_9
REMARK                            x       y       z     vdW  Elec       q    Type
REMARK                         _______ _______ _______ _____ _____    ______ ____
ROOT
ATOM      1  O   UNL     1       3.966   7.070  17.205  0.00  0.00    +0.000 OA
ATOM      2  C   UNL     1       4.496   6.097  17.730  0.00  0.00    +0.000 C 
ATOM      3  C   UNL     1       5.979   6.000  17.958  0.00  0.00    +0.000 C 
ATOM      4  C   UNL     1       6.194   5.231  19.245  0.00  0.00    +0.000 C 
ATOM      5  O   UNL     1       5.680   3.898  19.152  0.00  0.00    +0.000 OA
ATOM      6  C   UNL     1       4.364   3.854  18.767  0.00  0.00    +0.000 A 
ATOM      7  C   UNL     1       3.677   2.672  19.043  0.00  0.00    +0.000 A 
ATOM      8  C   UNL     1       2.338   2.561  18.674  0.00  0.00    +0.000 A 
ATOM      9  C   UNL     1       1.681   3.606  18.030  0.00  0.00    +0.000 A 
ATOM     10  C   UNL     1       2.371   4.784  17.739  0.00  0.00    +0.000 A 
ATOM     11  C   UNL     1       3.716   4.898  18.099  0.00  0.00    +0.000 A 
ENDROOT
BRANCH   8  12
ATOM     12  O   UNL     1       1.624   1.427  18.927  0.00  0.00    +0.000 OA
ATOM     13  H   UNL     1       1.441   1.375  19.880  0.00  0.00    +0.000 HD
ENDBRANCH   8  12
TORSDOF 1
ENDMDL
MODEL 2
REMARK VINA RESULT:      -5.7      2.408      2.658
REMARK  Name = 
REMARK  1 active torsions:
REMARK  status: ('A' for Active; 'I' for Inactive)
REMARK    1  A    between atoms: C_8  and  O_9
REMARK                            x       y       z     vdW  Elec       q    Type
REMARK                         _______ _______ _______ _____ _____    ______ ____
ROOT
ATOM      1  O   UNL     1       5.608   6.642  15.275  0.00  0.00    +0.000 OA
ATOM      2  C   UNL     1       5.801   5.878  16.214  0.00  0.00    +0.000 C 
ATOM      3  C   UNL     1       6.853   4.805  16.189  0.00  0.00    +0.000 C 
ATOM      4  C   UNL     1       7.391   4.660  17.596  0.00  0.00    +0.000 C 
ATOM      5  O   UNL     1       6.369   4.245  18.510  0.00  0.00    +0.000 OA
ATOM      6  C   UNL     1       5.265   5.059  18.486  0.00  0.00    +0.000 A 
ATOM      7  C   UNL     1       4.421   4.990  19.595  0.00  0.00    +0.000 A 
ATOM      8  C   UNL     1       3.280   5.788  19.632  0.00  0.00    +0.000 A 
ATOM      9  C   UNL     1       2.967   6.645  18.580  0.00  0.00    +0.000 A 
ATOM     10  C   UNL     1       3.802   6.705  17.464  0.00  0.00    +0.000 A 
ATOM     11  C   UNL     1       4.944   5.901  17.417  0.00  0.00    +0.000 A 
ENDROOT
BRANCH   8  12
ATOM     12  O   UNL     1       2.427   5.758  20.696  0.00  0.00    +0.000 OA
ATOM     13  H   UNL     1       2.226   4.832  20.914  0.00  0.00    +0.000 HD
ENDBRANCH   8  12
TORSDOF 1
ENDMDL
MODEL 3
REMARK VINA RESULT:      -5.7      1.842      4.115
REMARK  Name = 
REMARK  1 active torsions:
REMARK  status: ('A' for Active; 'I' for Inactive)
REMARK    1  A    between atoms: C_8  and  O_9
REMARK                            x       y       z     vdW  Elec       q    Type
REMARK                         _______ _______ _______ _____ _____    ______ ____
ROOT
ATOM      1  O   UNL     1       2.219   2.825  17.073  0.00  0.00    +0.000 OA
ATOM      2  C   UNL     1       3.114   3.119  17.858  0.00  0.00    +0.000 C 
ATOM      3  C   UNL     1       3.037   2.821  19.330  0.00  0.00    +0.000 C 
ATOM      4  C   UNL     1       4.438   2.507  19.806  0.00  0.00    +0.000 C 
ATOM      5  O   UNL     1       5.315   3.627  19.634  0.00  0.00    +0.000 OA
ATOM      6  C   UNL     1       5.328   4.106  18.349  0.00  0.00    +0.000 A 
ATOM      7  C   UNL     1       6.422   4.896  17.994  0.00  0.00    +0.000 A 
ATOM      8  C   UNL     1       6.495   5.418  16.704  0.00  0.00    +0.000 A 
ATOM      9  C   UNL     1       5.492   5.169  15.771  0.00  0.00    +0.000 A 
ATOM     10  C   UNL     1       4.389   4.392  16.128  0.00  0.00    +0.000 A 
ATOM     11  C   UNL     1       4.307   3.872  17.423  0.00  0.00    +0.000 A 
ENDROOT
BRANCH   8  12
ATOM     12  O   UNL     1       7.546   6.192  16.310  0.00  0.00    +0.000 OA
ATOM     13  H   UNL     1       7.781   6.798  17.033  0.00  0.00    +0.000 HD
ENDBRANCH   8  12
TORSDOF 1
ENDMDL
MODEL 4
REMARK VINA RESULT:      -5.6      1.453      1.465
REMARK  Name = 
REMARK  1 active torsions:
REMARK  status: ('A' for Active; 'I' for Inactive)
REMARK    1  A    between atoms: C_8  and  O_9
REMARK                            x       y       z     vdW  Elec       q    Type
REMARK                         _______ _______ _______ _____ _____    ______ ____
ROOT
ATOM      1  O   UNL     1       3.673   7.422  17.685  0.00  0.00    +0.000 OA
ATOM      2  C   UNL     1       4.038   6.321  17.289  0.00  0.00    +0.000 C 
ATOM      3  C   UNL     1       5.155   6.140  16.300  0.00  0.00    +0.000 C 
ATOM      4  C   UNL     1       5.875   4.856  16.654  0.00  0.00    +0.000 C 
ATOM      5  O   UNL     1       5.009   3.721  16.545  0.00  0.00    +0.000 OA
ATOM      6  C   UNL     1       3.853   3.854  17.273  0.00  0.00    +0.000 A 
ATOM      7  C   UNL     1       3.163   2.676  17.560  0.00  0.00    +0.000 A 
ATOM      8  C   UNL     1       1.980   2.742  18.292  0.00  0.00    +0.000 A 
ATOM      9  C   UNL     1       1.476   3.962  18.734  0.00  0.00    +0.000 A 
ATOM     10  C   UNL     1       2.156   5.143  18.436  0.00  0.00    +0.000 A 
ATOM     11  C   UNL     1       3.340   5.084  17.694  0.00  0.00    +0.000 A 
ENDROOT
BRANCH   8  12
ATOM     12  O   UNL     1       1.273   1.618  18.600  0.00  0.00    +0.000 OA
ATOM     13  H   UNL     1       1.837   0.840  18.454  0.00  0.00    +0.000 HD
ENDBRANCH   8  12
TORSDOF 1
ENDMDL
MODEL 5
REMARK VINA RESULT:      -5.6      2.062      3.833
REMARK  Name = 
REMARK  1 active torsions:
REMARK  status: ('A' for Active; 'I' for Inactive)
REMARK    1  A    between atoms: C_8  and  O_9
REMARK                            x       y       z     vdW  Elec       q    Type
REMARK                         _______ _______ _______ _____ _____    ______ ____
ROOT
ATOM      1  O   UNL     1       1.657   3.830  17.122  0.00  0.00    +0.000 OA
ATOM      2  C   UNL     1       2.467   4.375  17.863  0.00  0.00    +0.000 C 
ATOM      3  C   UNL     1       2.061   5.175  19.069  0.00  0.00    +0.000 C 
ATOM      4  C   UNL     1       3.122   4.974  20.130  0.00  0.00    +0.000 C 
ATOM      5  O   UNL     1       4.397   5.460  19.695  0.00  0.00    +0.000 OA
ATOM      6  C   UNL     1       4.795   4.928  18.495  0.00  0.00    +0.000 A 
ATOM      7  C   UNL     1       6.156   5.011  18.201  0.00  0.00    +0.000 A 
ATOM      8  C   UNL     1       6.625   4.494  16.995  0.00  0.00    +0.000 A 
ATOM      9  C   UNL     1       5.756   3.904  16.081  0.00  0.00    +0.000 A 
ATOM     10  C   UNL     1       4.392   3.834  16.365  0.00  0.00    +0.000 A 
ATOM     11  C   UNL     1       3.915   4.358  17.570  0.00  0.00    +0.000 A 
ENDROOT
BRANCH   8  12
ATOM     12  O   UNL     1       7.947   4.549  16.666  0.00  0.00    +0.000 OA
ATOM     13  H   UNL     1       8.473   4.217  17.413  0.00  0.00    +0.000 HD
ENDBRANCH   8  12
TORSDOF 1
ENDMDL
MODEL 6
REMARK VINA RESULT:      -5.6      1.916      2.231
REMARK  Name = 
REMARK  1 active torsions:
REMARK  status: ('A' for Active; 'I' for Inactive)
REMARK    1  A    between atoms: C_8  and  O_9
REMARK                            x       y       z     vdW  Elec       q    Type
REMARK                         _______ _______ _______ _____ _____    ______ ____
ROOT
ATOM      1  O   UNL     1       6.808   4.302  15.697  0.00  0.00    +0.000 OA
ATOM      2  C   UNL     1       6.654   4.478  16.901  0.00  0.00    +0.000 C 
ATOM      3  C   UNL     1       7.804   4.682  17.848  0.00  0.00    +0.000 C 
ATOM      4  C   UNL     1       7.343   5.641  18.925  0.00  0.00    +0.000 C 
ATOM      5  O   UNL     1       6.251   5.101  19.677  0.00  0.00    +0.000 OA
ATOM      6  C   UNL     1       5.200   4.704  18.889  0.00  0.00    +0.000 A 
ATOM      7  C   UNL     1       3.968   4.560  19.527  0.00  0.00    +0.000 A 
ATOM      8  C   UNL     1       2.860   4.156  18.785  0.00  0.00    +0.000 A 
ATOM      9  C   UNL     1       2.967   3.889  17.422  0.00  0.00    +0.000 A 
ATOM     10  C   UNL     1       4.202   4.017  16.785  0.00  0.00    +0.000 A 
ATOM     11  C   UNL     1       5.318   4.415  17.526  0.00  0.00    +0.000 A 
ENDROOT
BRANCH   8  12
ATOM     12  O   UNL     1       1.635   4.005  19.363  0.00  0.00    +0.000 OA
ATOM     13  H   UNL     1       0.995   3.737  18.683  0.00  0.00    +0.000 HD
ENDBRANCH   8  12
TORSDOF 1
ENDMDL
MODEL 7
REMARK VINA RESULT:      -5.6      1.887      4.414
REMARK  Name = 
REMARK  1 active torsions:
REMARK  status: ('A' for Active; 'I' for Inactive)
REMARK    1  A    between atoms: C_8  and  O_9
REMARK                            x       y       z     vdW  Elec       q    Type
REMARK                         _______ _______ _______ _____ _____    ______ ____
ROOT
ATOM      1  O   UNL     1       2.449   2.552  17.104  0.00  0.00    +0.000 OA
ATOM      2  C   UNL     1       2.674   3.705  17.455  0.00  0.00    +0.000 C 
ATOM      3  C   UNL     1       1.640   4.573  18.116  0.00  0.00    +0.000 C 
ATOM      4  C   UNL     1       2.357   5.463  19.108  0.00  0.00    +0.000 C 
ATOM      5  O   UNL     1       3.297   6.326  18.456  0.00  0.00    +0.000 OA
ATOM      6  C   UNL     1       4.191   5.648  17.667  0.00  0.00    +0.000 A 
ATOM      7  C   UNL     1       5.363   6.328  17.335  0.00  0.00    +0.000 A 
ATOM      8  C   UNL     1       6.311   5.697  16.533  0.00  0.00    +0.000 A 
ATOM      9  C   UNL     1       6.104   4.406  16.055  0.00  0.00    +0.000 A 
ATOM     10  C   UNL     1       4.926   3.730  16.373  0.00  0.00    +0.000 A 
ATOM     11  C   UNL     1       3.967   4.360  17.171  0.00  0.00    +0.000 A 
ENDROOT
BRANCH   8  12
ATOM     12  O   UNL     1       7.473   6.320  16.185  0.00  0.00    +0.000 OA
ATOM     13  H   UNL     1       7.324   7.281  16.168  0.00  0.00    +0.000 HD
ENDBRANCH   8  12
TORSDOF 1
ENDMDL
MODEL 8
REMARK VINA RESULT:      -5.6      1.809      2.363
REMARK  Name = 
REMARK  1 active torsions:
REMARK  status: ('A' for Active; 'I' for Inactive)
REMARK    1  A    between atoms: C_8  and  O_9
REMARK                            x       y       z     vdW  Elec       q    Type
REMARK                         _______ _______ _______ _____ _____    ______ ____
ROOT
ATOM      1  O   UNL     1       2.047   7.522  20.122  0.00  0.00    +0.000 OA
ATOM      2  C   UNL     1       2.486   6.850  19.195  0.00  0.00    +0.000 C 
ATOM      3  C   UNL     1       3.171   7.456  18.002  0.00  0.00    +0.000 C 
ATOM      4  C   UNL     1       4.247   6.491  17.553  0.00  0.00    +0.000 C 
ATOM      5  O   UNL     1       3.690   5.237  17.144  0.00  0.00    +0.000 OA
ATOM      6  C   UNL     1       2.886   4.668  18.100  0.00  0.00    +0.000 A 
ATOM      7  C   UNL     1       2.642   3.301  17.971  0.00  0.00    +0.000 A 
ATOM      8  C   UNL     1       1.830   2.663  18.906  0.00  0.00    +0.000 A 
ATOM      9  C   UNL     1       1.255   3.369  19.959  0.00  0.00    +0.000 A 
ATOM     10  C   UNL     1       1.485   4.740  20.081  0.00  0.00    +0.000 A 
ATOM     11  C   UNL     1       2.293   5.387  19.142  0.00  0.00    +0.000 A 
ENDROOT
BRANCH   8  12
ATOM     12  O   UNL     1       1.566   1.328  18.823  0.00  0.00    +0.000 OA
ATOM     13  H   UNL     1       2.034   0.868  19.540  0.00  0.00    +0.000 HD
ENDBRANCH   8  12
TORSDOF 1
ENDMDL
MODEL 9
REMARK VINA RESULT:      -5.5      1.939      4.170
REMARK  Name = 
REMARK  1 active torsions:
REMARK  status: ('A' for Active; 'I' for Inactive)
REMARK    1  A    between atoms: C_8  and  O_9
REMARK                            x       y       z     vdW  Elec       q    Type
REMARK                         _______ _______ _______ _____ _____    ______ ____
ROOT
ATOM      1  O   UNL     1       0.824   2.275  18.259  0.00  0.00    +0.000 OA
ATOM      2  C   UNL     1       1.365   3.088  19.000  0.00  0.00    +0.000 C 
ATOM      3  C   UNL     1       0.774   3.512  20.315  0.00  0.00    +0.000 C 
ATOM      4  C   UNL     1       1.920   3.768  21.270  0.00  0.00    +0.000 C 
ATOM      5  O   UNL     1       2.760   4.832  20.808  0.00  0.00    +0.000 OA
ATOM      6  C   UNL     1       3.219   4.638  19.530  0.00  0.00    +0.000 A 
ATOM      7  C   UNL     1       4.339   5.380  19.155  0.00  0.00    +0.000 A 
ATOM      8  C   UNL     1       4.853   5.234  17.868  0.00  0.00    +0.000 A 
ATOM      9  C   UNL     1       4.262   4.366  16.953  0.00  0.00    +0.000 A 
ATOM     10  C   UNL     1       3.133   3.634  17.321  0.00  0.00    +0.000 A 
ATOM     11  C   UNL     1       2.608   3.783  18.608  0.00  0.00    +0.000 A 
ENDROOT
BRANCH   8  12
ATOM     12  O   UNL     1       5.948   5.934  17.457  0.00  0.00    +0.000 OA
ATOM     13  H   UNL     1       5.994   6.769  17.954  0.00  0.00    +0.000 HD
ENDBRANCH   8  12
TORSDOF 1
ENDMDL
