MODEL 1
REMARK VINA RESULT:      -7.7      0.000      0.000
REMARK  Name = 
REMARK  15 active torsions:
REMARK  status: ('A' for Active; 'I' for Inactive)
REMARK    1  A    between atoms: C_1  and  C_2
REMARK    2  A    between atoms: C_2  and  C_3
REMARK    3  A    between atoms: C_5  and  C_6
REMARK    4  A    between atoms: C_6  and  C_7
REMARK    5  A    between atoms: C_7  and  P_8
REMARK    6  A    between atoms: P_8  and  O_10
REMARK    7  A    between atoms: P_8  and  O_19
REMARK    8  A    between atoms: O_10  and  C_11
REMARK    9  A    between atoms: C_11  and  O_12
REMARK   10  A    between atoms: O_12  and  C_13
REMARK   11  A    between atoms: C_13  and  C_15
REMARK   12  A    between atoms: C_15  and  C_16
REMARK   13  A    between atoms: C_15  and  C_17
REMARK   14  A    between atoms: C_15  and  C_18
REMARK   15  A    between atoms: O_19  and  C_20
REMARK                            x       y       z     vdW  Elec       q    Type
REMARK                         _______ _______ _______ _____ _____    ______ ____
ROOT
ATOM      1  P   UNL     1       5.479   6.666  17.604  0.00  0.00    +0.000 P 
ATOM      2  O   UNL     1       5.533   6.919  16.090  0.00  0.00    +0.000 OA
ENDROOT
BRANCH   1   3
ATOM      3  C   UNL     1       7.295   6.884  17.697  0.00  0.00    +0.000 C 
BRANCH   3   4
ATOM      4  C   UNL     1       7.898   8.282  17.489  0.00  0.00    +0.000 C 
BRANCH   4   7
ATOM      5  C   UNL     1       8.566  11.321  17.737  0.00  0.00    +0.000 C 
ATOM      6  C   UNL     1       8.955  10.270  18.726  0.00  0.00    +0.000 C 
ATOM      7  C   UNL     1       8.576   8.975  18.662  0.00  0.00    +0.000 C 
BRANCH   6   8
ATOM      8  C   UNL     1       9.881  10.686  19.824  0.00  0.00    +0.000 C 
ATOM      9  O   UNL     1       9.492  11.010  20.944  0.00  0.00    +0.000 OA
ENDBRANCH   6   8
ENDBRANCH   4   7
ENDBRANCH   3   4
ENDBRANCH   1   3
BRANCH   1  10
ATOM     10  O   UNL     1       5.642   5.021  17.845  0.00  0.00    +0.000 OA
BRANCH  10  11
ATOM     11  C   UNL     1       4.959   4.446  18.960  0.00  0.00    +0.000 C 
BRANCH  11  12
ATOM     12  O   UNL     1       4.026   3.411  18.596  0.00  0.00    +0.000 OA
BRANCH  12  13
ATOM     13  C   UNL     1       3.133   3.102  19.563  0.00  0.00    +0.000 C 
ATOM     14  O   UNL     1       3.439   2.601  20.641  0.00  0.00    +0.000 OA
BRANCH  13  15
ATOM     15  C   UNL     1       1.674   3.311  19.135  0.00  0.00    +0.000 C 
ATOM     16  C   UNL     1       1.063   1.909  19.000  0.00  0.00    +0.000 C 
ATOM     17  C   UNL     1       0.957   4.089  20.250  0.00  0.00    +0.000 C 
ATOM     18  C   UNL     1       1.481   4.076  17.817  0.00  0.00    +0.000 C 
ENDBRANCH  13  15
ENDBRANCH  12  13
ENDBRANCH  11  12
ENDBRANCH  10  11
ENDBRANCH   1  10
BRANCH   1  19
ATOM     19  O   UNL     1       3.765   6.459  17.516  0.00  0.00    +0.000 OA
BRANCH  19  20
ATOM     20  C   UNL     1       2.910   7.403  18.034  0.00  0.00    +0.000 A 
ATOM     21  C   UNL     1       2.548   8.562  17.367  0.00  0.00    +0.000 A 
ATOM     22  C   UNL     1       1.754   9.523  18.006  0.00  0.00    +0.000 A 
ATOM     23  C   UNL     1       1.302   9.323  19.321  0.00  0.00    +0.000 A 
ATOM     24  C   UNL     1       0.517  10.290  19.975  0.00  0.00    +0.000 A 
ATOM     25  C   UNL     1       0.064  10.075  21.280  0.00  0.00    +0.000 A 
ATOM     26  C   UNL     1       0.388   8.898  21.939  0.00  0.00    +0.000 A 
ATOM     27  C   UNL     1       1.176   7.934  21.308  0.00  0.00    +0.000 A 
ATOM     28  C   UNL     1       1.638   8.136  19.997  0.00  0.00    +0.000 A 
ATOM     29  C   UNL     1       2.464   7.187  19.342  0.00  0.00    +0.000 A 
ENDBRANCH  19  20
ENDBRANCH   1  19
TORSDOF 11
ENDMDL
MODEL 2
REMARK VINA RESULT:      -7.6      1.041      1.220
REMARK  Name = 
REMARK  15 active torsions:
REMARK  status: ('A' for Active; 'I' for Inactive)
REMARK    1  A    between atoms: C_1  and  C_2
REMARK    2  A    between atoms: C_2  and  C_3
REMARK    3  A    between atoms: C_5  and  C_6
REMARK    4  A    between atoms: C_6  and  C_7
REMARK    5  A    between atoms: C_7  and  P_8
REMARK    6  A    between atoms: P_8  and  O_10
REMARK    7  A    between atoms: P_8  and  O_19
REMARK    8  A    between atoms: O_10  and  C_11
REMARK    9  A    between atoms: C_11  and  O_12
REMARK   10  A    between atoms: O_12  and  C_13
REMARK   11  A    between atoms: C_13  and  C_15
REMARK   12  A    between atoms: C_15  and  C_16
REMARK   13  A    between atoms: C_15  and  C_17
REMARK   14  A    between atoms: C_15  and  C_18
REMARK   15  A    between atoms: O_19  and  C_20
REMARK                            x       y       z     vdW  Elec       q    Type
REMARK                         _______ _______ _______ _____ _____    ______ ____
ROOT
ATOM      1  P   UNL     1       5.423   6.798  17.351  0.00  0.00    +0.000 P 
ATOM      2  O   UNL     1       5.281   6.831  15.822  0.00  0.00    +0.000 OA
ENDROOT
BRANCH   1   3
ATOM      3  C   UNL     1       7.222   7.092  17.182  0.00  0.00    +0.000 C 
BRANCH   3   4
ATOM      4  C   UNL     1       7.919   8.072  18.139  0.00  0.00    +0.000 C 
BRANCH   4   7
ATOM      5  C   UNL     1       9.486  10.283  19.690  0.00  0.00    +0.000 C 
ATOM      6  C   UNL     1       8.819  10.468  18.364  0.00  0.00    +0.000 C 
ATOM      7  C   UNL     1       8.231   9.481  17.655  0.00  0.00    +0.000 C 
BRANCH   6   8
ATOM      8  C   UNL     1       8.755  11.863  17.831  0.00  0.00    +0.000 C 
ATOM      9  O   UNL     1       7.822  12.278  17.146  0.00  0.00    +0.000 OA
ENDBRANCH   6   8
ENDBRANCH   4   7
ENDBRANCH   3   4
ENDBRANCH   1   3
BRANCH   1  10
ATOM     10  O   UNL     1       5.702   5.212  17.796  0.00  0.00    +0.000 OA
BRANCH  10  11
ATOM     11  C   UNL     1       4.817   4.216  17.280  0.00  0.00    +0.000 C 
BRANCH  11  12
ATOM     12  O   UNL     1       4.384   3.260  18.266  0.00  0.00    +0.000 OA
BRANCH  12  13
ATOM     13  C   UNL     1       3.493   3.747  19.158  0.00  0.00    +0.000 C 
ATOM     14  O   UNL     1       3.808   4.370  20.168  0.00  0.00    +0.000 OA
BRANCH  13  15
ATOM     15  C   UNL     1       2.045   3.330  18.864  0.00  0.00    +0.000 C 
ATOM     16  C   UNL     1       2.090   1.832  18.533  0.00  0.00    +0.000 C 
ATOM     17  C   UNL     1       1.214   3.561  20.136  0.00  0.00    +0.000 C 
ATOM     18  C   UNL     1       1.370   4.082  17.707  0.00  0.00    +0.000 C 
ENDBRANCH  13  15
ENDBRANCH  12  13
ENDBRANCH  11  12
ENDBRANCH  10  11
ENDBRANCH   1  10
BRANCH   1  19
ATOM     19  O   UNL     1       3.724   6.519  17.511  0.00  0.00    +0.000 OA
BRANCH  19  20
ATOM     20  C   UNL     1       2.895   7.481  18.035  0.00  0.00    +0.000 A 
ATOM     21  C   UNL     1       2.592   8.671  17.390  0.00  0.00    +0.000 A 
ATOM     22  C   UNL     1       1.822   9.645  18.037  0.00  0.00    +0.000 A 
ATOM     23  C   UNL     1       1.332   9.429  19.336  0.00  0.00    +0.000 A 
ATOM     24  C   UNL     1       0.570  10.409  19.998  0.00  0.00    +0.000 A 
ATOM     25  C   UNL     1       0.079  10.178  21.287  0.00  0.00    +0.000 A 
ATOM     26  C   UNL     1       0.343   8.973  21.922  0.00  0.00    +0.000 A 
ATOM     27  C   UNL     1       1.108   7.995  21.282  0.00  0.00    +0.000 A 
ATOM     28  C   UNL     1       1.607   8.213  19.987  0.00  0.00    +0.000 A 
ATOM     29  C   UNL     1       2.411   7.249  19.326  0.00  0.00    +0.000 A 
ENDBRANCH  19  20
ENDBRANCH   1  19
TORSDOF 11
ENDMDL
MODEL 3
REMARK VINA RESULT:      -7.5      0.955      1.455
REMARK  Name = 
REMARK  15 active torsions:
REMARK  status: ('A' for Active; 'I' for Inactive)
REMARK    1  A    between atoms: C_1  and  C_2
REMARK    2  A    between atoms: C_2  and  C_3
REMARK    3  A    between atoms: C_5  and  C_6
REMARK    4  A    between atoms: C_6  and  C_7
REMARK    5  A    between atoms: C_7  and  P_8
REMARK    6  A    between atoms: P_8  and  O_10
REMARK    7  A    between atoms: P_8  and  O_19
REMARK    8  A    between atoms: O_10  and  C_11
REMARK    9  A    between atoms: C_11  and  O_12
REMARK   10  A    between atoms: O_12  and  C_13
REMARK   11  A    between atoms: C_13  and  C_15
REMARK   12  A    between atoms: C_15  and  C_16
REMARK   13  A    between atoms: C_15  and  C_17
REMARK   14  A    between atoms: C_15  and  C_18
REMARK   15  A    between atoms: O_19  and  C_20
REMARK                            x       y       z     vdW  Elec       q    Type
REMARK                         _______ _______ _______ _____ _____    ______ ____
ROOT
ATOM      1  P   UNL     1       5.307   6.746  17.472  0.00  0.00    +0.000 P 
ATOM      2  O   UNL     1       5.006   6.698  15.966  0.00  0.00    +0.000 OA
ENDROOT
BRANCH   1   3
ATOM      3  C   UNL     1       7.065   7.099  17.102  0.00  0.00    +0.000 C 
BRANCH   3   4
ATOM      4  C   UNL     1       7.869   8.002  18.050  0.00  0.00    +0.000 C 
BRANCH   4   7
ATOM      5  C   UNL     1       9.386  10.170  19.706  0.00  0.00    +0.000 C 
ATOM      6  C   UNL     1       8.785  10.383  18.354  0.00  0.00    +0.000 C 
ATOM      7  C   UNL     1       8.219   9.415  17.603  0.00  0.00    +0.000 C 
BRANCH   6   8
ATOM      8  C   UNL     1       8.762  11.787  17.840  0.00  0.00    +0.000 C 
ATOM      9  O   UNL     1       9.032  12.762  18.538  0.00  0.00    +0.000 OA
ENDBRANCH   6   8
ENDBRANCH   4   7
ENDBRANCH   3   4
ENDBRANCH   1   3
BRANCH   1  10
ATOM     10  O   UNL     1       5.696   5.196  17.957  0.00  0.00    +0.000 OA
BRANCH  10  11
ATOM     11  C   UNL     1       5.372   4.823  19.297  0.00  0.00    +0.000 C 
BRANCH  11  12
ATOM     12  O   UNL     1       4.761   3.523  19.404  0.00  0.00    +0.000 OA
BRANCH  12  13
ATOM     13  C   UNL     1       3.420   3.552  19.574  0.00  0.00    +0.000 C 
ATOM     14  O   UNL     1       2.861   4.140  20.495  0.00  0.00    +0.000 OA
BRANCH  13  15
ATOM     15  C   UNL     1       2.660   2.662  18.581  0.00  0.00    +0.000 C 
ATOM     16  C   UNL     1       2.507   3.489  17.296  0.00  0.00    +0.000 C 
ATOM     17  C   UNL     1       3.517   1.417  18.304  0.00  0.00    +0.000 C 
ATOM     18  C   UNL     1       1.273   2.195  19.048  0.00  0.00    +0.000 C 
ENDBRANCH  13  15
ENDBRANCH  12  13
ENDBRANCH  11  12
ENDBRANCH  10  11
ENDBRANCH   1  10
BRANCH   1  19
ATOM     19  O   UNL     1       3.646   6.413  17.821  0.00  0.00    +0.000 OA
BRANCH  19  20
ATOM     20  C   UNL     1       2.805   7.402  18.273  0.00  0.00    +0.000 A 
ATOM     21  C   UNL     1       2.462   8.520  17.528  0.00  0.00    +0.000 A 
ATOM     22  C   UNL     1       1.682   9.533  18.101  0.00  0.00    +0.000 A 
ATOM     23  C   UNL     1       1.224   9.428  19.425  0.00  0.00    +0.000 A 
ATOM     24  C   UNL     1       0.453  10.448  20.010  0.00  0.00    +0.000 A 
ATOM     25  C   UNL     1      -0.005  10.327  21.326  0.00  0.00    +0.000 A 
ATOM     26  C   UNL     1       0.299   9.192  22.063  0.00  0.00    +0.000 A 
ATOM     27  C   UNL     1       1.074   8.176  21.499  0.00  0.00    +0.000 A 
ATOM     28  C   UNL     1       1.541   8.283  20.179  0.00  0.00    +0.000 A 
ATOM     29  C   UNL     1       2.354   7.280  19.591  0.00  0.00    +0.000 A 
ENDBRANCH  19  20
ENDBRANCH   1  19
TORSDOF 11
ENDMDL
MODEL 4
REMARK VINA RESULT:      -7.4      1.798      2.560
REMARK  Name = 
REMARK  15 active torsions:
REMARK  status: ('A' for Active; 'I' for Inactive)
REMARK    1  A    between atoms: C_1  and  C_2
REMARK    2  A    between atoms: C_2  and  C_3
REMARK    3  A    between atoms: C_5  and  C_6
REMARK    4  A    between atoms: C_6  and  C_7
REMARK    5  A    between atoms: C_7  and  P_8
REMARK    6  A    between atoms: P_8  and  O_10
REMARK    7  A    between atoms: P_8  and  O_19
REMARK    8  A    between atoms: O_10  and  C_11
REMARK    9  A    between atoms: C_11  and  O_12
REMARK   10  A    between atoms: O_12  and  C_13
REMARK   11  A    between atoms: C_13  and  C_15
REMARK   12  A    between atoms: C_15  and  C_16
REMARK   13  A    between atoms: C_15  and  C_17
REMARK   14  A    between atoms: C_15  and  C_18
REMARK   15  A    between atoms: O_19  and  C_20
REMARK                            x       y       z     vdW  Elec       q    Type
REMARK                         _______ _______ _______ _____ _____    ______ ____
ROOT
ATOM      1  P   UNL     1       4.037   5.606  17.954  0.00  0.00    +0.000 P 
ATOM      2  O   UNL     1       2.808   4.787  17.532  0.00  0.00    +0.000 OA
ENDROOT
BRANCH   1   3
ATOM      3  C   UNL     1       4.978   4.903  16.550  0.00  0.00    +0.000 C 
BRANCH   3   4
ATOM      4  C   UNL     1       6.514   4.927  16.583  0.00  0.00    +0.000 C 
BRANCH   4   7
ATOM      5  C   UNL     1       7.914   5.912  19.194  0.00  0.00    +0.000 C 
ATOM      6  C   UNL     1       7.744   6.722  17.949  0.00  0.00    +0.000 C 
ATOM      7  C   UNL     1       7.227   6.256  16.793  0.00  0.00    +0.000 C 
BRANCH   6   8
ATOM      8  C   UNL     1       8.120   8.168  18.029  0.00  0.00    +0.000 C 
ATOM      9  O   UNL     1       7.523   9.051  17.418  0.00  0.00    +0.000 OA
ENDBRANCH   6   8
ENDBRANCH   4   7
ENDBRANCH   3   4
ENDBRANCH   1   3
BRANCH   1  10
ATOM     10  O   UNL     1       4.912   4.680  19.034  0.00  0.00    +0.000 OA
BRANCH  10  11
ATOM     11  C   UNL     1       4.714   3.266  19.003  0.00  0.00    +0.000 C 
BRANCH  11  12
ATOM     12  O   UNL     1       4.024   2.753  20.159  0.00  0.00    +0.000 OA
BRANCH  12  13
ATOM     13  C   UNL     1       2.717   2.480  19.949  0.00  0.00    +0.000 C 
ATOM     14  O   UNL     1       2.306   1.753  19.049  0.00  0.00    +0.000 OA
BRANCH  13  15
ATOM     15  C   UNL     1       1.774   3.275  20.864  0.00  0.00    +0.000 C 
ATOM     16  C   UNL     1       1.205   2.266  21.871  0.00  0.00    +0.000 C 
ATOM     17  C   UNL     1       2.607   4.337  21.599  0.00  0.00    +0.000 C 
ATOM     18  C   UNL     1       0.614   3.985  20.150  0.00  0.00    +0.000 C 
ENDBRANCH  13  15
ENDBRANCH  12  13
ENDBRANCH  11  12
ENDBRANCH  10  11
ENDBRANCH   1  10
BRANCH   1  19
ATOM     19  O   UNL     1       3.149   6.271  19.280  0.00  0.00    +0.000 OA
BRANCH  19  20
ATOM     20  C   UNL     1       2.404   7.416  19.131  0.00  0.00    +0.000 A 
ATOM     21  C   UNL     1       2.359   8.158  17.961  0.00  0.00    +0.000 A 
ATOM     22  C   UNL     1       1.658   9.370  17.924  0.00  0.00    +0.000 A 
ATOM     23  C   UNL     1       0.980   9.845  19.059  0.00  0.00    +0.000 A 
ATOM     24  C   UNL     1       0.286  11.068  19.033  0.00  0.00    +0.000 A 
ATOM     25  C   UNL     1      -0.393  11.524  20.166  0.00  0.00    +0.000 A 
ATOM     26  C   UNL     1      -0.387  10.766  21.329  0.00  0.00    +0.000 A 
ATOM     27  C   UNL     1       0.307   9.555  21.373  0.00  0.00    +0.000 A 
ATOM     28  C   UNL     1       0.993   9.084  20.242  0.00  0.00    +0.000 A 
ATOM     29  C   UNL     1       1.731   7.872  20.269  0.00  0.00    +0.000 A 
ENDBRANCH  19  20
ENDBRANCH   1  19
TORSDOF 11
ENDMDL
MODEL 5
REMARK VINA RESULT:      -7.4      1.158      2.041
REMARK  Name = 
REMARK  15 active torsions:
REMARK  status: ('A' for Active; 'I' for Inactive)
REMARK    1  A    between atoms: C_1  and  C_2
REMARK    2  A    between atoms: C_2  and  C_3
REMARK    3  A    between atoms: C_5  and  C_6
REMARK    4  A    between atoms: C_6  and  C_7
REMARK    5  A    between atoms: C_7  and  P_8
REMARK    6  A    between atoms: P_8  and  O_10
REMARK    7  A    between atoms: P_8  and  O_19
REMARK    8  A    between atoms: O_10  and  C_11
REMARK    9  A    between atoms: C_11  and  O_12
REMARK   10  A    between atoms: O_12  and  C_13
REMARK   11  A    between atoms: C_13  and  C_15
REMARK   12  A    between atoms: C_15  and  C_16
REMARK   13  A    between atoms: C_15  and  C_17
REMARK   14  A    between atoms: C_15  and  C_18
REMARK   15  A    between atoms: O_19  and  C_20
REMARK                            x       y       z     vdW  Elec       q    Type
REMARK                         _______ _______ _______ _____ _____    ______ ____
ROOT
ATOM      1  P   UNL     1       5.368   6.873  17.213  0.00  0.00    +0.000 P 
ATOM      2  O   UNL     1       5.422   6.770  15.681  0.00  0.00    +0.000 OA
ENDROOT
BRANCH   1   3
ATOM      3  C   UNL     1       7.198   6.846  17.272  0.00  0.00    +0.000 C 
BRANCH   3   4
ATOM      4  C   UNL     1       7.939   7.844  18.175  0.00  0.00    +0.000 C 
BRANCH   4   7
ATOM      5  C   UNL     1       9.402  10.150  19.686  0.00  0.00    +0.000 C 
ATOM      6  C   UNL     1       8.714  10.286  18.366  0.00  0.00    +0.000 C 
ATOM      7  C   UNL     1       8.171   9.262  17.673  0.00  0.00    +0.000 C 
BRANCH   6   8
ATOM      8  C   UNL     1       8.571  11.670  17.819  0.00  0.00    +0.000 C 
ATOM      9  O   UNL     1       9.529  12.358  17.474  0.00  0.00    +0.000 OA
ENDBRANCH   6   8
ENDBRANCH   4   7
ENDBRANCH   3   4
ENDBRANCH   1   3
BRANCH   1  10
ATOM     10  O   UNL     1       5.303   5.318  17.821  0.00  0.00    +0.000 OA
BRANCH  10  11
ATOM     11  C   UNL     1       4.358   4.421  17.236  0.00  0.00    +0.000 C 
BRANCH  11  12
ATOM     12  O   UNL     1       3.711   3.559  18.193  0.00  0.00    +0.000 OA
BRANCH  12  13
ATOM     13  C   UNL     1       2.361   3.578  18.133  0.00  0.00    +0.000 C 
ATOM     14  O   UNL     1       1.723   4.133  17.243  0.00  0.00    +0.000 OA
BRANCH  13  15
ATOM     15  C   UNL     1       1.688   2.952  19.363  0.00  0.00    +0.000 C 
ATOM     16  C   UNL     1       2.821   2.375  20.223  0.00  0.00    +0.000 C 
ATOM     17  C   UNL     1       0.965   4.070  20.131  0.00  0.00    +0.000 C 
ATOM     18  C   UNL     1       0.669   1.844  19.059  0.00  0.00    +0.000 C 
ENDBRANCH  13  15
ENDBRANCH  12  13
ENDBRANCH  11  12
ENDBRANCH  10  11
ENDBRANCH   1  10
BRANCH   1  19
ATOM     19  O   UNL     1       3.640   6.899  17.159  0.00  0.00    +0.000 OA
BRANCH  19  20
ATOM     20  C   UNL     1       2.909   7.523  18.142  0.00  0.00    +0.000 A 
ATOM     21  C   UNL     1       2.738   7.008  19.417  0.00  0.00    +0.000 A 
ATOM     22  C   UNL     1       1.893   7.655  20.328  0.00  0.00    +0.000 A 
ATOM     23  C   UNL     1       1.221   8.837  19.973  0.00  0.00    +0.000 A 
ATOM     24  C   UNL     1       0.359   9.483  20.877  0.00  0.00    +0.000 A 
ATOM     25  C   UNL     1      -0.295  10.664  20.515  0.00  0.00    +0.000 A 
ATOM     26  C   UNL     1      -0.095  11.208  19.255  0.00  0.00    +0.000 A 
ATOM     27  C   UNL     1       0.748  10.571  18.342  0.00  0.00    +0.000 A 
ATOM     28  C   UNL     1       1.413   9.384  18.691  0.00  0.00    +0.000 A 
ATOM     29  C   UNL     1       2.252   8.701  17.774  0.00  0.00    +0.000 A 
ENDBRANCH  19  20
ENDBRANCH   1  19
TORSDOF 11
ENDMDL
MODEL 6
REMARK VINA RESULT:      -7.3      3.238      4.041
REMARK  Name = 
REMARK  15 active torsions:
REMARK  status: ('A' for Active; 'I' for Inactive)
REMARK    1  A    between atoms: C_1  and  C_2
REMARK    2  A    between atoms: C_2  and  C_3
REMARK    3  A    between atoms: C_5  and  C_6
REMARK    4  A    between atoms: C_6  and  C_7
REMARK    5  A    between atoms: C_7  and  P_8
REMARK    6  A    between atoms: P_8  and  O_10
REMARK    7  A    between atoms: P_8  and  O_19
REMARK    8  A    between atoms: O_10  and  C_11
REMARK    9  A    between atoms: C_11  and  O_12
REMARK   10  A    between atoms: O_12  and  C_13
REMARK   11  A    between atoms: C_13  and  C_15
REMARK   12  A    between atoms: C_15  and  C_16
REMARK   13  A    between atoms: C_15  and  C_17
REMARK   14  A    between atoms: C_15  and  C_18
REMARK   15  A    between atoms: O_19  and  C_20
REMARK                            x       y       z     vdW  Elec       q    Type
REMARK                         _______ _______ _______ _____ _____    ______ ____
ROOT
ATOM      1  P   UNL     1       4.459   5.421  18.168  0.00  0.00    +0.000 P 
ATOM      2  O   UNL     1       3.532   4.539  17.318  0.00  0.00    +0.000 OA
ENDROOT
BRANCH   1   3
ATOM      3  C   UNL     1       5.880   4.912  17.132  0.00  0.00    +0.000 C 
BRANCH   3   4
ATOM      4  C   UNL     1       5.644   4.533  15.662  0.00  0.00    +0.000 C 
BRANCH   4   7
ATOM      5  C   UNL     1       6.114   3.481  12.761  0.00  0.00    +0.000 C 
ATOM      6  C   UNL     1       6.793   4.666  13.368  0.00  0.00    +0.000 C 
ATOM      7  C   UNL     1       6.510   5.174  14.586  0.00  0.00    +0.000 C 
BRANCH   6   8
ATOM      8  C   UNL     1       7.904   5.284  12.580  0.00  0.00    +0.000 C 
ATOM      9  O   UNL     1       8.803   5.947  13.093  0.00  0.00    +0.000 OA
ENDBRANCH   6   8
ENDBRANCH   4   7
ENDBRANCH   3   4
ENDBRANCH   1   3
BRANCH   1  10
ATOM     10  O   UNL     1       5.019   4.486  19.435  0.00  0.00    +0.000 OA
BRANCH  10  11
ATOM     11  C   UNL     1       4.850   3.071  19.336  0.00  0.00    +0.000 C 
BRANCH  11  12
ATOM     12  O   UNL     1       4.002   2.517  20.359  0.00  0.00    +0.000 OA
BRANCH  12  13
ATOM     13  C   UNL     1       2.703   2.402  20.002  0.00  0.00    +0.000 C 
ATOM     14  O   UNL     1       2.322   1.820  18.991  0.00  0.00    +0.000 OA
BRANCH  13  15
ATOM     15  C   UNL     1       1.748   3.187  20.912  0.00  0.00    +0.000 C 
ATOM     16  C   UNL     1       0.598   3.665  20.014  0.00  0.00    +0.000 C 
ATOM     17  C   UNL     1       1.212   2.224  21.983  0.00  0.00    +0.000 C 
ATOM     18  C   UNL     1       2.370   4.398  21.624  0.00  0.00    +0.000 C 
ENDBRANCH  13  15
ENDBRANCH  12  13
ENDBRANCH  11  12
ENDBRANCH  10  11
ENDBRANCH   1  10
BRANCH   1  19
ATOM     19  O   UNL     1       3.117   5.901  19.147  0.00  0.00    +0.000 OA
BRANCH  19  20
ATOM     20  C   UNL     1       2.509   7.120  18.967  0.00  0.00    +0.000 A 
ATOM     21  C   UNL     1       2.586   7.852  17.792  0.00  0.00    +0.000 A 
ATOM     22  C   UNL     1       2.025   9.134  17.724  0.00  0.00    +0.000 A 
ATOM     23  C   UNL     1       1.365   9.690  18.832  0.00  0.00    +0.000 A 
ATOM     24  C   UNL     1       0.812  10.982  18.776  0.00  0.00    +0.000 A 
ATOM     25  C   UNL     1       0.148  11.520  19.882  0.00  0.00    +0.000 A 
ATOM     26  C   UNL     1       0.030  10.777  21.048  0.00  0.00    +0.000 A 
ATOM     27  C   UNL     1       0.584   9.497  21.123  0.00  0.00    +0.000 A 
ATOM     28  C   UNL     1       1.254   8.943  20.019  0.00  0.00    +0.000 A 
ATOM     29  C   UNL     1       1.851   7.658  20.078  0.00  0.00    +0.000 A 
ENDBRANCH  19  20
ENDBRANCH   1  19
TORSDOF 11
ENDMDL
MODEL 7
REMARK VINA RESULT:      -7.3      0.877      1.636
REMARK  Name = 
REMARK  15 active torsions:
REMARK  status: ('A' for Active; 'I' for Inactive)
REMARK    1  A    between atoms: C_1  and  C_2
REMARK    2  A    between atoms: C_2  and  C_3
REMARK    3  A    between atoms: C_5  and  C_6
REMARK    4  A    between atoms: C_6  and  C_7
REMARK    5  A    between atoms: C_7  and  P_8
REMARK    6  A    between atoms: P_8  and  O_10
REMARK    7  A    between atoms: P_8  and  O_19
REMARK    8  A    between atoms: O_10  and  C_11
REMARK    9  A    between atoms: C_11  and  O_12
REMARK   10  A    between atoms: O_12  and  C_13
REMARK   11  A    between atoms: C_13  and  C_15
REMARK   12  A    between atoms: C_15  and  C_16
REMARK   13  A    between atoms: C_15  and  C_17
REMARK   14  A    between atoms: C_15  and  C_18
REMARK   15  A    between atoms: O_19  and  C_20
REMARK                            x       y       z     vdW  Elec       q    Type
REMARK                         _______ _______ _______ _____ _____    ______ ____
ROOT
ATOM      1  P   UNL     1       5.603   6.911  17.561  0.00  0.00    +0.000 P 
ATOM      2  O   UNL     1       5.722   6.631  16.055  0.00  0.00    +0.000 OA
ENDROOT
BRANCH   1   3
ATOM      3  C   UNL     1       7.415   7.150  17.653  0.00  0.00    +0.000 C 
BRANCH   3   4
ATOM      4  C   UNL     1       8.005   8.549  17.420  0.00  0.00    +0.000 C 
BRANCH   4   7
ATOM      5  C   UNL     1       8.500  11.614  17.748  0.00  0.00    +0.000 C 
ATOM      6  C   UNL     1       9.044  10.552  18.648  0.00  0.00    +0.000 C 
ATOM      7  C   UNL     1       8.744   9.239  18.558  0.00  0.00    +0.000 C 
BRANCH   6   8
ATOM      8  C   UNL     1      10.040  10.984  19.677  0.00  0.00    +0.000 C 
ATOM      9  O   UNL     1      11.212  11.240  19.411  0.00  0.00    +0.000 OA
ENDBRANCH   6   8
ENDBRANCH   4   7
ENDBRANCH   3   4
ENDBRANCH   1   3
BRANCH   1  10
ATOM     10  O   UNL     1       5.731   5.448  18.357  0.00  0.00    +0.000 OA
BRANCH  10  11
ATOM     11  C   UNL     1       4.895   4.379  17.912  0.00  0.00    +0.000 C 
BRANCH  11  12
ATOM     12  O   UNL     1       4.244   3.670  18.983  0.00  0.00    +0.000 OA
BRANCH  12  13
ATOM     13  C   UNL     1       3.323   2.769  18.574  0.00  0.00    +0.000 C 
ATOM     14  O   UNL     1       3.601   1.713  18.013  0.00  0.00    +0.000 OA
BRANCH  13  15
ATOM     15  C   UNL     1       1.877   3.252  18.755  0.00  0.00    +0.000 C 
ATOM     16  C   UNL     1       0.995   1.997  18.681  0.00  0.00    +0.000 C 
ATOM     17  C   UNL     1       1.760   3.894  20.146  0.00  0.00    +0.000 C 
ATOM     18  C   UNL     1       1.392   4.272  17.714  0.00  0.00    +0.000 C 
ENDBRANCH  13  15
ENDBRANCH  12  13
ENDBRANCH  11  12
ENDBRANCH  10  11
ENDBRANCH   1  10
BRANCH   1  19
ATOM     19  O   UNL     1       3.890   6.686  17.474  0.00  0.00    +0.000 OA
BRANCH  19  20
ATOM     20  C   UNL     1       3.042   7.366  18.316  0.00  0.00    +0.000 A 
ATOM     21  C   UNL     1       2.759   6.964  19.612  0.00  0.00    +0.000 A 
ATOM     22  C   UNL     1       1.805   7.654  20.369  0.00  0.00    +0.000 A 
ATOM     23  C   UNL     1       1.133   8.767  19.838  0.00  0.00    +0.000 A 
ATOM     24  C   UNL     1       0.162   9.456  20.588  0.00  0.00    +0.000 A 
ATOM     25  C   UNL     1      -0.492  10.569  20.051  0.00  0.00    +0.000 A 
ATOM     26  C   UNL     1      -0.184  11.003  18.770  0.00  0.00    +0.000 A 
ATOM     27  C   UNL     1       0.769  10.322  18.010  0.00  0.00    +0.000 A 
ATOM     28  C   UNL     1       1.435   9.202  18.535  0.00  0.00    +0.000 A 
ATOM     29  C   UNL     1       2.386   8.475  17.774  0.00  0.00    +0.000 A 
ENDBRANCH  19  20
ENDBRANCH   1  19
TORSDOF 11
ENDMDL
MODEL 8
REMARK VINA RESULT:      -6.9      2.905      4.337
REMARK  Name = 
REMARK  15 active torsions:
REMARK  status: ('A' for Active; 'I' for Inactive)
REMARK    1  A    between atoms: C_1  and  C_2
REMARK    2  A    between atoms: C_2  and  C_3
REMARK    3  A    between atoms: C_5  and  C_6
REMARK    4  A    between atoms: C_6  and  C_7
REMARK    5  A    between atoms: C_7  and  P_8
REMARK    6  A    between atoms: P_8  and  O_10
REMARK    7  A    between atoms: P_8  and  O_19
REMARK    8  A    between atoms: O_10  and  C_11
REMARK    9  A    between atoms: C_11  and  O_12
REMARK   10  A    between atoms: O_12  and  C_13
REMARK   11  A    between atoms: C_13  and  C_15
REMARK   12  A    between atoms: C_15  and  C_16
REMARK   13  A    between atoms: C_15  and  C_17
REMARK   14  A    between atoms: C_15  and  C_18
REMARK   15  A    between atoms: O_19  and  C_20
REMARK                            x       y       z     vdW  Elec       q    Type
REMARK                         _______ _______ _______ _____ _____    ______ ____
ROOT
ATOM      1  P   UNL     1       4.840   6.489  16.860  0.00  0.00    +0.000 P 
ATOM      2  O   UNL     1       5.116   6.757  15.373  0.00  0.00    +0.000 OA
ENDROOT
BRANCH   1   3
ATOM      3  C   UNL     1       6.338   5.440  16.941  0.00  0.00    +0.000 C 
BRANCH   3   4
ATOM      4  C   UNL     1       7.194   5.249  15.680  0.00  0.00    +0.000 C 
BRANCH   4   7
ATOM      5  C   UNL     1       7.830   5.342  12.625  0.00  0.00    +0.000 C 
ATOM      6  C   UNL     1       6.927   4.352  13.287  0.00  0.00    +0.000 C 
ATOM      7  C   UNL     1       6.737   4.256  14.620  0.00  0.00    +0.000 C 
BRANCH   6   8
ATOM      8  C   UNL     1       6.139   3.452  12.390  0.00  0.00    +0.000 C 
ATOM      9  O   UNL     1       4.914   3.494  12.304  0.00  0.00    +0.000 OA
ENDBRANCH   6   8
ENDBRANCH   4   7
ENDBRANCH   3   4
ENDBRANCH   1   3
BRANCH   1  10
ATOM     10  O   UNL     1       3.862   5.138  16.954  0.00  0.00    +0.000 OA
BRANCH  10  11
ATOM     11  C   UNL     1       4.495   3.879  17.184  0.00  0.00    +0.000 C 
BRANCH  11  12
ATOM     12  O   UNL     1       3.700   2.965  17.964  0.00  0.00    +0.000 OA
BRANCH  12  13
ATOM     13  C   UNL     1       3.097   3.528  19.035  0.00  0.00    +0.000 C 
ATOM     14  O   UNL     1       3.701   3.934  20.025  0.00  0.00    +0.000 OA
BRANCH  13  15
ATOM     15  C   UNL     1       1.564   3.493  18.960  0.00  0.00    +0.000 C 
ATOM     16  C   UNL     1       1.058   4.068  20.291  0.00  0.00    +0.000 C 
ATOM     17  C   UNL     1       1.123   4.397  17.798  0.00  0.00    +0.000 C 
ATOM     18  C   UNL     1       0.951   2.102  18.745  0.00  0.00    +0.000 C 
ENDBRANCH  13  15
ENDBRANCH  12  13
ENDBRANCH  11  12
ENDBRANCH  10  11
ENDBRANCH   1  10
BRANCH   1  19
ATOM     19  O   UNL     1       3.424   7.479  16.783  0.00  0.00    +0.000 OA
BRANCH  19  20
ATOM     20  C   UNL     1       2.772   7.872  17.928  0.00  0.00    +0.000 A 
ATOM     21  C   UNL     1       2.815   7.165  19.120  0.00  0.00    +0.000 A 
ATOM     22  C   UNL     1       2.038   7.578  20.210  0.00  0.00    +0.000 A 
ATOM     23  C   UNL     1       1.220   8.716  20.121  0.00  0.00    +0.000 A 
ATOM     24  C   UNL     1       0.426   9.128  21.207  0.00  0.00    +0.000 A 
ATOM     25  C   UNL     1      -0.376  10.268  21.109  0.00  0.00    +0.000 A 
ATOM     26  C   UNL     1      -0.392  11.005  19.933  0.00  0.00    +0.000 A 
ATOM     27  C   UNL     1       0.382  10.602  18.843  0.00  0.00    +0.000 A 
ATOM     28  C   UNL     1       1.193   9.459  18.926  0.00  0.00    +0.000 A 
ATOM     29  C   UNL     1       1.966   9.010  17.824  0.00  0.00    +0.000 A 
ENDBRANCH  19  20
ENDBRANCH   1  19
TORSDOF 11
ENDMDL
MODEL 9
REMARK VINA RESULT:      -6.9      1.338      1.695
REMARK  Name = 
REMARK  15 active torsions:
REMARK  status: ('A' for Active; 'I' for Inactive)
REMARK    1  A    between atoms: C_1  and  C_2
REMARK    2  A    between atoms: C_2  and  C_3
REMARK    3  A    between atoms: C_5  and  C_6
REMARK    4  A    between atoms: C_6  and  C_7
REMARK    5  A    between atoms: C_7  and  P_8
REMARK    6  A    between atoms: P_8  and  O_10
REMARK    7  A    between atoms: P_8  and  O_19
REMARK    8  A    between atoms: O_10  and  C_11
REMARK    9  A    between atoms: C_11  and  O_12
REMARK   10  A    between atoms: O_12  and  C_13
REMARK   11  A    between atoms: C_13  and  C_15
REMARK   12  A    between atoms: C_15  and  C_16
REMARK   13  A    between atoms: C_15  and  C_17
REMARK   14  A    between atoms: C_15  and  C_18
REMARK   15  A    between atoms: O_19  and  C_20
REMARK                            x       y       z     vdW  Elec       q    Type
REMARK                         _______ _______ _______ _____ _____    ______ ____
ROOT
ATOM      1  P   UNL     1       5.087   6.935  17.429  0.00  0.00    +0.000 P 
ATOM      2  O   UNL     1       4.869   6.620  15.941  0.00  0.00    +0.000 OA
ENDROOT
BRANCH   1   3
ATOM      3  C   UNL     1       6.869   7.196  17.106  0.00  0.00    +0.000 C 
BRANCH   3   4
ATOM      4  C   UNL     1       7.684   8.092  18.052  0.00  0.00    +0.000 C 
BRANCH   4   7
ATOM      5  C   UNL     1       9.444  10.154  19.600  0.00  0.00    +0.000 C 
ATOM      6  C   UNL     1       8.731  10.423  18.313  0.00  0.00    +0.000 C 
ATOM      7  C   UNL     1       8.055   9.497  17.600  0.00  0.00    +0.000 C 
BRANCH   6   8
ATOM      8  C   UNL     1       8.724  11.838  17.829  0.00  0.00    +0.000 C 
ATOM      9  O   UNL     1       7.830  12.303  17.128  0.00  0.00    +0.000 OA
ENDBRANCH   6   8
ENDBRANCH   4   7
ENDBRANCH   3   4
ENDBRANCH   1   3
BRANCH   1  10
ATOM     10  O   UNL     1       5.415   5.493  18.206  0.00  0.00    +0.000 OA
BRANCH  10  11
ATOM     11  C   UNL     1       5.602   4.333  17.393  0.00  0.00    +0.000 C 
BRANCH  11  12
ATOM     12  O   UNL     1       4.969   3.151  17.918  0.00  0.00    +0.000 OA
BRANCH  12  13
ATOM     13  C   UNL     1       3.623   3.237  18.013  0.00  0.00    +0.000 C 
ATOM     14  O   UNL     1       2.896   3.617  17.099  0.00  0.00    +0.000 OA
BRANCH  13  15
ATOM     15  C   UNL     1       3.091   2.944  19.422  0.00  0.00    +0.000 C 
ATOM     16  C   UNL     1       1.866   2.037  19.237  0.00  0.00    +0.000 C 
ATOM     17  C   UNL     1       4.186   2.193  20.198  0.00  0.00    +0.000 C 
ATOM     18  C   UNL     1       2.686   4.179  20.240  0.00  0.00    +0.000 C 
ENDBRANCH  13  15
ENDBRANCH  12  13
ENDBRANCH  11  12
ENDBRANCH  10  11
ENDBRANCH   1  10
BRANCH   1  19
ATOM     19  O   UNL     1       3.402   6.688  17.735  0.00  0.00    +0.000 OA
BRANCH  19  20
ATOM     20  C   UNL     1       2.619   7.697  18.242  0.00  0.00    +0.000 A 
ATOM     21  C   UNL     1       2.330   8.866  17.554  0.00  0.00    +0.000 A 
ATOM     22  C   UNL     1       1.610   9.890  18.182  0.00  0.00    +0.000 A 
ATOM     23  C   UNL     1       1.158   9.747  19.504  0.00  0.00    +0.000 A 
ATOM     24  C   UNL     1       0.447  10.777  20.146  0.00  0.00    +0.000 A 
ATOM     25  C   UNL     1      -0.007  10.617  21.458  0.00  0.00    +0.000 A 
ATOM     26  C   UNL     1       0.242   9.433  22.137  0.00  0.00    +0.000 A 
ATOM     27  C   UNL     1       0.956   8.406  21.518  0.00  0.00    +0.000 A 
ATOM     28  C   UNL     1       1.418   8.552  20.200  0.00  0.00    +0.000 A 
ATOM     29  C   UNL     1       2.172   7.536  19.557  0.00  0.00    +0.000 A 
ENDBRANCH  19  20
ENDBRANCH   1  19
TORSDOF 11
ENDMDL
