MODEL 1
REMARK VINA RESULT:      -8.2      0.000      0.000
REMARK  Name = 
REMARK  7 active torsions:
REMARK  status: ('A' for Active; 'I' for Inactive)
REMARK    1  A    between atoms: C_1  and  N_2
REMARK    2  A    between atoms: C_8  and  N_9
REMARK    3  A    between atoms: C_10  and  C_12
REMARK    4  A    between atoms: C_12  and  C_13
REMARK    5  A    between atoms: C_13  and  N_14
REMARK    6  A    between atoms: N_17  and  C_18
REMARK    7  A    between atoms: C_18  and  C_19
REMARK                            x       y       z     vdW  Elec       q    Type
REMARK                         _______ _______ _______ _____ _____    ______ ____
ROOT
ATOM      1  C   UNL     1       8.489   8.027  18.397  0.00  0.00    +0.000 C 
ENDROOT
BRANCH   1   3
ATOM      2  N   UNL     1       9.410   9.902  19.570  0.00  0.00    +0.000 N 
ATOM      3  C   UNL     1       8.654   9.522  18.470  0.00  0.00    +0.000 C 
ATOM      4  O   UNL     1       8.142  10.261  17.638  0.00  0.00    +0.000 OA
ATOM      5  H   UNL     1       9.794   9.164  20.145  0.00  0.00    +0.000 HD
BRANCH   2  13
ATOM      6  C   UNL     1      10.408  15.898  22.164  0.00  0.00    +0.000 C 
ATOM      7  N   UNL     1      10.520  15.103  20.977  0.00  0.00    +0.000 N 
ATOM      8  C   UNL     1      10.992  15.525  19.755  0.00  0.00    +0.000 A 
ATOM      9  O   UNL     1      11.397  16.647  19.481  0.00  0.00    +0.000 OA
ATOM     10  O   UNL     1      10.955  14.489  18.816  0.00  0.00    +0.000 OA
ATOM     11  C   UNL     1      10.439  13.443  19.562  0.00  0.00    +0.000 A 
ATOM     12  C   UNL     1      10.207  12.177  19.080  0.00  0.00    +0.000 A 
ATOM     13  C   UNL     1       9.682  11.225  19.959  0.00  0.00    +0.000 A 
ATOM     14  C   UNL     1       9.403  11.583  21.302  0.00  0.00    +0.000 A 
ATOM     15  C   UNL     1       9.645  12.884  21.768  0.00  0.00    +0.000 A 
ATOM     16  C   UNL     1      10.167  13.783  20.865  0.00  0.00    +0.000 A 
ENDBRANCH   2  13
ENDBRANCH   1   3
BRANCH   1  17
ATOM     17  C   UNL     1       7.453   7.654  17.333  0.00  0.00    +0.000 C 
BRANCH  17  18
ATOM     18  N   UNL     1       7.074   6.241  17.438  0.00  0.00    +0.000 NA
ATOM     19  C   UNL     1       5.878   6.028  18.277  0.00  0.00    +0.000 C 
ATOM     20  C   UNL     1       4.516   6.031  17.550  0.00  0.00    +0.000 C 
ATOM     21  N   UNL     1       4.477   5.125  16.388  0.00  0.00    +0.000 NA
ATOM     22  C   UNL     1       5.544   5.579  15.470  0.00  0.00    +0.000 C 
ATOM     23  C   UNL     1       6.955   5.611  16.101  0.00  0.00    +0.000 C 
BRANCH  21  24
ATOM     24  C   UNL     1       4.655   3.728  16.840  0.00  0.00    +0.000 C 
BRANCH  24  25
ATOM     25  C   UNL     1       3.789   3.353  18.018  0.00  0.00    +0.000 A 
ATOM     26  C   UNL     1       2.390   3.389  17.906  0.00  0.00    +0.000 A 
ATOM     27  C   UNL     1       1.589   3.138  19.016  0.00  0.00    +0.000 A 
ATOM     28  C   UNL     1       2.185   2.837  20.241  0.00  0.00    +0.000 A 
ATOM     29 CL   UNL     1       1.199   2.594  21.629  0.00  0.00    +0.000 Cl
ATOM     30  C   UNL     1       3.570   2.753  20.352  0.00  0.00    +0.000 A 
ATOM     31  C   UNL     1       4.374   3.007  19.241  0.00  0.00    +0.000 A 
ENDBRANCH  24  25
ENDBRANCH  21  24
ENDBRANCH  17  18
ENDBRANCH   1  17
TORSDOF 6
ENDMDL
MODEL 2
REMARK VINA RESULT:      -8.1      1.432      1.894
REMARK  Name = 
REMARK  7 active torsions:
REMARK  status: ('A' for Active; 'I' for Inactive)
REMARK    1  A    between atoms: C_1  and  N_2
REMARK    2  A    between atoms: C_8  and  N_9
REMARK    3  A    between atoms: C_10  and  C_12
REMARK    4  A    between atoms: C_12  and  C_13
REMARK    5  A    between atoms: C_13  and  N_14
REMARK    6  A    between atoms: N_17  and  C_18
REMARK    7  A    between atoms: C_18  and  C_19
REMARK                            x       y       z     vdW  Elec       q    Type
REMARK                         _______ _______ _______ _____ _____    ______ ____
ROOT
ATOM      1  C   UNL     1       7.747   6.729  18.224  0.00  0.00    +0.000 C 
ENDROOT
BRANCH   1   3
ATOM      2  N   UNL     1       8.866   8.712  18.965  0.00  0.00    +0.000 N 
ATOM      3  C   UNL     1       7.997   8.198  18.013  0.00  0.00    +0.000 C 
ATOM      4  O   UNL     1       7.457   8.813  17.102  0.00  0.00    +0.000 OA
ATOM      5  H   UNL     1       9.258   8.062  19.634  0.00  0.00    +0.000 HD
BRANCH   2  13
ATOM      6  C   UNL     1      10.557  14.943  20.376  0.00  0.00    +0.000 C 
ATOM      7  N   UNL     1      10.351  13.997  19.320  0.00  0.00    +0.000 N 
ATOM      8  C   UNL     1      10.496  14.236  17.972  0.00  0.00    +0.000 A 
ATOM      9  O   UNL     1      10.827  15.294  17.454  0.00  0.00    +0.000 OA
ATOM     10  O   UNL     1      10.207  13.090  17.224  0.00  0.00    +0.000 OA
ATOM     11  C   UNL     1       9.891  12.173  18.213  0.00  0.00    +0.000 A 
ATOM     12  C   UNL     1       9.530  10.867  17.983  0.00  0.00    +0.000 A 
ATOM     13  C   UNL     1       9.241  10.061  19.088  0.00  0.00    +0.000 A 
ATOM     14  C   UNL     1       9.322  10.602  20.396  0.00  0.00    +0.000 A 
ATOM     15  C   UNL     1       9.688  11.940  20.604  0.00  0.00    +0.000 A 
ATOM     16  C   UNL     1       9.968  12.691  19.483  0.00  0.00    +0.000 A 
ENDBRANCH   2  13
ENDBRANCH   1   3
BRANCH   1  17
ATOM     17  C   UNL     1       7.607   6.011  16.877  0.00  0.00    +0.000 C 
BRANCH  17  18
ATOM     18  N   UNL     1       6.311   5.331  16.774  0.00  0.00    +0.000 NA
ATOM     19  C   UNL     1       5.826   4.820  18.071  0.00  0.00    +0.000 C 
ATOM     20  C   UNL     1       4.926   5.769  18.892  0.00  0.00    +0.000 C 
ATOM     21  N   UNL     1       3.797   6.314  18.116  0.00  0.00    +0.000 NA
ATOM     22  C   UNL     1       4.390   7.039  16.972  0.00  0.00    +0.000 C 
ATOM     23  C   UNL     1       5.311   6.176  16.079  0.00  0.00    +0.000 C 
BRANCH  21  24
ATOM     24  C   UNL     1       2.899   5.212  17.705  0.00  0.00    +0.000 C 
BRANCH  24  25
ATOM     25  C   UNL     1       2.335   4.421  18.859  0.00  0.00    +0.000 A 
ATOM     26  C   UNL     1       2.035   5.060  20.073  0.00  0.00    +0.000 A 
ATOM     27  C   UNL     1       1.606   4.319  21.170  0.00  0.00    +0.000 A 
ATOM     28  C   UNL     1       1.462   2.937  21.053  0.00  0.00    +0.000 A 
ATOM     29 CL   UNL     1       0.998   2.011  22.427  0.00  0.00    +0.000 Cl
ATOM     30  C   UNL     1       1.712   2.299  19.841  0.00  0.00    +0.000 A 
ATOM     31  C   UNL     1       2.145   3.040  18.742  0.00  0.00    +0.000 A 
ENDBRANCH  24  25
ENDBRANCH  21  24
ENDBRANCH  17  18
ENDBRANCH   1  17
TORSDOF 6
ENDMDL
MODEL 3
REMARK VINA RESULT:      -8.1      1.294      1.640
REMARK  Name = 
REMARK  7 active torsions:
REMARK  status: ('A' for Active; 'I' for Inactive)
REMARK    1  A    between atoms: C_1  and  N_2
REMARK    2  A    between atoms: C_8  and  N_9
REMARK    3  A    between atoms: C_10  and  C_12
REMARK    4  A    between atoms: C_12  and  C_13
REMARK    5  A    between atoms: C_13  and  N_14
REMARK    6  A    between atoms: N_17  and  C_18
REMARK    7  A    between atoms: C_18  and  C_19
REMARK                            x       y       z     vdW  Elec       q    Type
REMARK                         _______ _______ _______ _____ _____    ______ ____
ROOT
ATOM      1  C   UNL     1       8.554   8.085  18.398  0.00  0.00    +0.000 C 
ENDROOT
BRANCH   1   3
ATOM      2  N   UNL     1       9.449   9.888  19.697  0.00  0.00    +0.000 N 
ATOM      3  C   UNL     1       8.669   9.574  18.593  0.00  0.00    +0.000 C 
ATOM      4  O   UNL     1       8.104  10.360  17.843  0.00  0.00    +0.000 OA
ATOM      5  H   UNL     1       9.878   9.119  20.195  0.00  0.00    +0.000 HD
BRANCH   2  13
ATOM      6  C   UNL     1      11.137  16.051  21.385  0.00  0.00    +0.000 C 
ATOM      7  N   UNL     1      10.295  14.938  21.709  0.00  0.00    +0.000 N 
ATOM      8  C   UNL     1       9.388  14.875  22.743  0.00  0.00    +0.000 A 
ATOM      9  O   UNL     1       9.149  15.761  23.553  0.00  0.00    +0.000 OA
ATOM     10  O   UNL     1       8.742  13.635  22.772  0.00  0.00    +0.000 OA
ATOM     11  C   UNL     1       9.322  12.983  21.696  0.00  0.00    +0.000 A 
ATOM     12  C   UNL     1       9.016  11.704  21.298  0.00  0.00    +0.000 A 
ATOM     13  C   UNL     1       9.688  11.183  20.189  0.00  0.00    +0.000 A 
ATOM     14  C   UNL     1      10.655  11.971  19.516  0.00  0.00    +0.000 A 
ATOM     15  C   UNL     1      10.953  13.273  19.946  0.00  0.00    +0.000 A 
ATOM     16  C   UNL     1      10.260  13.741  21.040  0.00  0.00    +0.000 A 
ENDBRANCH   2  13
ENDBRANCH   1   3
BRANCH   1  17
ATOM     17  C   UNL     1       7.365   7.754  17.490  0.00  0.00    +0.000 C 
BRANCH  17  18
ATOM     18  N   UNL     1       7.008   6.335  17.584  0.00  0.00    +0.000 NA
ATOM     19  C   UNL     1       5.818   6.097  18.424  0.00  0.00    +0.000 C 
ATOM     20  C   UNL     1       4.454   6.085  17.699  0.00  0.00    +0.000 C 
ATOM     21  N   UNL     1       4.426   5.189  16.530  0.00  0.00    +0.000 NA
ATOM     22  C   UNL     1       5.484   5.667  15.614  0.00  0.00    +0.000 C 
ATOM     23  C   UNL     1       6.896   5.715  16.242  0.00  0.00    +0.000 C 
BRANCH  21  24
ATOM     24  C   UNL     1       4.626   3.790  16.970  0.00  0.00    +0.000 C 
BRANCH  24  25
ATOM     25  C   UNL     1       3.764   3.391  18.142  0.00  0.00    +0.000 A 
ATOM     26  C   UNL     1       2.368   3.529  18.071  0.00  0.00    +0.000 A 
ATOM     27  C   UNL     1       1.578   3.252  19.183  0.00  0.00    +0.000 A 
ATOM     28  C   UNL     1       2.178   2.823  20.365  0.00  0.00    +0.000 A 
ATOM     29 CL   UNL     1       1.210   2.547  21.759  0.00  0.00    +0.000 Cl
ATOM     30  C   UNL     1       3.557   2.638  20.432  0.00  0.00    +0.000 A 
ATOM     31  C   UNL     1       4.351   2.917  19.321  0.00  0.00    +0.000 A 
ENDBRANCH  24  25
ENDBRANCH  21  24
ENDBRANCH  17  18
ENDBRANCH   1  17
TORSDOF 6
ENDMDL
MODEL 4
REMARK VINA RESULT:      -8.0      2.074      2.665
REMARK  Name = 
REMARK  7 active torsions:
REMARK  status: ('A' for Active; 'I' for Inactive)
REMARK    1  A    between atoms: C_1  and  N_2
REMARK    2  A    between atoms: C_8  and  N_9
REMARK    3  A    between atoms: C_10  and  C_12
REMARK    4  A    between atoms: C_12  and  C_13
REMARK    5  A    between atoms: C_13  and  N_14
REMARK    6  A    between atoms: N_17  and  C_18
REMARK    7  A    between atoms: C_18  and  C_19
REMARK                            x       y       z     vdW  Elec       q    Type
REMARK                         _______ _______ _______ _____ _____    ______ ____
ROOT
ATOM      1  C   UNL     1       7.939   6.852  18.387  0.00  0.00    +0.000 C 
ENDROOT
BRANCH   1   3
ATOM      2  N   UNL     1       8.993   8.887  19.084  0.00  0.00    +0.000 N 
ATOM      3  C   UNL     1       8.150   8.322  18.137  0.00  0.00    +0.000 C 
ATOM      4  O   UNL     1       7.603   8.894  17.204  0.00  0.00    +0.000 OA
ATOM      5  H   UNL     1       9.396   8.267  19.774  0.00  0.00    +0.000 HD
BRANCH   2  13
ATOM      6  C   UNL     1      10.463  15.209  20.330  0.00  0.00    +0.000 C 
ATOM      7  N   UNL     1      10.329  14.219  19.303  0.00  0.00    +0.000 N 
ATOM      8  C   UNL     1      10.531  14.411  17.955  0.00  0.00    +0.000 A 
ATOM      9  O   UNL     1      10.859  15.458  17.412  0.00  0.00    +0.000 OA
ATOM     10  O   UNL     1      10.306  13.230  17.239  0.00  0.00    +0.000 OA
ATOM     11  C   UNL     1       9.967  12.343  18.247  0.00  0.00    +0.000 A 
ATOM     12  C   UNL     1       9.650  11.020  18.051  0.00  0.00    +0.000 A 
ATOM     13  C   UNL     1       9.329  10.249  19.172  0.00  0.00    +0.000 A 
ATOM     14  C   UNL     1       9.336  10.840  20.460  0.00  0.00    +0.000 A 
ATOM     15  C   UNL     1       9.659  12.194  20.633  0.00  0.00    +0.000 A 
ATOM     16  C   UNL     1       9.972  12.909  19.498  0.00  0.00    +0.000 A 
ENDBRANCH   2  13
ENDBRANCH   1   3
BRANCH   1  17
ATOM     17  C   UNL     1       7.373   6.172  17.136  0.00  0.00    +0.000 C 
BRANCH  17  18
ATOM     18  N   UNL     1       5.906   6.198  17.139  0.00  0.00    +0.000 NA
ATOM     19  C   UNL     1       5.315   5.325  16.106  0.00  0.00    +0.000 C 
ATOM     20  C   UNL     1       4.992   3.876  16.531  0.00  0.00    +0.000 C 
ATOM     21  N   UNL     1       4.194   3.798  17.767  0.00  0.00    +0.000 NA
ATOM     22  C   UNL     1       4.987   4.471  18.818  0.00  0.00    +0.000 C 
ATOM     23  C   UNL     1       5.363   5.935  18.492  0.00  0.00    +0.000 C 
BRANCH  21  24
ATOM     24  C   UNL     1       2.871   4.424  17.545  0.00  0.00    +0.000 C 
BRANCH  24  25
ATOM     25  C   UNL     1       2.494   5.440  18.595  0.00  0.00    +0.000 A 
ATOM     26  C   UNL     1       2.078   5.019  19.868  0.00  0.00    +0.000 A 
ATOM     27  C   UNL     1       1.638   5.948  20.806  0.00  0.00    +0.000 A 
ATOM     28  C   UNL     1       1.625   7.304  20.480  0.00  0.00    +0.000 A 
ATOM     29 CL   UNL     1       1.017   8.446  21.613  0.00  0.00    +0.000 Cl
ATOM     30  C   UNL     1       2.079   7.736  19.237  0.00  0.00    +0.000 A 
ATOM     31  C   UNL     1       2.518   6.807  18.295  0.00  0.00    +0.000 A 
ENDBRANCH  24  25
ENDBRANCH  21  24
ENDBRANCH  17  18
ENDBRANCH   1  17
TORSDOF 6
ENDMDL
MODEL 5
REMARK VINA RESULT:      -7.9      2.338      2.736
REMARK  Name = 
REMARK  7 active torsions:
REMARK  status: ('A' for Active; 'I' for Inactive)
REMARK    1  A    between atoms: C_1  and  N_2
REMARK    2  A    between atoms: C_8  and  N_9
REMARK    3  A    between atoms: C_10  and  C_12
REMARK    4  A    between atoms: C_12  and  C_13
REMARK    5  A    between atoms: C_13  and  N_14
REMARK    6  A    between atoms: N_17  and  C_18
REMARK    7  A    between atoms: C_18  and  C_19
REMARK                            x       y       z     vdW  Elec       q    Type
REMARK                         _______ _______ _______ _____ _____    ______ ____
ROOT
ATOM      1  C   UNL     1       8.684   8.736  18.621  0.00  0.00    +0.000 C 
ENDROOT
BRANCH   1   3
ATOM      2  N   UNL     1       8.793  11.017  17.900  0.00  0.00    +0.000 N 
ATOM      3  C   UNL     1       9.106  10.147  18.934  0.00  0.00    +0.000 C 
ATOM      4  O   UNL     1       9.670  10.424  19.984  0.00  0.00    +0.000 OA
ATOM      5  H   UNL     1       8.290  10.636  17.109  0.00  0.00    +0.000 HD
BRANCH   2  13
ATOM      6  C   UNL     1      11.114  17.191  17.474  0.00  0.00    +0.000 C 
ATOM      7  N   UNL     1       9.954  16.392  17.737  0.00  0.00    +0.000 N 
ATOM      8  C   UNL     1       8.698  16.859  18.055  0.00  0.00    +0.000 A 
ATOM      9  O   UNL     1       8.366  18.032  18.163  0.00  0.00    +0.000 OA
ATOM     10  O   UNL     1       7.804  15.801  18.255  0.00  0.00    +0.000 OA
ATOM     11  C   UNL     1       8.609  14.697  18.031  0.00  0.00    +0.000 A 
ATOM     12  C   UNL     1       8.187  13.392  18.107  0.00  0.00    +0.000 A 
ATOM     13  C   UNL     1       9.120  12.383  17.852  0.00  0.00    +0.000 A 
ATOM     14  C   UNL     1      10.458  12.725  17.531  0.00  0.00    +0.000 A 
ATOM     15  C   UNL     1      10.866  14.066  17.464  0.00  0.00    +0.000 A 
ATOM     16  C   UNL     1       9.907  15.022  17.719  0.00  0.00    +0.000 A 
ENDBRANCH   2  13
ENDBRANCH   1   3
BRANCH   1  17
ATOM     17  C   UNL     1       7.622   8.727  17.516  0.00  0.00    +0.000 C 
BRANCH  17  18
ATOM     18  N   UNL     1       7.213   7.357  17.187  0.00  0.00    +0.000 NA
ATOM     19  C   UNL     1       7.979   6.336  17.928  0.00  0.00    +0.000 C 
ATOM     20  C   UNL     1       7.385   5.872  19.276  0.00  0.00    +0.000 C 
ATOM     21  N   UNL     1       5.973   5.461  19.177  0.00  0.00    +0.000 NA
ATOM     22  C   UNL     1       5.233   6.638  18.673  0.00  0.00    +0.000 C 
ATOM     23  C   UNL     1       5.747   7.183  17.321  0.00  0.00    +0.000 C 
BRANCH  21  24
ATOM     24  C   UNL     1       5.860   4.280  18.293  0.00  0.00    +0.000 C 
BRANCH  24  25
ATOM     25  C   UNL     1       4.514   3.602  18.351  0.00  0.00    +0.000 A 
ATOM     26  C   UNL     1       3.640   3.671  17.253  0.00  0.00    +0.000 A 
ATOM     27  C   UNL     1       2.361   3.130  17.338  0.00  0.00    +0.000 A 
ATOM     28  C   UNL     1       1.954   2.505  18.517  0.00  0.00    +0.000 A 
ATOM     29 CL   UNL     1       0.351   1.897  18.647  0.00  0.00    +0.000 Cl
ATOM     30  C   UNL     1       2.828   2.391  19.595  0.00  0.00    +0.000 A 
ATOM     31  C   UNL     1       4.109   2.934  19.512  0.00  0.00    +0.000 A 
ENDBRANCH  24  25
ENDBRANCH  21  24
ENDBRANCH  17  18
ENDBRANCH   1  17
TORSDOF 6
ENDMDL
MODEL 6
REMARK VINA RESULT:      -7.8      1.496      2.056
REMARK  Name = 
REMARK  7 active torsions:
REMARK  status: ('A' for Active; 'I' for Inactive)
REMARK    1  A    between atoms: C_1  and  N_2
REMARK    2  A    between atoms: C_8  and  N_9
REMARK    3  A    between atoms: C_10  and  C_12
REMARK    4  A    between atoms: C_12  and  C_13
REMARK    5  A    between atoms: C_13  and  N_14
REMARK    6  A    between atoms: N_17  and  C_18
REMARK    7  A    between atoms: C_18  and  C_19
REMARK                            x       y       z     vdW  Elec       q    Type
REMARK                         _______ _______ _______ _____ _____    ______ ____
ROOT
ATOM      1  C   UNL     1       8.239   7.210  18.784  0.00  0.00    +0.000 C 
ENDROOT
BRANCH   1   3
ATOM      2  N   UNL     1       9.170   9.393  19.108  0.00  0.00    +0.000 N 
ATOM      3  C   UNL     1       8.425   8.603  18.244  0.00  0.00    +0.000 C 
ATOM      4  O   UNL     1       7.939   8.941  17.172  0.00  0.00    +0.000 OA
ATOM      5  H   UNL     1       9.534   8.951  19.942  0.00  0.00    +0.000 HD
BRANCH   2  13
ATOM      6  C   UNL     1       9.896  15.808  17.692  0.00  0.00    +0.000 C 
ATOM      7  N   UNL     1      10.377  14.726  18.498  0.00  0.00    +0.000 N 
ATOM      8  C   UNL     1      11.392  14.789  19.426  0.00  0.00    +0.000 A 
ATOM      9  O   UNL     1      12.049  15.780  19.717  0.00  0.00    +0.000 OA
ATOM     10  O   UNL     1      11.605  13.543  20.025  0.00  0.00    +0.000 OA
ATOM     11  C   UNL     1      10.655  12.755  19.397  0.00  0.00    +0.000 A 
ATOM     12  C   UNL     1      10.458  11.418  19.645  0.00  0.00    +0.000 A 
ATOM     13  C   UNL     1       9.456  10.758  18.929  0.00  0.00    +0.000 A 
ATOM     14  C   UNL     1       8.684  11.469  17.976  0.00  0.00    +0.000 A 
ATOM     15  C   UNL     1       8.909  12.833  17.737  0.00  0.00    +0.000 A 
ATOM     16  C   UNL     1       9.903  13.439  18.473  0.00  0.00    +0.000 A 
ENDBRANCH   2  13
ENDBRANCH   1   3
BRANCH   1  17
ATOM     17  C   UNL     1       7.514   6.331  17.760  0.00  0.00    +0.000 C 
BRANCH  17  18
ATOM     18  N   UNL     1       6.071   6.298  18.020  0.00  0.00    +0.000 NA
ATOM     19  C   UNL     1       5.263   6.463  16.796  0.00  0.00    +0.000 C 
ATOM     20  C   UNL     1       4.858   5.168  16.058  0.00  0.00    +0.000 C 
ATOM     21  N   UNL     1       4.227   4.170  16.940  0.00  0.00    +0.000 NA
ATOM     22  C   UNL     1       5.216   3.865  17.995  0.00  0.00    +0.000 C 
ATOM     23  C   UNL     1       5.689   5.097  18.801  0.00  0.00    +0.000 C 
BRANCH  21  24
ATOM     24  C   UNL     1       2.956   4.710  17.472  0.00  0.00    +0.000 C 
BRANCH  24  25
ATOM     25  C   UNL     1       2.520   4.074  18.768  0.00  0.00    +0.000 A 
ATOM     26  C   UNL     1       2.093   2.736  18.791  0.00  0.00    +0.000 A 
ATOM     27  C   UNL     1       1.599   2.176  19.966  0.00  0.00    +0.000 A 
ATOM     28  C   UNL     1       1.544   2.947  21.126  0.00  0.00    +0.000 A 
ATOM     29 CL   UNL     1       0.871   2.278  22.560  0.00  0.00    +0.000 Cl
ATOM     30  C   UNL     1       2.008   4.260  21.126  0.00  0.00    +0.000 A 
ATOM     31  C   UNL     1       2.500   4.824  19.950  0.00  0.00    +0.000 A 
ENDBRANCH  24  25
ENDBRANCH  21  24
ENDBRANCH  17  18
ENDBRANCH   1  17
TORSDOF 6
ENDMDL
MODEL 7
REMARK VINA RESULT:      -7.7      6.665      8.399
REMARK  Name = 
REMARK  7 active torsions:
REMARK  status: ('A' for Active; 'I' for Inactive)
REMARK    1  A    between atoms: C_1  and  N_2
REMARK    2  A    between atoms: C_8  and  N_9
REMARK    3  A    between atoms: C_10  and  C_12
REMARK    4  A    between atoms: C_12  and  C_13
REMARK    5  A    between atoms: C_13  and  N_14
REMARK    6  A    between atoms: N_17  and  C_18
REMARK    7  A    between atoms: C_18  and  C_19
REMARK                            x       y       z     vdW  Elec       q    Type
REMARK                         _______ _______ _______ _____ _____    ______ ____
ROOT
ATOM      1  C   UNL     1       3.108   4.350  20.149  0.00  0.00    +0.000 C 
ENDROOT
BRANCH   1   3
ATOM      2  N   UNL     1       2.459   6.656  20.150  0.00  0.00    +0.000 N 
ATOM      3  C   UNL     1       1.997   5.356  20.297  0.00  0.00    +0.000 C 
ATOM      4  O   UNL     1       0.848   5.005  20.536  0.00  0.00    +0.000 OA
ATOM      5  H   UNL     1       3.436   6.777  19.917  0.00  0.00    +0.000 HD
BRANCH   2  13
ATOM      6  C   UNL     1      -1.275  11.891  21.677  0.00  0.00    +0.000 C 
ATOM      7  N   UNL     1      -0.533  11.247  20.634  0.00  0.00    +0.000 N 
ATOM      8  C   UNL     1      -0.386  11.697  19.341  0.00  0.00    +0.000 A 
ATOM      9  O   UNL     1      -0.863  12.720  18.870  0.00  0.00    +0.000 OA
ATOM     10  O   UNL     1       0.398  10.816  18.589  0.00  0.00    +0.000 OA
ATOM     11  C   UNL     1       0.702   9.835  19.517  0.00  0.00    +0.000 A 
ATOM     12  C   UNL     1       1.469   8.724  19.260  0.00  0.00    +0.000 A 
ATOM     13  C   UNL     1       1.688   7.821  20.304  0.00  0.00    +0.000 A 
ATOM     14  C   UNL     1       1.120   8.066  21.580  0.00  0.00    +0.000 A 
ATOM     15  C   UNL     1       0.336   9.206  21.815  0.00  0.00    +0.000 A 
ATOM     16  C   UNL     1       0.154  10.067  20.755  0.00  0.00    +0.000 A 
ENDBRANCH   2  13
ENDBRANCH   1   3
BRANCH   1  17
ATOM     17  C   UNL     1       4.337   5.001  19.504  0.00  0.00    +0.000 C 
BRANCH  17  18
ATOM     18  N   UNL     1       4.173   5.113  18.051  0.00  0.00    +0.000 NA
ATOM     19  C   UNL     1       4.364   6.490  17.556  0.00  0.00    +0.000 C 
ATOM     20  C   UNL     1       5.796   6.874  17.124  0.00  0.00    +0.000 C 
ATOM     21  N   UNL     1       6.393   5.917  16.176  0.00  0.00    +0.000 NA
ATOM     22  C   UNL     1       6.403   4.606  16.860  0.00  0.00    +0.000 C 
ATOM     23  C   UNL     1       5.012   4.124  17.334  0.00  0.00    +0.000 C 
BRANCH  21  24
ATOM     24  C   UNL     1       5.613   5.911  14.919  0.00  0.00    +0.000 C 
BRANCH  24  25
ATOM     25  C   UNL     1       6.076   4.880  13.920  0.00  0.00    +0.000 A 
ATOM     26  C   UNL     1       7.336   5.002  13.310  0.00  0.00    +0.000 A 
ATOM     27  C   UNL     1       7.726   4.108  12.318  0.00  0.00    +0.000 A 
ATOM     28  C   UNL     1       6.865   3.078  11.941  0.00  0.00    +0.000 A 
ATOM     29 CL   UNL     1       7.317   2.013  10.669  0.00  0.00    +0.000 Cl
ATOM     30  C   UNL     1       5.633   2.919  12.572  0.00  0.00    +0.000 A 
ATOM     31  C   UNL     1       5.239   3.816  13.564  0.00  0.00    +0.000 A 
ENDBRANCH  24  25
ENDBRANCH  21  24
ENDBRANCH  17  18
ENDBRANCH   1  17
TORSDOF 6
ENDMDL
MODEL 8
REMARK VINA RESULT:      -7.7      7.502     11.174
REMARK  Name = 
REMARK  7 active torsions:
REMARK  status: ('A' for Active; 'I' for Inactive)
REMARK    1  A    between atoms: C_1  and  N_2
REMARK    2  A    between atoms: C_8  and  N_9
REMARK    3  A    between atoms: C_10  and  C_12
REMARK    4  A    between atoms: C_12  and  C_13
REMARK    5  A    between atoms: C_13  and  N_14
REMARK    6  A    between atoms: N_17  and  C_18
REMARK    7  A    between atoms: C_18  and  C_19
REMARK                            x       y       z     vdW  Elec       q    Type
REMARK                         _______ _______ _______ _____ _____    ______ ____
ROOT
ATOM      1  C   UNL     1       0.975   8.077  21.315  0.00  0.00    +0.000 C 
ENDROOT
BRANCH   1   3
ATOM      2  N   UNL     1       2.370   6.463  20.226  0.00  0.00    +0.000 N 
ATOM      3  C   UNL     1       1.783   7.714  20.098  0.00  0.00    +0.000 C 
ATOM      4  O   UNL     1       1.885   8.480  19.148  0.00  0.00    +0.000 OA
ATOM      5  H   UNL     1       2.157   5.935  21.063  0.00  0.00    +0.000 HD
BRANCH   2  13
ATOM      6  C   UNL     1       5.780   3.450  15.434  0.00  0.00    +0.000 C 
ATOM      7  N   UNL     1       5.884   4.178  16.663  0.00  0.00    +0.000 N 
ATOM      8  C   UNL     1       7.048   4.509  17.319  0.00  0.00    +0.000 A 
ATOM      9  O   UNL     1       8.186   4.239  16.959  0.00  0.00    +0.000 OA
ATOM     10  O   UNL     1       6.779   5.215  18.496  0.00  0.00    +0.000 OA
ATOM     11  C   UNL     1       5.396   5.278  18.485  0.00  0.00    +0.000 A 
ATOM     12  C   UNL     1       4.632   5.887  19.452  0.00  0.00    +0.000 A 
ATOM     13  C   UNL     1       3.243   5.868  19.299  0.00  0.00    +0.000 A 
ATOM     14  C   UNL     1       2.665   5.230  18.172  0.00  0.00    +0.000 A 
ATOM     15  C   UNL     1       3.468   4.612  17.201  0.00  0.00    +0.000 A 
ATOM     16  C   UNL     1       4.830   4.662  17.396  0.00  0.00    +0.000 A 
ENDBRANCH   2  13
ENDBRANCH   1   3
BRANCH   1  17
ATOM     17  C   UNL     1      -0.090   9.120  20.959  0.00  0.00    +0.000 C 
BRANCH  17  18
ATOM     18  N   UNL     1       0.382  10.478  21.250  0.00  0.00    +0.000 NA
ATOM     19  C   UNL     1       0.562  11.296  20.034  0.00  0.00    +0.000 C 
ATOM     20  C   UNL     1      -0.653  12.136  19.583  0.00  0.00    +0.000 C 
ATOM     21  N   UNL     1      -1.218  12.964  20.663  0.00  0.00    +0.000 NA
ATOM     22  C   UNL     1      -1.617  12.031  21.738  0.00  0.00    +0.000 C 
ATOM     23  C   UNL     1      -0.469  11.140  22.266  0.00  0.00    +0.000 C 
BRANCH  21  24
ATOM     24  C   UNL     1      -0.217  13.962  21.100  0.00  0.00    +0.000 C 
BRANCH  24  25
ATOM     25  C   UNL     1       0.111  14.996  20.052  0.00  0.00    +0.000 A 
ATOM     26  C   UNL     1       1.425  15.123  19.571  0.00  0.00    +0.000 A 
ATOM     27  C   UNL     1       1.751  16.138  18.677  0.00  0.00    +0.000 A 
ATOM     28  C   UNL     1       0.761  17.022  18.247  0.00  0.00    +0.000 A 
ATOM     29 CL   UNL     1       1.176  18.317  17.195  0.00  0.00    +0.000 Cl
ATOM     30  C   UNL     1      -0.554  16.876  18.681  0.00  0.00    +0.000 A 
ATOM     31  C   UNL     1      -0.882  15.862  19.579  0.00  0.00    +0.000 A 
ENDBRANCH  24  25
ENDBRANCH  21  24
ENDBRANCH  17  18
ENDBRANCH   1  17
TORSDOF 6
ENDMDL
MODEL 9
REMARK VINA RESULT:      -7.5      0.952      1.354
REMARK  Name = 
REMARK  7 active torsions:
REMARK  status: ('A' for Active; 'I' for Inactive)
REMARK    1  A    between atoms: C_1  and  N_2
REMARK    2  A    between atoms: C_8  and  N_9
REMARK    3  A    between atoms: C_10  and  C_12
REMARK    4  A    between atoms: C_12  and  C_13
REMARK    5  A    between atoms: C_13  and  N_14
REMARK    6  A    between atoms: N_17  and  C_18
REMARK    7  A    between atoms: C_18  and  C_19
REMARK                            x       y       z     vdW  Elec       q    Type
REMARK                         _______ _______ _______ _____ _____    ______ ____
ROOT
ATOM      1  C   UNL     1       7.969   7.455  17.799  0.00  0.00    +0.000 C 
ENDROOT
BRANCH   1   3
ATOM      2  N   UNL     1       9.102   9.250  18.909  0.00  0.00    +0.000 N 
ATOM      3  C   UNL     1       8.091   8.941  18.010  0.00  0.00    +0.000 C 
ATOM      4  O   UNL     1       7.347   9.729  17.439  0.00  0.00    +0.000 OA
ATOM      5  H   UNL     1       9.655   8.482  19.267  0.00  0.00    +0.000 HD
BRANCH   2  13
ATOM      6  C   UNL     1      10.251  15.070  21.821  0.00  0.00    +0.000 C 
ATOM      7  N   UNL     1      10.402  14.317  20.612  0.00  0.00    +0.000 N 
ATOM      8  C   UNL     1      10.983  14.758  19.444  0.00  0.00    +0.000 A 
ATOM      9  O   UNL     1      11.469  15.864  19.248  0.00  0.00    +0.000 OA
ATOM     10  O   UNL     1      10.954  13.763  18.462  0.00  0.00    +0.000 OA
ATOM     11  C   UNL     1      10.328  12.721  19.125  0.00  0.00    +0.000 A 
ATOM     12  C   UNL     1      10.059  11.491  18.573  0.00  0.00    +0.000 A 
ATOM     13  C   UNL     1       9.420  10.539  19.372  0.00  0.00    +0.000 A 
ATOM     14  C   UNL     1       9.067  10.860  20.707  0.00  0.00    +0.000 A 
ATOM     15  C   UNL     1       9.348  12.125  21.245  0.00  0.00    +0.000 A 
ATOM     16  C   UNL     1       9.983  13.026  20.419  0.00  0.00    +0.000 A 
ENDBRANCH   2  13
ENDBRANCH   1   3
BRANCH   1  17
ATOM     17  C   UNL     1       6.520   7.079  17.473  0.00  0.00    +0.000 C 
BRANCH  17  18
ATOM     18  N   UNL     1       6.230   5.698  17.874  0.00  0.00    +0.000 NA
ATOM     19  C   UNL     1       4.932   5.560  18.564  0.00  0.00    +0.000 C 
ATOM     20  C   UNL     1       3.710   5.242  17.675  0.00  0.00    +0.000 C 
ATOM     21  N   UNL     1       3.925   4.089  16.783  0.00  0.00    +0.000 NA
ATOM     22  C   UNL     1       5.092   4.428  15.940  0.00  0.00    +0.000 C 
ATOM     23  C   UNL     1       6.376   4.761  16.734  0.00  0.00    +0.000 C 
BRANCH  21  24
ATOM     24  C   UNL     1       4.126   2.866  17.591  0.00  0.00    +0.000 C 
BRANCH  24  25
ATOM     25  C   UNL     1       3.290   2.821  18.846  0.00  0.00    +0.000 A 
ATOM     26  C   UNL     1       3.905   2.673  20.100  0.00  0.00    +0.000 A 
ATOM     27  C   UNL     1       3.132   2.534  21.249  0.00  0.00    +0.000 A 
ATOM     28  C   UNL     1       1.741   2.556  21.151  0.00  0.00    +0.000 A 
ATOM     29 CL   UNL     1       0.786   2.315  22.560  0.00  0.00    +0.000 Cl
ATOM     30  C   UNL     1       1.122   2.748  19.918  0.00  0.00    +0.000 A 
ATOM     31  C   UNL     1       1.894   2.885  18.766  0.00  0.00    +0.000 A 
ENDBRANCH  24  25
ENDBRANCH  21  24
ENDBRANCH  17  18
ENDBRANCH   1  17
TORSDOF 6
ENDMDL
