MODEL 1
REMARK VINA RESULT:      -7.2      0.000      0.000
REMARK  Name = 
REMARK  6 active torsions:
REMARK  status: ('A' for Active; 'I' for Inactive)
REMARK    1  A    between atoms: C_1  and  O_2
REMARK    2  A    between atoms: O_2  and  C_3
REMARK    3  A    between atoms: C_7  and  N_8
REMARK    4  A    between atoms: N_8  and  C_9
REMARK    5  A    between atoms: C_9  and  C_10
REMARK    6  A    between atoms: C_16  and  C_17
REMARK                            x       y       z     vdW  Elec       q    Type
REMARK                         _______ _______ _______ _____ _____    ______ ____
ROOT
ATOM      1  N   UNL     1       6.310   4.246  18.961  0.00  0.00    +0.000 NA
ATOM      2  H   UNL     1       7.100   3.887  18.362  0.00  0.00    +0.000 HD
ENDROOT
BRANCH   1   7
ATOM      3  C   UNL     1       6.211   4.216  15.114  0.00  0.00    +0.000 C 
ATOM      4  C   UNL     1       7.457   4.916  15.712  0.00  0.00    +0.000 C 
ATOM      5  C   UNL     1       7.014   6.243  16.315  0.00  0.00    +0.000 C 
ATOM      6  C   UNL     1       7.291   6.386  17.822  0.00  0.00    +0.000 C 
ATOM      7  C   UNL     1       6.128   5.704  18.585  0.00  0.00    +0.000 C 
ATOM      8  C   UNL     1       4.948   5.968  17.600  0.00  0.00    +0.000 C 
ATOM      9  C   UNL     1       5.495   6.284  16.164  0.00  0.00    +0.000 C 
ATOM     10  C   UNL     1       5.182   5.324  15.001  0.00  0.00    +0.000 C 
BRANCH   3  12
ATOM     11  C   UNL     1       5.360   3.715  13.001  0.00  0.00    +0.000 C 
ATOM     12  O   UNL     1       6.491   3.610  13.855  0.00  0.00    +0.000 OA
ENDBRANCH   3  12
ENDBRANCH   1   7
BRANCH   1  13
ATOM     13  C   UNL     1       5.076   3.421  18.664  0.00  0.00    +0.000 C 
BRANCH  13  14
ATOM     14  C   UNL     1       4.389   2.669  19.815  0.00  0.00    +0.000 C 
ATOM     15  O   UNL     1       5.061   1.891  20.476  0.00  0.00    +0.000 OA
ATOM     16  N   UNL     1       3.044   2.853  20.158  0.00  0.00    +0.000 N 
ATOM     17  C   UNL     1       2.445   2.248  21.336  0.00  0.00    +0.000 C 
ATOM     18  C   UNL     1       1.111   2.996  21.543  0.00  0.00    +0.000 C 
ATOM     19  C   UNL     1       0.690   3.216  20.112  0.00  0.00    +0.000 C 
ATOM     20  C   UNL     1       2.017   3.666  19.482  0.00  0.00    +0.000 C 
BRANCH  20  21
ATOM     21  C   UNL     1       2.098   5.098  19.857  0.00  0.00    +0.000 C 
ATOM     22  N   UNL     1       2.194   6.180  20.210  0.00  0.00    +0.000 NA
ENDBRANCH  20  21
ENDBRANCH  13  14
ENDBRANCH   1  13
TORSDOF 5
ENDMDL
MODEL 2
REMARK VINA RESULT:      -6.9      2.157      5.826
REMARK  Name = 
REMARK  6 active torsions:
REMARK  status: ('A' for Active; 'I' for Inactive)
REMARK    1  A    between atoms: C_1  and  O_2
REMARK    2  A    between atoms: O_2  and  C_3
REMARK    3  A    between atoms: C_7  and  N_8
REMARK    4  A    between atoms: N_8  and  C_9
REMARK    5  A    between atoms: C_9  and  C_10
REMARK    6  A    between atoms: C_16  and  C_17
REMARK                            x       y       z     vdW  Elec       q    Type
REMARK                         _______ _______ _______ _____ _____    ______ ____
ROOT
ATOM      1  N   UNL     1       4.057   2.540  20.068  0.00  0.00    +0.000 NA
ATOM      2  H   UNL     1       3.984   3.353  20.737  0.00  0.00    +0.000 HD
ENDROOT
BRANCH   1   7
ATOM      3  C   UNL     1       2.464   5.948  19.259  0.00  0.00    +0.000 C 
ATOM      4  C   UNL     1       1.878   5.256  20.515  0.00  0.00    +0.000 C 
ATOM      5  C   UNL     1       1.034   4.073  20.057  0.00  0.00    +0.000 C 
ATOM      6  C   UNL     1       1.500   2.709  20.592  0.00  0.00    +0.000 C 
ATOM      7  C   UNL     1       2.635   2.197  19.669  0.00  0.00    +0.000 C 
ATOM      8  C   UNL     1       2.188   2.808  18.306  0.00  0.00    +0.000 C 
ATOM      9  C   UNL     1       1.200   4.005  18.539  0.00  0.00    +0.000 C 
ATOM     10  C   UNL     1       1.613   5.428  18.117  0.00  0.00    +0.000 C 
BRANCH   3  12
ATOM     11  C   UNL     1       2.436   7.953  18.065  0.00  0.00    +0.000 C 
ATOM     12  O   UNL     1       2.417   7.369  19.361  0.00  0.00    +0.000 OA
ENDBRANCH   3  12
ENDBRANCH   1   7
BRANCH   1  13
ATOM     13  C   UNL     1       4.894   2.973  18.884  0.00  0.00    +0.000 C 
BRANCH  13  14
ATOM     14  C   UNL     1       5.609   4.333  18.935  0.00  0.00    +0.000 C 
ATOM     15  O   UNL     1       6.212   4.628  19.956  0.00  0.00    +0.000 OA
ATOM     16  N   UNL     1       5.625   5.234  17.863  0.00  0.00    +0.000 N 
ATOM     17  C   UNL     1       6.422   6.448  17.870  0.00  0.00    +0.000 C 
ATOM     18  C   UNL     1       6.451   6.924  16.402  0.00  0.00    +0.000 C 
ATOM     19  C   UNL     1       5.057   6.553  15.963  0.00  0.00    +0.000 C 
ATOM     20  C   UNL     1       4.923   5.148  16.570  0.00  0.00    +0.000 C 
BRANCH  20  21
ATOM     21  C   UNL     1       5.642   4.292  15.596  0.00  0.00    +0.000 C 
ATOM     22  N   UNL     1       6.261   3.656  14.877  0.00  0.00    +0.000 NA
ENDBRANCH  20  21
ENDBRANCH  13  14
ENDBRANCH   1  13
TORSDOF 5
ENDMDL
MODEL 3
REMARK VINA RESULT:      -6.8      2.443      3.718
REMARK  Name = 
REMARK  6 active torsions:
REMARK  status: ('A' for Active; 'I' for Inactive)
REMARK    1  A    between atoms: C_1  and  O_2
REMARK    2  A    between atoms: O_2  and  C_3
REMARK    3  A    between atoms: C_7  and  N_8
REMARK    4  A    between atoms: N_8  and  C_9
REMARK    5  A    between atoms: C_9  and  C_10
REMARK    6  A    between atoms: C_16  and  C_17
REMARK                            x       y       z     vdW  Elec       q    Type
REMARK                         _______ _______ _______ _____ _____    ______ ____
ROOT
ATOM      1  N   UNL     1       3.920   5.875  17.159  0.00  0.00    +0.000 NA
ATOM      2  H   UNL     1       4.267   6.774  16.730  0.00  0.00    +0.000 HD
ENDROOT
BRANCH   1   7
ATOM      3  C   UNL     1       7.506   6.797  18.204  0.00  0.00    +0.000 C 
ATOM      4  C   UNL     1       7.243   6.897  16.680  0.00  0.00    +0.000 C 
ATOM      5  C   UNL     1       7.123   5.484  16.124  0.00  0.00    +0.000 C 
ATOM      6  C   UNL     1       5.774   5.172  15.454  0.00  0.00    +0.000 C 
ATOM      7  C   UNL     1       4.772   4.770  16.565  0.00  0.00    +0.000 C 
ATOM      8  C   UNL     1       5.737   4.089  17.584  0.00  0.00    +0.000 C 
ATOM      9  C   UNL     1       7.215   4.551  17.331  0.00  0.00    +0.000 C 
ATOM     10  C   UNL     1       7.956   5.364  18.410  0.00  0.00    +0.000 C 
BRANCH   3  12
ATOM     11  C   UNL     1       8.224   9.013  18.074  0.00  0.00    +0.000 C 
ATOM     12  O   UNL     1       8.485   7.736  18.640  0.00  0.00    +0.000 OA
ENDBRANCH   3  12
ENDBRANCH   1   7
BRANCH   1  13
ATOM     13  C   UNL     1       4.077   5.974  18.661  0.00  0.00    +0.000 C 
BRANCH  13  14
ATOM     14  C   UNL     1       2.837   5.800  19.552  0.00  0.00    +0.000 C 
ATOM     15  O   UNL     1       2.085   6.755  19.684  0.00  0.00    +0.000 OA
ATOM     16  N   UNL     1       2.514   4.599  20.195  0.00  0.00    +0.000 N 
ATOM     17  C   UNL     1       1.267   4.404  20.915  0.00  0.00    +0.000 C 
ATOM     18  C   UNL     1       1.152   2.879  21.121  0.00  0.00    +0.000 C 
ATOM     19  C   UNL     1       2.597   2.520  21.354  0.00  0.00    +0.000 C 
ATOM     20  C   UNL     1       3.284   3.343  20.254  0.00  0.00    +0.000 C 
BRANCH  20  21
ATOM     21  C   UNL     1       3.095   2.510  19.043  0.00  0.00    +0.000 C 
ATOM     22  N   UNL     1       2.876   1.863  18.128  0.00  0.00    +0.000 NA
ENDBRANCH  20  21
ENDBRANCH  13  14
ENDBRANCH   1  13
TORSDOF 5
ENDMDL
MODEL 4
REMARK VINA RESULT:      -6.7      1.850      2.561
REMARK  Name = 
REMARK  6 active torsions:
REMARK  status: ('A' for Active; 'I' for Inactive)
REMARK    1  A    between atoms: C_1  and  O_2
REMARK    2  A    between atoms: O_2  and  C_3
REMARK    3  A    between atoms: C_7  and  N_8
REMARK    4  A    between atoms: N_8  and  C_9
REMARK    5  A    between atoms: C_9  and  C_10
REMARK    6  A    between atoms: C_16  and  C_17
REMARK                            x       y       z     vdW  Elec       q    Type
REMARK                         _______ _______ _______ _____ _____    ______ ____
ROOT
ATOM      1  N   UNL     1       3.942   5.932  17.463  0.00  0.00    +0.000 NA
ATOM      2  H   UNL     1       3.418   6.379  18.261  0.00  0.00    +0.000 HD
ENDROOT
BRANCH   1   7
ATOM      3  C   UNL     1       5.764   4.473  14.403  0.00  0.00    +0.000 C 
ATOM      4  C   UNL     1       5.821   3.574  15.665  0.00  0.00    +0.000 C 
ATOM      5  C   UNL     1       6.762   4.226  16.671  0.00  0.00    +0.000 C 
ATOM      6  C   UNL     1       6.111   4.580  18.019  0.00  0.00    +0.000 C 
ATOM      7  C   UNL     1       5.405   5.950  17.862  0.00  0.00    +0.000 C 
ATOM      8  C   UNL     1       6.344   6.634  16.820  0.00  0.00    +0.000 C 
ATOM      9  C   UNL     1       7.183   5.555  16.049  0.00  0.00    +0.000 C 
ATOM     10  C   UNL     1       6.978   5.371  14.533  0.00  0.00    +0.000 C 
BRANCH   3  12
ATOM     11  C   UNL     1       6.980   3.970  12.477  0.00  0.00    +0.000 C 
ATOM     12  O   UNL     1       5.786   3.708  13.201  0.00  0.00    +0.000 OA
ENDBRANCH   3  12
ENDBRANCH   1   7
BRANCH   1  13
ATOM     13  C   UNL     1       3.417   4.524  17.278  0.00  0.00    +0.000 C 
BRANCH  13  14
ATOM     14  C   UNL     1       2.115   4.118  17.986  0.00  0.00    +0.000 C 
ATOM     15  O   UNL     1       1.093   4.054  17.317  0.00  0.00    +0.000 OA
ATOM     16  N   UNL     1       2.048   3.791  19.345  0.00  0.00    +0.000 N 
ATOM     17  C   UNL     1       0.844   3.269  19.969  0.00  0.00    +0.000 C 
ATOM     18  C   UNL     1       1.304   2.698  21.326  0.00  0.00    +0.000 C 
ATOM     19  C   UNL     1       2.365   3.700  21.704  0.00  0.00    +0.000 C 
ATOM     20  C   UNL     1       3.107   3.859  20.368  0.00  0.00    +0.000 C 
BRANCH  20  21
ATOM     21  C   UNL     1       3.997   2.674  20.336  0.00  0.00    +0.000 C 
ATOM     22  N   UNL     1       4.740   1.806  20.328  0.00  0.00    +0.000 NA
ENDBRANCH  20  21
ENDBRANCH  13  14
ENDBRANCH   1  13
TORSDOF 5
ENDMDL
MODEL 5
REMARK VINA RESULT:      -6.6      1.908      2.641
REMARK  Name = 
REMARK  6 active torsions:
REMARK  status: ('A' for Active; 'I' for Inactive)
REMARK    1  A    between atoms: C_1  and  O_2
REMARK    2  A    between atoms: O_2  and  C_3
REMARK    3  A    between atoms: C_7  and  N_8
REMARK    4  A    between atoms: N_8  and  C_9
REMARK    5  A    between atoms: C_9  and  C_10
REMARK    6  A    between atoms: C_16  and  C_17
REMARK                            x       y       z     vdW  Elec       q    Type
REMARK                         _______ _______ _______ _____ _____    ______ ____
ROOT
ATOM      1  N   UNL     1       4.580   6.786  17.439  0.00  0.00    +0.000 NA
ATOM      2  H   UNL     1       4.478   7.681  17.989  0.00  0.00    +0.000 HD
ENDROOT
BRANCH   1   7
ATOM      3  C   UNL     1       5.570   4.605  14.428  0.00  0.00    +0.000 C 
ATOM      4  C   UNL     1       5.270   3.804  15.721  0.00  0.00    +0.000 C 
ATOM      5  C   UNL     1       6.415   4.035  16.699  0.00  0.00    +0.000 C 
ATOM      6  C   UNL     1       5.997   4.671  18.036  0.00  0.00    +0.000 C 
ATOM      7  C   UNL     1       5.924   6.204  17.831  0.00  0.00    +0.000 C 
ATOM      8  C   UNL     1       7.043   6.401  16.762  0.00  0.00    +0.000 C 
ATOM      9  C   UNL     1       7.341   5.047  16.027  0.00  0.00    +0.000 C 
ATOM     10  C   UNL     1       7.050   4.918  14.520  0.00  0.00    +0.000 C 
BRANCH   3  12
ATOM     11  C   UNL     1       6.430   3.577  12.518  0.00  0.00    +0.000 C 
ATOM     12  O   UNL     1       5.248   3.863  13.254  0.00  0.00    +0.000 OA
ENDBRANCH   3  12
ENDBRANCH   1   7
BRANCH   1  13
ATOM     13  C   UNL     1       3.432   5.871  17.804  0.00  0.00    +0.000 C 
BRANCH  13  14
ATOM     14  C   UNL     1       2.909   5.873  19.249  0.00  0.00    +0.000 C 
ATOM     15  O   UNL     1       2.630   6.949  19.758  0.00  0.00    +0.000 OA
ATOM     16  N   UNL     1       2.711   4.706  19.997  0.00  0.00    +0.000 N 
ATOM     17  C   UNL     1       2.080   4.710  21.306  0.00  0.00    +0.000 C 
ATOM     18  C   UNL     1       1.719   3.237  21.587  0.00  0.00    +0.000 C 
ATOM     19  C   UNL     1       2.899   2.537  20.962  0.00  0.00    +0.000 C 
ATOM     20  C   UNL     1       3.034   3.312  19.643  0.00  0.00    +0.000 C 
BRANCH  20  21
ATOM     21  C   UNL     1       1.995   2.695  18.784  0.00  0.00    +0.000 C 
ATOM     22  N   UNL     1       1.143   2.255  18.163  0.00  0.00    +0.000 NA
ENDBRANCH  20  21
ENDBRANCH  13  14
ENDBRANCH   1  13
TORSDOF 5
ENDMDL
MODEL 6
REMARK VINA RESULT:      -6.5      2.296      5.967
REMARK  Name = 
REMARK  6 active torsions:
REMARK  status: ('A' for Active; 'I' for Inactive)
REMARK    1  A    between atoms: C_1  and  O_2
REMARK    2  A    between atoms: O_2  and  C_3
REMARK    3  A    between atoms: C_7  and  N_8
REMARK    4  A    between atoms: N_8  and  C_9
REMARK    5  A    between atoms: C_9  and  C_10
REMARK    6  A    between atoms: C_16  and  C_17
REMARK                            x       y       z     vdW  Elec       q    Type
REMARK                         _______ _______ _______ _____ _____    ______ ____
ROOT
ATOM      1  N   UNL     1       4.398   2.499  19.213  0.00  0.00    +0.000 NA
ATOM      2  H   UNL     1       4.299   2.877  20.193  0.00  0.00    +0.000 HD
ENDROOT
BRANCH   1   7
ATOM      3  C   UNL     1       2.471   5.826  19.069  0.00  0.00    +0.000 C 
ATOM      4  C   UNL     1       1.991   4.862  20.183  0.00  0.00    +0.000 C 
ATOM      5  C   UNL     1       1.247   3.706  19.525  0.00  0.00    +0.000 C 
ATOM      6  C   UNL     1       1.854   2.319  19.793  0.00  0.00    +0.000 C 
ATOM      7  C   UNL     1       3.002   2.098  18.777  0.00  0.00    +0.000 C 
ATOM      8  C   UNL     1       2.458   2.901  17.555  0.00  0.00    +0.000 C 
ATOM      9  C   UNL     1       1.372   3.933  18.020  0.00  0.00    +0.000 C 
ATOM     10  C   UNL     1       1.637   5.442  17.862  0.00  0.00    +0.000 C 
BRANCH   3  12
ATOM     11  C   UNL     1       2.458   8.026  18.293  0.00  0.00    +0.000 C 
ATOM     12  O   UNL     1       2.295   7.193  19.433  0.00  0.00    +0.000 OA
ENDBRANCH   3  12
ENDBRANCH   1   7
BRANCH   1  13
ATOM     13  C   UNL     1       4.979   3.589  18.339  0.00  0.00    +0.000 C 
BRANCH  13  14
ATOM     14  C   UNL     1       5.946   4.608  18.963  0.00  0.00    +0.000 C 
ATOM     15  O   UNL     1       6.342   4.402  20.101  0.00  0.00    +0.000 OA
ATOM     16  N   UNL     1       6.413   5.740  18.285  0.00  0.00    +0.000 N 
ATOM     17  C   UNL     1       7.436   6.615  18.831  0.00  0.00    +0.000 C 
ATOM     18  C   UNL     1       7.914   7.473  17.641  0.00  0.00    +0.000 C 
ATOM     19  C   UNL     1       6.617   7.665  16.897  0.00  0.00    +0.000 C 
ATOM     20  C   UNL     1       6.035   6.244  16.953  0.00  0.00    +0.000 C 
BRANCH  20  21
ATOM     21  C   UNL     1       6.754   5.544  15.862  0.00  0.00    +0.000 C 
ATOM     22  N   UNL     1       7.346   5.068  15.009  0.00  0.00    +0.000 NA
ENDBRANCH  20  21
ENDBRANCH  13  14
ENDBRANCH   1  13
TORSDOF 5
ENDMDL
MODEL 7
REMARK VINA RESULT:      -6.4      1.831      2.630
REMARK  Name = 
REMARK  6 active torsions:
REMARK  status: ('A' for Active; 'I' for Inactive)
REMARK    1  A    between atoms: C_1  and  O_2
REMARK    2  A    between atoms: O_2  and  C_3
REMARK    3  A    between atoms: C_7  and  N_8
REMARK    4  A    between atoms: N_8  and  C_9
REMARK    5  A    between atoms: C_9  and  C_10
REMARK    6  A    between atoms: C_16  and  C_17
REMARK                            x       y       z     vdW  Elec       q    Type
REMARK                         _______ _______ _______ _____ _____    ______ ____
ROOT
ATOM      1  N   UNL     1       4.679   6.578  17.855  0.00  0.00    +0.000 NA
ATOM      2  H   UNL     1       4.664   7.632  17.893  0.00  0.00    +0.000 HD
ENDROOT
BRANCH   1   7
ATOM      3  C   UNL     1       5.531   4.620  14.654  0.00  0.00    +0.000 C 
ATOM      4  C   UNL     1       5.513   3.757  15.940  0.00  0.00    +0.000 C 
ATOM      5  C   UNL     1       6.739   4.115  16.771  0.00  0.00    +0.000 C 
ATOM      6  C   UNL     1       6.424   4.657  18.176  0.00  0.00    +0.000 C 
ATOM      7  C   UNL     1       6.127   6.172  18.046  0.00  0.00    +0.000 C 
ATOM      8  C   UNL     1       7.058   6.541  16.850  0.00  0.00    +0.000 C 
ATOM      9  C   UNL     1       7.428   5.258  16.027  0.00  0.00    +0.000 C 
ATOM     10  C   UNL     1       6.958   5.126  14.566  0.00  0.00    +0.000 C 
BRANCH   3  12
ATOM     11  C   UNL     1       6.295   3.608  12.695  0.00  0.00    +0.000 C 
ATOM     12  O   UNL     1       5.154   3.870  13.502  0.00  0.00    +0.000 OA
ENDBRANCH   3  12
ENDBRANCH   1   7
BRANCH   1  13
ATOM     13  C   UNL     1       3.787   6.051  18.958  0.00  0.00    +0.000 C 
BRANCH  13  14
ATOM     14  C   UNL     1       2.546   5.226  18.581  0.00  0.00    +0.000 C 
ATOM     15  O   UNL     1       1.922   5.549  17.580  0.00  0.00    +0.000 OA
ATOM     16  N   UNL     1       2.113   4.112  19.309  0.00  0.00    +0.000 N 
ATOM     17  C   UNL     1       1.027   3.255  18.863  0.00  0.00    +0.000 C 
ATOM     18  C   UNL     1       1.137   1.979  19.723  0.00  0.00    +0.000 C 
ATOM     19  C   UNL     1       1.573   2.568  21.041  0.00  0.00    +0.000 C 
ATOM     20  C   UNL     1       2.640   3.570  20.575  0.00  0.00    +0.000 C 
BRANCH  20  21
ATOM     21  C   UNL     1       3.834   2.716  20.367  0.00  0.00    +0.000 C 
ATOM     22  N   UNL     1       4.784   2.115  20.168  0.00  0.00    +0.000 NA
ENDBRANCH  20  21
ENDBRANCH  13  14
ENDBRANCH   1  13
TORSDOF 5
ENDMDL
MODEL 8
REMARK VINA RESULT:      -6.4      3.952      5.368
REMARK  Name = 
REMARK  6 active torsions:
REMARK  status: ('A' for Active; 'I' for Inactive)
REMARK    1  A    between atoms: C_1  and  O_2
REMARK    2  A    between atoms: O_2  and  C_3
REMARK    3  A    between atoms: C_7  and  N_8
REMARK    4  A    between atoms: N_8  and  C_9
REMARK    5  A    between atoms: C_9  and  C_10
REMARK    6  A    between atoms: C_16  and  C_17
REMARK                            x       y       z     vdW  Elec       q    Type
REMARK                         _______ _______ _______ _____ _____    ______ ____
ROOT
ATOM      1  N   UNL     1       3.171   6.775  18.040  0.00  0.00    +0.000 NA
ATOM      2  H   UNL     1       4.129   7.174  17.855  0.00  0.00    +0.000 HD
ENDROOT
BRANCH   1   7
ATOM      3  C   UNL     1       6.443   5.622  16.376  0.00  0.00    +0.000 C 
ATOM      4  C   UNL     1       5.189   4.829  15.927  0.00  0.00    +0.000 C 
ATOM      5  C   UNL     1       4.753   3.936  17.082  0.00  0.00    +0.000 C 
ATOM      6  C   UNL     1       3.328   4.203  17.595  0.00  0.00    +0.000 C 
ATOM      7  C   UNL     1       3.397   5.383  18.596  0.00  0.00    +0.000 C 
ATOM      8  C   UNL     1       4.817   5.159  19.202  0.00  0.00    +0.000 C 
ATOM      9  C   UNL     1       5.686   4.271  18.244  0.00  0.00    +0.000 C 
ATOM     10  C   UNL     1       6.947   4.864  17.588  0.00  0.00    +0.000 C 
BRANCH   3  12
ATOM     11  C   UNL     1       7.050   4.870  14.252  0.00  0.00    +0.000 C 
ATOM     12  O   UNL     1       7.423   5.700  15.344  0.00  0.00    +0.000 OA
ENDBRANCH   3  12
ENDBRANCH   1   7
BRANCH   1  13
ATOM     13  C   UNL     1       2.462   7.677  19.026  0.00  0.00    +0.000 C 
BRANCH  13  14
ATOM     14  C   UNL     1       1.709   8.910  18.500  0.00  0.00    +0.000 C 
ATOM     15  O   UNL     1       1.673   9.089  17.292  0.00  0.00    +0.000 OA
ATOM     16  N   UNL     1       1.043   9.817  19.333  0.00  0.00    +0.000 N 
ATOM     17  C   UNL     1       0.215  10.894  18.817  0.00  0.00    +0.000 C 
ATOM     18  C   UNL     1      -0.610  11.386  20.025  0.00  0.00    +0.000 C 
ATOM     19  C   UNL     1       0.404  11.242  21.131  0.00  0.00    +0.000 C 
ATOM     20  C   UNL     1       0.999   9.864  20.805  0.00  0.00    +0.000 C 
BRANCH  20  21
ATOM     21  C   UNL     1      -0.002   8.925  21.368  0.00  0.00    +0.000 C 
ATOM     22  N   UNL     1      -0.786   8.253  21.855  0.00  0.00    +0.000 NA
ENDBRANCH  20  21
ENDBRANCH  13  14
ENDBRANCH   1  13
TORSDOF 5
ENDMDL
MODEL 9
REMARK VINA RESULT:      -6.3      4.077      6.082
REMARK  Name = 
REMARK  6 active torsions:
REMARK  status: ('A' for Active; 'I' for Inactive)
REMARK    1  A    between atoms: C_1  and  O_2
REMARK    2  A    between atoms: O_2  and  C_3
REMARK    3  A    between atoms: C_7  and  N_8
REMARK    4  A    between atoms: N_8  and  C_9
REMARK    5  A    between atoms: C_9  and  C_10
REMARK    6  A    between atoms: C_16  and  C_17
REMARK                            x       y       z     vdW  Elec       q    Type
REMARK                         _______ _______ _______ _____ _____    ______ ____
ROOT
ATOM      1  N   UNL     1       2.367   6.898  20.422  0.00  0.00    +0.000 NA
ATOM      2  H   UNL     1       3.018   6.432  21.109  0.00  0.00    +0.000 HD
ENDROOT
BRANCH   1   7
ATOM      3  C   UNL     1       5.607   5.130  19.334  0.00  0.00    +0.000 C 
ATOM      4  C   UNL     1       4.888   5.895  18.195  0.00  0.00    +0.000 C 
ATOM      5  C   UNL     1       3.628   5.123  17.825  0.00  0.00    +0.000 C 
ATOM      6  C   UNL     1       2.319   5.912  18.000  0.00  0.00    +0.000 C 
ATOM      7  C   UNL     1       1.893   5.803  19.486  0.00  0.00    +0.000 C 
ATOM      8  C   UNL     1       2.438   4.384  19.833  0.00  0.00    +0.000 C 
ATOM      9  C   UNL     1       3.548   3.958  18.809  0.00  0.00    +0.000 C 
ATOM     10  C   UNL     1       4.993   3.744  19.295  0.00  0.00    +0.000 C 
BRANCH   3  12
ATOM     11  C   UNL     1       7.414   6.112  18.234  0.00  0.00    +0.000 C 
ATOM     12  O   UNL     1       7.020   5.098  19.149  0.00  0.00    +0.000 OA
ENDBRANCH   3  12
ENDBRANCH   1   7
BRANCH   1  13
ATOM     13  C   UNL     1       1.227   7.521  21.197  0.00  0.00    +0.000 C 
BRANCH  13  14
ATOM     14  C   UNL     1       1.260   9.030  21.486  0.00  0.00    +0.000 C 
ATOM     15  O   UNL     1       1.676   9.398  22.575  0.00  0.00    +0.000 OA
ATOM     16  N   UNL     1       0.866  10.000  20.557  0.00  0.00    +0.000 N 
ATOM     17  C   UNL     1       1.038  11.425  20.787  0.00  0.00    +0.000 C 
ATOM     18  C   UNL     1       0.842  12.086  19.407  0.00  0.00    +0.000 C 
ATOM     19  C   UNL     1      -0.243  11.211  18.831  0.00  0.00    +0.000 C 
ATOM     20  C   UNL     1       0.268   9.816  19.222  0.00  0.00    +0.000 C 
BRANCH  20  21
ATOM     21  C   UNL     1       1.287   9.529  18.185  0.00  0.00    +0.000 C 
ATOM     22  N   UNL     1       2.097   9.377  17.394  0.00  0.00    +0.000 NA
ENDBRANCH  20  21
ENDBRANCH  13  14
ENDBRANCH   1  13
TORSDOF 5
ENDMDL
