MODEL 1
REMARK VINA RESULT:      -6.5      0.000      0.000
REMARK  Name = 
REMARK  8 active torsions:
REMARK  status: ('A' for Active; 'I' for Inactive)
REMARK    1  A    between atoms: C_1  and  N_2
REMARK    2  A    between atoms: N_2  and  S_3
REMARK    3  A    between atoms: S_3  and  C_6
REMARK    4  A    between atoms: C_6  and  C_7
REMARK    5  A    between atoms: N_9  and  C_10
REMARK    6  A    between atoms: C_10  and  C_11
REMARK    7  A    between atoms: C_10  and  C_12
REMARK    8  A    between atoms: C_12  and  C_13
REMARK                            x       y       z     vdW  Elec       q    Type
REMARK                         _______ _______ _______ _____ _____    ______ ____
ROOT
ATOM      1  C   UNL     1       4.954   5.246  16.679  0.00  0.00    +0.000 C 
ATOM      2  O   UNL     1       4.752   6.331  16.143  0.00  0.00    +0.000 OA
ATOM      3  N   UNL     1       3.987   4.628  17.456  0.00  0.00    +0.000 N 
ATOM      4  H   UNL     1       4.258   3.846  18.042  0.00  0.00    +0.000 HD
ENDROOT
BRANCH   3   5
ATOM      5  C   UNL     1       2.770   5.358  17.802  0.00  0.00    +0.000 C 
ATOM      6  C   UNL     1       1.571   4.405  17.914  0.00  0.00    +0.000 C 
BRANCH   5   7
ATOM      7  C   UNL     1       2.921   6.143  19.118  0.00  0.00    +0.000 C 
BRANCH   7   8
ATOM      8  C   UNL     1       2.287   7.518  19.120  0.00  0.00    +0.000 A 
ATOM      9  C   UNL     1       2.283   8.312  17.964  0.00  0.00    +0.000 A 
ATOM     10  C   UNL     1       1.614   9.539  17.946  0.00  0.00    +0.000 A 
ATOM     11  C   UNL     1       0.941   9.976  19.085  0.00  0.00    +0.000 A 
ATOM     12 BR   UNL     1      -0.016  11.604  19.042  0.00  0.00    +0.000 Br
ATOM     13  C   UNL     1       0.950   9.208  20.246  0.00  0.00    +0.000 A 
ATOM     14  C   UNL     1       1.621   7.983  20.263  0.00  0.00    +0.000 A 
ENDBRANCH   7   8
ENDBRANCH   5   7
ENDBRANCH   3   5
BRANCH   1  15
ATOM     15  C   UNL     1       6.198   4.442  16.471  0.00  0.00    +0.000 C 
BRANCH  15  16
ATOM     16  S   UNL     1       7.393   4.856  17.725  0.00  0.00    +0.000 S 
ATOM     17  O   UNL     1       8.586   4.075  17.463  0.00  0.00    +0.000 OA
ATOM     18  O   UNL     1       6.740   4.804  19.014  0.00  0.00    +0.000 OA
BRANCH  16  20
ATOM     19  C   UNL     1       8.174   7.307  18.535  0.00  0.00    +0.000 C 
ATOM     20  N   UNL     1       7.763   6.474  17.404  0.00  0.00    +0.000 NA
ATOM     21  H   UNL     1       8.415   6.511  16.604  0.00  0.00    +0.000 HD
ENDBRANCH  16  20
ENDBRANCH  15  16
ENDBRANCH   1  15
TORSDOF 6
ENDMDL
MODEL 2
REMARK VINA RESULT:      -6.3      1.362      1.835
REMARK  Name = 
REMARK  8 active torsions:
REMARK  status: ('A' for Active; 'I' for Inactive)
REMARK    1  A    between atoms: C_1  and  N_2
REMARK    2  A    between atoms: N_2  and  S_3
REMARK    3  A    between atoms: S_3  and  C_6
REMARK    4  A    between atoms: C_6  and  C_7
REMARK    5  A    between atoms: N_9  and  C_10
REMARK    6  A    between atoms: C_10  and  C_11
REMARK    7  A    between atoms: C_10  and  C_12
REMARK    8  A    between atoms: C_12  and  C_13
REMARK                            x       y       z     vdW  Elec       q    Type
REMARK                         _______ _______ _______ _____ _____    ______ ____
ROOT
ATOM      1  C   UNL     1       5.101   6.290  17.523  0.00  0.00    +0.000 C 
ATOM      2  O   UNL     1       4.665   6.919  16.564  0.00  0.00    +0.000 OA
ATOM      3  N   UNL     1       4.257   5.682  18.439  0.00  0.00    +0.000 N 
ATOM      4  H   UNL     1       4.644   5.352  19.316  0.00  0.00    +0.000 HD
ENDROOT
BRANCH   3   5
ATOM      5  C   UNL     1       2.821   5.943  18.374  0.00  0.00    +0.000 C 
ATOM      6  C   UNL     1       2.039   4.650  18.105  0.00  0.00    +0.000 C 
BRANCH   5   7
ATOM      7  C   UNL     1       2.295   6.597  19.666  0.00  0.00    +0.000 C 
BRANCH   7   8
ATOM      8  C   UNL     1       1.841   8.033  19.518  0.00  0.00    +0.000 A 
ATOM      9  C   UNL     1       1.983   8.713  18.299  0.00  0.00    +0.000 A 
ATOM     10  C   UNL     1       1.477  10.006  18.142  0.00  0.00    +0.000 A 
ATOM     11  C   UNL     1       0.820  10.624  19.202  0.00  0.00    +0.000 A 
ATOM     12 BR   UNL     1       0.079  12.347  18.972  0.00  0.00    +0.000 Br
ATOM     13  C   UNL     1       0.685   9.971  20.425  0.00  0.00    +0.000 A 
ATOM     14  C   UNL     1       1.194   8.679  20.581  0.00  0.00    +0.000 A 
ENDBRANCH   7   8
ENDBRANCH   5   7
ENDBRANCH   3   5
BRANCH   1  15
ATOM     15  C   UNL     1       6.558   6.028  17.744  0.00  0.00    +0.000 C 
BRANCH  15  16
ATOM     16  S   UNL     1       7.077   4.653  16.739  0.00  0.00    +0.000 S 
ATOM     17  O   UNL     1       5.930   3.786  16.563  0.00  0.00    +0.000 OA
ATOM     18  O   UNL     1       8.320   4.141  17.271  0.00  0.00    +0.000 OA
BRANCH  16  20
ATOM     19  C   UNL     1       6.821   4.740  14.055  0.00  0.00    +0.000 C 
ATOM     20  N   UNL     1       7.415   5.360  15.241  0.00  0.00    +0.000 NA
ATOM     21  H   UNL     1       7.240   6.375  15.309  0.00  0.00    +0.000 HD
ENDBRANCH  16  20
ENDBRANCH  15  16
ENDBRANCH   1  15
TORSDOF 6
ENDMDL
MODEL 3
REMARK VINA RESULT:      -6.2      1.354      2.131
REMARK  Name = 
REMARK  8 active torsions:
REMARK  status: ('A' for Active; 'I' for Inactive)
REMARK    1  A    between atoms: C_1  and  N_2
REMARK    2  A    between atoms: N_2  and  S_3
REMARK    3  A    between atoms: S_3  and  C_6
REMARK    4  A    between atoms: C_6  and  C_7
REMARK    5  A    between atoms: N_9  and  C_10
REMARK    6  A    between atoms: C_10  and  C_11
REMARK    7  A    between atoms: C_10  and  C_12
REMARK    8  A    between atoms: C_12  and  C_13
REMARK                            x       y       z     vdW  Elec       q    Type
REMARK                         _______ _______ _______ _____ _____    ______ ____
ROOT
ATOM      1  C   UNL     1       5.152   6.424  17.244  0.00  0.00    +0.000 C 
ATOM      2  O   UNL     1       4.641   7.003  16.291  0.00  0.00    +0.000 OA
ATOM      3  N   UNL     1       4.382   5.798  18.212  0.00  0.00    +0.000 N 
ATOM      4  H   UNL     1       4.824   5.514  19.079  0.00  0.00    +0.000 HD
ENDROOT
BRANCH   3   5
ATOM      5  C   UNL     1       2.933   5.983  18.206  0.00  0.00    +0.000 C 
ATOM      6  C   UNL     1       2.208   4.639  18.041  0.00  0.00    +0.000 C 
BRANCH   5   7
ATOM      7  C   UNL     1       2.434   6.676  19.487  0.00  0.00    +0.000 C 
BRANCH   7   8
ATOM      8  C   UNL     1       1.898   8.078  19.291  0.00  0.00    +0.000 A 
ATOM      9  C   UNL     1       1.203   8.736  20.317  0.00  0.00    +0.000 A 
ATOM     10  C   UNL     1       0.795  10.063  20.163  0.00  0.00    +0.000 A 
ATOM     11  C   UNL     1       1.083  10.742  18.982  0.00  0.00    +0.000 A 
ATOM     12 BR   UNL     1       0.587  12.556  18.797  0.00  0.00    +0.000 Br
ATOM     13  C   UNL     1       1.756  10.099  17.946  0.00  0.00    +0.000 A 
ATOM     14  C   UNL     1       2.163   8.771  18.101  0.00  0.00    +0.000 A 
ENDBRANCH   7   8
ENDBRANCH   5   7
ENDBRANCH   3   5
BRANCH   1  15
ATOM     15  C   UNL     1       6.628   6.245  17.406  0.00  0.00    +0.000 C 
BRANCH  15  16
ATOM     16  S   UNL     1       7.098   4.621  16.848  0.00  0.00    +0.000 S 
ATOM     17  O   UNL     1       5.892   3.821  16.772  0.00  0.00    +0.000 OA
ATOM     18  O   UNL     1       8.234   4.180  17.627  0.00  0.00    +0.000 OA
BRANCH  16  20
ATOM     19  C   UNL     1       6.664   4.693  14.187  0.00  0.00    +0.000 C 
ATOM     20  N   UNL     1       7.634   4.884  15.266  0.00  0.00    +0.000 NA
ATOM     21  H   UNL     1       8.120   5.794  15.229  0.00  0.00    +0.000 HD
ENDBRANCH  16  20
ENDBRANCH  15  16
ENDBRANCH   1  15
TORSDOF 6
ENDMDL
MODEL 4
REMARK VINA RESULT:      -6.1      1.914      2.386
REMARK  Name = 
REMARK  8 active torsions:
REMARK  status: ('A' for Active; 'I' for Inactive)
REMARK    1  A    between atoms: C_1  and  N_2
REMARK    2  A    between atoms: N_2  and  S_3
REMARK    3  A    between atoms: S_3  and  C_6
REMARK    4  A    between atoms: C_6  and  C_7
REMARK    5  A    between atoms: N_9  and  C_10
REMARK    6  A    between atoms: C_10  and  C_11
REMARK    7  A    between atoms: C_10  and  C_12
REMARK    8  A    between atoms: C_12  and  C_13
REMARK                            x       y       z     vdW  Elec       q    Type
REMARK                         _______ _______ _______ _____ _____    ______ ____
ROOT
ATOM      1  C   UNL     1       2.783   3.745  17.773  0.00  0.00    +0.000 C 
ATOM      2  O   UNL     1       1.701   3.849  17.204  0.00  0.00    +0.000 OA
ATOM      3  N   UNL     1       2.944   4.103  19.102  0.00  0.00    +0.000 N 
ATOM      4  H   UNL     1       3.883   4.196  19.473  0.00  0.00    +0.000 HD
ENDROOT
BRANCH   3   5
ATOM      5  C   UNL     1       1.858   4.791  19.796  0.00  0.00    +0.000 C 
ATOM      6  C   UNL     1       1.055   3.812  20.666  0.00  0.00    +0.000 C 
BRANCH   5   7
ATOM      7  C   UNL     1       2.373   5.946  20.673  0.00  0.00    +0.000 C 
BRANCH   7   8
ATOM      8  C   UNL     1       1.935   7.328  20.235  0.00  0.00    +0.000 A 
ATOM      9  C   UNL     1       2.189   7.786  18.934  0.00  0.00    +0.000 A 
ATOM     10  C   UNL     1       1.699   9.024  18.507  0.00  0.00    +0.000 A 
ATOM     11  C   UNL     1       0.948   9.807  19.379  0.00  0.00    +0.000 A 
ATOM     12 BR   UNL     1       0.232  11.452  18.784  0.00  0.00    +0.000 Br
ATOM     13  C   UNL     1       0.702   9.376  20.680  0.00  0.00    +0.000 A 
ATOM     14  C   UNL     1       1.194   8.139  21.106  0.00  0.00    +0.000 A 
ENDBRANCH   7   8
ENDBRANCH   5   7
ENDBRANCH   3   5
BRANCH   1  15
ATOM     15  C   UNL     1       3.993   3.136  17.138  0.00  0.00    +0.000 C 
BRANCH  15  16
ATOM     16  S   UNL     1       5.227   4.394  16.875  0.00  0.00    +0.000 S 
ATOM     17  O   UNL     1       4.606   5.675  17.146  0.00  0.00    +0.000 OA
ATOM     18  O   UNL     1       5.879   4.138  15.611  0.00  0.00    +0.000 OA
BRANCH  16  20
ATOM     19  C   UNL     1       7.616   4.848  18.041  0.00  0.00    +0.000 C 
ATOM     20  N   UNL     1       6.355   4.106  18.100  0.00  0.00    +0.000 NA
ATOM     21  H   UNL     1       5.877   4.175  19.013  0.00  0.00    +0.000 HD
ENDBRANCH  16  20
ENDBRANCH  15  16
ENDBRANCH   1  15
TORSDOF 6
ENDMDL
MODEL 5
REMARK VINA RESULT:      -6.1      1.870      2.724
REMARK  Name = 
REMARK  8 active torsions:
REMARK  status: ('A' for Active; 'I' for Inactive)
REMARK    1  A    between atoms: C_1  and  N_2
REMARK    2  A    between atoms: N_2  and  S_3
REMARK    3  A    between atoms: S_3  and  C_6
REMARK    4  A    between atoms: C_6  and  C_7
REMARK    5  A    between atoms: N_9  and  C_10
REMARK    6  A    between atoms: C_10  and  C_11
REMARK    7  A    between atoms: C_10  and  C_12
REMARK    8  A    between atoms: C_12  and  C_13
REMARK                            x       y       z     vdW  Elec       q    Type
REMARK                         _______ _______ _______ _____ _____    ______ ____
ROOT
ATOM      1  C   UNL     1       5.465   4.577  16.872  0.00  0.00    +0.000 C 
ATOM      2  O   UNL     1       5.486   4.000  15.790  0.00  0.00    +0.000 OA
ATOM      3  N   UNL     1       4.722   4.096  17.939  0.00  0.00    +0.000 N 
ATOM      4  H   UNL     1       4.567   4.701  18.738  0.00  0.00    +0.000 HD
ENDROOT
BRANCH   3   5
ATOM      5  C   UNL     1       3.798   2.984  17.726  0.00  0.00    +0.000 C 
ATOM      6  C   UNL     1       3.991   1.898  18.795  0.00  0.00    +0.000 C 
BRANCH   5   7
ATOM      7  C   UNL     1       2.330   3.446  17.728  0.00  0.00    +0.000 C 
BRANCH   7   8
ATOM      8  C   UNL     1       2.040   4.660  18.585  0.00  0.00    +0.000 A 
ATOM      9  C   UNL     1       1.624   4.519  19.918  0.00  0.00    +0.000 A 
ATOM     10  C   UNL     1       1.451   5.642  20.731  0.00  0.00    +0.000 A 
ATOM     11  C   UNL     1       1.697   6.912  20.217  0.00  0.00    +0.000 A 
ATOM     12 BR   UNL     1       1.524   8.427  21.334  0.00  0.00    +0.000 Br
ATOM     13  C   UNL     1       2.093   7.071  18.892  0.00  0.00    +0.000 A 
ATOM     14  C   UNL     1       2.265   5.948  18.079  0.00  0.00    +0.000 A 
ENDBRANCH   7   8
ENDBRANCH   5   7
ENDBRANCH   3   5
BRANCH   1  15
ATOM     15  C   UNL     1       6.301   5.778  17.183  0.00  0.00    +0.000 C 
BRANCH  15  16
ATOM     16  S   UNL     1       7.378   5.418  18.555  0.00  0.00    +0.000 S 
ATOM     17  O   UNL     1       8.321   4.409  18.114  0.00  0.00    +0.000 OA
ATOM     18  O   UNL     1       6.564   5.210  19.732  0.00  0.00    +0.000 OA
BRANCH  16  20
ATOM     19  C   UNL     1       7.940   7.964  17.864  0.00  0.00    +0.000 C 
ATOM     20  N   UNL     1       8.237   6.857  18.775  0.00  0.00    +0.000 NA
ATOM     21  H   UNL     1       8.192   7.119  19.773  0.00  0.00    +0.000 HD
ENDBRANCH  16  20
ENDBRANCH  15  16
ENDBRANCH   1  15
TORSDOF 6
ENDMDL
MODEL 6
REMARK VINA RESULT:      -6.0      2.096      2.895
REMARK  Name = 
REMARK  8 active torsions:
REMARK  status: ('A' for Active; 'I' for Inactive)
REMARK    1  A    between atoms: C_1  and  N_2
REMARK    2  A    between atoms: N_2  and  S_3
REMARK    3  A    between atoms: S_3  and  C_6
REMARK    4  A    between atoms: C_6  and  C_7
REMARK    5  A    between atoms: N_9  and  C_10
REMARK    6  A    between atoms: C_10  and  C_11
REMARK    7  A    between atoms: C_10  and  C_12
REMARK    8  A    between atoms: C_12  and  C_13
REMARK                            x       y       z     vdW  Elec       q    Type
REMARK                         _______ _______ _______ _____ _____    ______ ____
ROOT
ATOM      1  C   UNL     1       5.428   3.980  16.891  0.00  0.00    +0.000 C 
ATOM      2  O   UNL     1       5.163   3.725  15.721  0.00  0.00    +0.000 OA
ATOM      3  N   UNL     1       4.714   3.418  17.938  0.00  0.00    +0.000 N 
ATOM      4  H   UNL     1       4.826   3.806  18.868  0.00  0.00    +0.000 HD
ENDROOT
BRANCH   3   5
ATOM      5  C   UNL     1       3.505   2.652  17.651  0.00  0.00    +0.000 C 
ATOM      6  C   UNL     1       3.225   1.630  18.764  0.00  0.00    +0.000 C 
BRANCH   5   7
ATOM      7  C   UNL     1       2.274   3.560  17.473  0.00  0.00    +0.000 C 
BRANCH   7   8
ATOM      8  C   UNL     1       2.188   4.720  18.442  0.00  0.00    +0.000 A 
ATOM      9  C   UNL     1       2.508   6.025  18.037  0.00  0.00    +0.000 A 
ATOM     10  C   UNL     1       2.336   7.103  18.908  0.00  0.00    +0.000 A 
ATOM     11  C   UNL     1       1.838   6.883  20.190  0.00  0.00    +0.000 A 
ATOM     12 BR   UNL     1       1.545   8.348  21.347  0.00  0.00    +0.000 Br
ATOM     13  C   UNL     1       1.532   5.593  20.615  0.00  0.00    +0.000 A 
ATOM     14  C   UNL     1       1.706   4.515  19.743  0.00  0.00    +0.000 A 
ENDBRANCH   7   8
ENDBRANCH   5   7
ENDBRANCH   3   5
BRANCH   1  15
ATOM     15  C   UNL     1       6.591   4.824  17.308  0.00  0.00    +0.000 C 
BRANCH  15  16
ATOM     16  S   UNL     1       6.860   6.107  16.103  0.00  0.00    +0.000 S 
ATOM     17  O   UNL     1       5.573   6.706  15.812  0.00  0.00    +0.000 OA
ATOM     18  O   UNL     1       7.688   5.575  15.044  0.00  0.00    +0.000 OA
BRANCH  16  20
ATOM     19  C   UNL     1       7.940   7.061  18.383  0.00  0.00    +0.000 C 
ATOM     20  N   UNL     1       7.776   7.254  16.941  0.00  0.00    +0.000 NA
ATOM     21  H   UNL     1       8.667   7.396  16.439  0.00  0.00    +0.000 HD
ENDBRANCH  16  20
ENDBRANCH  15  16
ENDBRANCH   1  15
TORSDOF 6
ENDMDL
MODEL 7
REMARK VINA RESULT:      -6.0      2.930      4.347
REMARK  Name = 
REMARK  8 active torsions:
REMARK  status: ('A' for Active; 'I' for Inactive)
REMARK    1  A    between atoms: C_1  and  N_2
REMARK    2  A    between atoms: N_2  and  S_3
REMARK    3  A    between atoms: S_3  and  C_6
REMARK    4  A    between atoms: C_6  and  C_7
REMARK    5  A    between atoms: N_9  and  C_10
REMARK    6  A    between atoms: C_10  and  C_11
REMARK    7  A    between atoms: C_10  and  C_12
REMARK    8  A    between atoms: C_12  and  C_13
REMARK                            x       y       z     vdW  Elec       q    Type
REMARK                         _______ _______ _______ _____ _____    ______ ____
ROOT
ATOM      1  C   UNL     1       3.991   3.655  18.342  0.00  0.00    +0.000 C 
ATOM      2  O   UNL     1       4.939   3.690  19.121  0.00  0.00    +0.000 OA
ATOM      3  N   UNL     1       3.758   4.677  17.436  0.00  0.00    +0.000 N 
ATOM      4  H   UNL     1       2.863   4.712  16.959  0.00  0.00    +0.000 HD
ENDROOT
BRANCH   3   5
ATOM      5  C   UNL     1       4.539   5.908  17.525  0.00  0.00    +0.000 C 
ATOM      6  C   UNL     1       5.830   5.801  16.701  0.00  0.00    +0.000 C 
BRANCH   5   7
ATOM      7  C   UNL     1       3.737   7.136  17.057  0.00  0.00    +0.000 C 
BRANCH   7   8
ATOM      8  C   UNL     1       2.873   7.781  18.120  0.00  0.00    +0.000 A 
ATOM      9  C   UNL     1       2.151   8.953  17.850  0.00  0.00    +0.000 A 
ATOM     10  C   UNL     1       1.282   9.490  18.804  0.00  0.00    +0.000 A 
ATOM     11  C   UNL     1       1.127   8.853  20.032  0.00  0.00    +0.000 A 
ATOM     12 BR   UNL     1      -0.095   9.542  21.299  0.00  0.00    +0.000 Br
ATOM     13  C   UNL     1       1.849   7.699  20.324  0.00  0.00    +0.000 A 
ATOM     14  C   UNL     1       2.719   7.164  19.370  0.00  0.00    +0.000 A 
ENDBRANCH   7   8
ENDBRANCH   5   7
ENDBRANCH   3   5
BRANCH   1  15
ATOM     15  C   UNL     1       3.068   2.485  18.219  0.00  0.00    +0.000 C 
BRANCH  15  16
ATOM     16  S   UNL     1       1.385   3.026  18.439  0.00  0.00    +0.000 S 
ATOM     17  O   UNL     1       0.580   1.847  18.690  0.00  0.00    +0.000 OA
ATOM     18  O   UNL     1       1.054   3.937  17.367  0.00  0.00    +0.000 OA
BRANCH  16  20
ATOM     19  C   UNL     1       1.358   3.178  21.132  0.00  0.00    +0.000 C 
ATOM     20  N   UNL     1       1.439   3.920  19.872  0.00  0.00    +0.000 NA
ATOM     21  H   UNL     1       2.240   4.570  19.826  0.00  0.00    +0.000 HD
ENDBRANCH  16  20
ENDBRANCH  15  16
ENDBRANCH   1  15
TORSDOF 6
ENDMDL
MODEL 8
REMARK VINA RESULT:      -6.0      2.719      3.594
REMARK  Name = 
REMARK  8 active torsions:
REMARK  status: ('A' for Active; 'I' for Inactive)
REMARK    1  A    between atoms: C_1  and  N_2
REMARK    2  A    between atoms: N_2  and  S_3
REMARK    3  A    between atoms: S_3  and  C_6
REMARK    4  A    between atoms: C_6  and  C_7
REMARK    5  A    between atoms: N_9  and  C_10
REMARK    6  A    between atoms: C_10  and  C_11
REMARK    7  A    between atoms: C_10  and  C_12
REMARK    8  A    between atoms: C_12  and  C_13
REMARK                            x       y       z     vdW  Elec       q    Type
REMARK                         _______ _______ _______ _____ _____    ______ ____
ROOT
ATOM      1  C   UNL     1       3.594   4.976  19.292  0.00  0.00    +0.000 C 
ATOM      2  O   UNL     1       4.599   5.363  19.879  0.00  0.00    +0.000 OA
ATOM      3  N   UNL     1       2.944   5.771  18.361  0.00  0.00    +0.000 N 
ATOM      4  H   UNL     1       2.015   5.503  18.054  0.00  0.00    +0.000 HD
ENDROOT
BRANCH   3   5
ATOM      5  C   UNL     1       3.347   7.166  18.204  0.00  0.00    +0.000 C 
ATOM      6  C   UNL     1       4.364   7.320  17.064  0.00  0.00    +0.000 C 
BRANCH   5   7
ATOM      7  C   UNL     1       2.142   8.088  17.938  0.00  0.00    +0.000 C 
BRANCH   7   8
ATOM      8  C   UNL     1       1.517   8.699  19.175  0.00  0.00    +0.000 A 
ATOM      9  C   UNL     1       0.715   9.846  19.086  0.00  0.00    +0.000 A 
ATOM     10  C   UNL     1       0.065  10.349  20.216  0.00  0.00    +0.000 A 
ATOM     11  C   UNL     1       0.210   9.704  21.441  0.00  0.00    +0.000 A 
ATOM     12 BR   UNL     1      -0.719  10.346  22.956  0.00  0.00    +0.000 Br
ATOM     13  C   UNL     1       1.016   8.574  21.551  0.00  0.00    +0.000 A 
ATOM     14  C   UNL     1       1.667   8.073  20.421  0.00  0.00    +0.000 A 
ENDBRANCH   7   8
ENDBRANCH   5   7
ENDBRANCH   3   5
BRANCH   1  15
ATOM     15  C   UNL     1       3.035   3.596  19.436  0.00  0.00    +0.000 C 
BRANCH  15  16
ATOM     16  S   UNL     1       3.389   2.651  17.969  0.00  0.00    +0.000 S 
ATOM     17  O   UNL     1       2.400   3.008  16.972  0.00  0.00    +0.000 OA
ATOM     18  O   UNL     1       3.594   1.271  18.352  0.00  0.00    +0.000 OA
BRANCH  16  20
ATOM     19  C   UNL     1       4.934   3.845  16.108  0.00  0.00    +0.000 C 
ATOM     20  N   UNL     1       4.877   3.264  17.451  0.00  0.00    +0.000 NA
ATOM     21  H   UNL     1       5.253   3.884  18.186  0.00  0.00    +0.000 HD
ENDBRANCH  16  20
ENDBRANCH  15  16
ENDBRANCH   1  15
TORSDOF 6
ENDMDL
MODEL 9
REMARK VINA RESULT:      -6.0      1.706      1.917
REMARK  Name = 
REMARK  8 active torsions:
REMARK  status: ('A' for Active; 'I' for Inactive)
REMARK    1  A    between atoms: C_1  and  N_2
REMARK    2  A    between atoms: N_2  and  S_3
REMARK    3  A    between atoms: S_3  and  C_6
REMARK    4  A    between atoms: C_6  and  C_7
REMARK    5  A    between atoms: N_9  and  C_10
REMARK    6  A    between atoms: C_10  and  C_11
REMARK    7  A    between atoms: C_10  and  C_12
REMARK    8  A    between atoms: C_12  and  C_13
REMARK                            x       y       z     vdW  Elec       q    Type
REMARK                         _______ _______ _______ _____ _____    ______ ____
ROOT
ATOM      1  C   UNL     1       4.781   3.910  16.451  0.00  0.00    +0.000 C 
ATOM      2  O   UNL     1       3.685   4.221  15.996  0.00  0.00    +0.000 OA
ATOM      3  N   UNL     1       4.964   3.662  17.803  0.00  0.00    +0.000 N 
ATOM      4  H   UNL     1       5.909   3.611  18.166  0.00  0.00    +0.000 HD
ENDROOT
BRANCH   3   5
ATOM      5  C   UNL     1       3.881   3.954  18.738  0.00  0.00    +0.000 C 
ATOM      6  C   UNL     1       3.590   2.744  19.638  0.00  0.00    +0.000 C 
BRANCH   5   7
ATOM      7  C   UNL     1       4.192   5.179  19.618  0.00  0.00    +0.000 C 
BRANCH   7   8
ATOM      8  C   UNL     1       3.349   6.404  19.333  0.00  0.00    +0.000 A 
ATOM      9  C   UNL     1       3.370   7.015  18.070  0.00  0.00    +0.000 A 
ATOM     10  C   UNL     1       2.520   8.087  17.784  0.00  0.00    +0.000 A 
ATOM     11  C   UNL     1       1.640   8.550  18.759  0.00  0.00    +0.000 A 
ATOM     12 BR   UNL     1       0.446   9.957  18.354  0.00  0.00    +0.000 Br
ATOM     13  C   UNL     1       1.618   7.966  20.023  0.00  0.00    +0.000 A 
ATOM     14  C   UNL     1       2.470   6.896  20.308  0.00  0.00    +0.000 A 
ENDBRANCH   7   8
ENDBRANCH   5   7
ENDBRANCH   3   5
BRANCH   1  15
ATOM     15  C   UNL     1       5.988   3.667  15.602  0.00  0.00    +0.000 C 
BRANCH  15  16
ATOM     16  S   UNL     1       7.229   4.893  15.962  0.00  0.00    +0.000 S 
ATOM     17  O   UNL     1       7.820   5.296  14.702  0.00  0.00    +0.000 OA
ATOM     18  O   UNL     1       8.052   4.407  17.046  0.00  0.00    +0.000 OA
BRANCH  16  20
ATOM     19  C   UNL     1       7.029   7.158  17.414  0.00  0.00    +0.000 C 
ATOM     20  N   UNL     1       6.335   6.204  16.547  0.00  0.00    +0.000 NA
ATOM     21  H   UNL     1       5.842   6.647  15.755  0.00  0.00    +0.000 HD
ENDBRANCH  16  20
ENDBRANCH  15  16
ENDBRANCH   1  15
TORSDOF 6
ENDMDL
