MODEL 1
REMARK VINA RESULT:      -7.6      0.000      0.000
REMARK  Name = 
REMARK  10 active torsions:
REMARK  status: ('A' for Active; 'I' for Inactive)
REMARK    1  A    between atoms: C_1  and  C_2
REMARK    2  A    between atoms: C_2  and  C_4
REMARK    3  A    between atoms: C_8  and  N_9
REMARK    4  A    between atoms: N_9  and  C_21
REMARK    5  A    between atoms: C_10  and  C_12
REMARK    6  A    between atoms: C_12  and  N_13
REMARK    7  A    between atoms: C_14  and  C_16
REMARK    8  A    between atoms: C_21  and  C_22
REMARK    9  A    between atoms: C_21  and  C_30
REMARK   10  A    between atoms: N_24  and  C_25
REMARK                            x       y       z     vdW  Elec       q    Type
REMARK                         _______ _______ _______ _____ _____    ______ ____
ROOT
ATOM      1  N   UNL     1       0.057  10.766  20.395  0.00  0.00    +0.000 N 
ATOM      2  C   UNL     1       0.235   9.443  20.803  0.00  0.00    +0.000 C 
ATOM      3  O   UNL     1      -0.641   8.838  21.435  0.00  0.00    +0.000 OA
ENDROOT
BRANCH   1   8
ATOM      4  C   UNL     1       2.461  13.583  20.264  0.00  0.00    +0.000 A 
ATOM      5  C   UNL     1       2.874  13.519  18.931  0.00  0.00    +0.000 A 
ATOM      6  C   UNL     1       2.419  12.484  18.107  0.00  0.00    +0.000 A 
ATOM      7  C   UNL     1       1.520  11.534  18.595  0.00  0.00    +0.000 A 
ATOM      8  C   UNL     1       1.105  11.590  19.924  0.00  0.00    +0.000 A 
ATOM      9  C   UNL     1       1.617  12.580  20.769  0.00  0.00    +0.000 A 
BRANCH   4  11
ATOM     10  C   UNL     1       2.989  16.104  20.553  0.00  0.00    +0.000 C 
ATOM     11  C   UNL     1       2.792  14.737  21.153  0.00  0.00    +0.000 C 
ATOM     12  O   UNL     1       2.876  14.555  22.367  0.00  0.00    +0.000 OA
ENDBRANCH   4  11
ENDBRANCH   1   8
BRANCH   2  13
ATOM     13  C   UNL     1       1.561   8.735  20.524  0.00  0.00    +0.000 C 
BRANCH  13  14
ATOM     14  N   UNL     1       1.518   7.341  20.907  0.00  0.00    +0.000 N 
ATOM     15  C   UNL     1       2.073   6.376  20.095  0.00  0.00    +0.000 C 
ATOM     16  O   UNL     1       2.717   6.659  19.089  0.00  0.00    +0.000 OA
ATOM     17  H   UNL     1       0.854   7.037  21.611  0.00  0.00    +0.000 HD
BRANCH  15  18
ATOM     18  C   UNL     1       1.842   5.013  20.528  0.00  0.00    +0.000 A 
ATOM     19  C   UNL     1       0.976   4.051  20.041  0.00  0.00    +0.000 A 
ATOM     20  C   UNL     1       1.180   2.887  20.817  0.00  0.00    +0.000 A 
ATOM     21  C   UNL     1       2.148   3.208  21.740  0.00  0.00    +0.000 A 
ATOM     22  O   UNL     1       2.558   4.494  21.577  0.00  0.00    +0.000 OA
ENDBRANCH  15  18
ENDBRANCH  13  14
ENDBRANCH   2  13
BRANCH   1  23
ATOM     23  C   UNL     1      -1.331  11.301  20.348  0.00  0.00    +0.000 C 
BRANCH  23  24
ATOM     24  C   UNL     1      -1.967  11.037  18.976  0.00  0.00    +0.000 A 
ATOM     25  C   UNL     1      -3.153  11.699  18.617  0.00  0.00    +0.000 A 
ATOM     26  C   UNL     1      -3.722  11.447  17.379  0.00  0.00    +0.000 A 
ATOM     27  N   UNL     1      -3.191  10.607  16.467  0.00  0.00    +0.000 NA
ATOM     28  C   UNL     1      -2.046   9.985  16.818  0.00  0.00    +0.000 A 
ATOM     29  C   UNL     1      -1.415  10.156  18.041  0.00  0.00    +0.000 A 
ENDBRANCH  23  24
BRANCH  23  30
ATOM     30  C   UNL     1      -1.631  12.759  20.866  0.00  0.00    +0.000 C 
ATOM     31  O   UNL     1      -1.556  13.761  20.155  0.00  0.00    +0.000 OA
ATOM     32  N   UNL     1      -2.123  12.849  22.157  0.00  0.00    +0.000 N 
ATOM     33  H   UNL     1      -2.050  12.056  22.782  0.00  0.00    +0.000 HD
BRANCH  32  34
ATOM     34  C   UNL     1      -2.697  14.087  22.661  0.00  0.00    +0.000 C 
ATOM     35  C   UNL     1      -4.218  14.081  22.645  0.00  0.00    +0.000 C 
ATOM     36  C   UNL     1      -4.609  15.204  23.593  0.00  0.00    +0.000 C 
ATOM     37  C   UNL     1      -3.489  15.279  24.631  0.00  0.00    +0.000 C 
ATOM     38  C   UNL     1      -2.356  14.393  24.118  0.00  0.00    +0.000 C 
ENDBRANCH  32  34
ENDBRANCH  23  30
ENDBRANCH   1  23
TORSDOF 9
ENDMDL
MODEL 2
REMARK VINA RESULT:      -7.4      4.885     11.167
REMARK  Name = 
REMARK  10 active torsions:
REMARK  status: ('A' for Active; 'I' for Inactive)
REMARK    1  A    between atoms: C_1  and  C_2
REMARK    2  A    between atoms: C_2  and  C_4
REMARK    3  A    between atoms: C_8  and  N_9
REMARK    4  A    between atoms: N_9  and  C_21
REMARK    5  A    between atoms: C_10  and  C_12
REMARK    6  A    between atoms: C_12  and  N_13
REMARK    7  A    between atoms: C_14  and  C_16
REMARK    8  A    between atoms: C_21  and  C_22
REMARK    9  A    between atoms: C_21  and  C_30
REMARK   10  A    between atoms: N_24  and  C_25
REMARK                            x       y       z     vdW  Elec       q    Type
REMARK                         _______ _______ _______ _____ _____    ______ ____
ROOT
ATOM      1  N   UNL     1       3.684   5.966  17.773  0.00  0.00    +0.000 N 
ATOM      2  C   UNL     1       3.413   7.333  17.710  0.00  0.00    +0.000 C 
ATOM      3  O   UNL     1       4.295   8.156  17.430  0.00  0.00    +0.000 OA
ENDROOT
BRANCH   1   8
ATOM      4  C   UNL     1       2.465   3.297  20.037  0.00  0.00    +0.000 A 
ATOM      5  C   UNL     1       1.345   2.845  19.336  0.00  0.00    +0.000 A 
ATOM      6  C   UNL     1       0.948   3.489  18.159  0.00  0.00    +0.000 A 
ATOM      7  C   UNL     1       1.689   4.559  17.655  0.00  0.00    +0.000 A 
ATOM      8  C   UNL     1       2.807   5.018  18.349  0.00  0.00    +0.000 A 
ATOM      9  C   UNL     1       3.161   4.423  19.564  0.00  0.00    +0.000 A 
BRANCH   4  11
ATOM     10  C   UNL     1       4.324   1.822  21.077  0.00  0.00    +0.000 C 
ATOM     11  C   UNL     1       3.024   2.569  21.215  0.00  0.00    +0.000 C 
ATOM     12  O   UNL     1       2.423   2.611  22.288  0.00  0.00    +0.000 OA
ENDBRANCH   4  11
ENDBRANCH   1   8
BRANCH   2  13
ATOM     13  C   UNL     1       2.014   7.847  18.054  0.00  0.00    +0.000 C 
BRANCH  13  14
ATOM     14  N   UNL     1       1.957   9.291  18.060  0.00  0.00    +0.000 N 
ATOM     15  C   UNL     1       1.157   9.956  18.964  0.00  0.00    +0.000 C 
ATOM     16  O   UNL     1       0.557   9.370  19.860  0.00  0.00    +0.000 OA
ATOM     17  H   UNL     1       2.274   9.808  17.245  0.00  0.00    +0.000 HD
BRANCH  15  18
ATOM     18  C   UNL     1       1.089  11.390  18.774  0.00  0.00    +0.000 A 
ATOM     19  C   UNL     1       0.044  12.274  18.976  0.00  0.00    +0.000 A 
ATOM     20  C   UNL     1       0.533  13.563  18.661  0.00  0.00    +0.000 A 
ATOM     21  C   UNL     1       1.841  13.391  18.273  0.00  0.00    +0.000 A 
ATOM     22  O   UNL     1       2.191  12.079  18.336  0.00  0.00    +0.000 OA
ENDBRANCH  15  18
ENDBRANCH  13  14
ENDBRANCH   2  13
BRANCH   1  23
ATOM     23  C   UNL     1       4.912   5.466  17.097  0.00  0.00    +0.000 C 
BRANCH  23  24
ATOM     24  C   UNL     1       6.170   5.960  17.825  0.00  0.00    +0.000 A 
ATOM     25  C   UNL     1       6.591   5.321  19.003  0.00  0.00    +0.000 A 
ATOM     26  C   UNL     1       7.724   5.781  19.655  0.00  0.00    +0.000 A 
ATOM     27  N   UNL     1       8.478   6.808  19.214  0.00  0.00    +0.000 NA
ATOM     28  C   UNL     1       8.071   7.407  18.076  0.00  0.00    +0.000 A 
ATOM     29  C   UNL     1       6.940   7.033  17.366  0.00  0.00    +0.000 A 
ENDBRANCH  23  24
BRANCH  23  30
ATOM     30  C   UNL     1       5.052   5.584  15.532  0.00  0.00    +0.000 C 
ATOM     31  O   UNL     1       5.238   6.650  14.945  0.00  0.00    +0.000 OA
ATOM     32  N   UNL     1       5.089   4.385  14.839  0.00  0.00    +0.000 N 
ATOM     33  H   UNL     1       4.796   3.530  15.295  0.00  0.00    +0.000 HD
BRANCH  32  34
ATOM     34  C   UNL     1       5.488   4.334  13.441  0.00  0.00    +0.000 C 
ATOM     35  C   UNL     1       6.976   4.068  13.262  0.00  0.00    +0.000 C 
ATOM     36  C   UNL     1       7.104   3.605  11.820  0.00  0.00    +0.000 C 
ATOM     37  C   UNL     1       5.784   2.911  11.487  0.00  0.00    +0.000 C 
ATOM     38  C   UNL     1       4.826   3.216  12.637  0.00  0.00    +0.000 C 
ENDBRANCH  32  34
ENDBRANCH  23  30
ENDBRANCH   1  23
TORSDOF 9
ENDMDL
MODEL 3
REMARK VINA RESULT:      -7.4      4.863     11.166
REMARK  Name = 
REMARK  10 active torsions:
REMARK  status: ('A' for Active; 'I' for Inactive)
REMARK    1  A    between atoms: C_1  and  C_2
REMARK    2  A    between atoms: C_2  and  C_4
REMARK    3  A    between atoms: C_8  and  N_9
REMARK    4  A    between atoms: N_9  and  C_21
REMARK    5  A    between atoms: C_10  and  C_12
REMARK    6  A    between atoms: C_12  and  N_13
REMARK    7  A    between atoms: C_14  and  C_16
REMARK    8  A    between atoms: C_21  and  C_22
REMARK    9  A    between atoms: C_21  and  C_30
REMARK   10  A    between atoms: N_24  and  C_25
REMARK                            x       y       z     vdW  Elec       q    Type
REMARK                         _______ _______ _______ _____ _____    ______ ____
ROOT
ATOM      1  N   UNL     1       3.629   5.883  17.799  0.00  0.00    +0.000 N 
ATOM      2  C   UNL     1       3.317   7.242  17.738  0.00  0.00    +0.000 C 
ATOM      3  O   UNL     1       4.173   8.091  17.457  0.00  0.00    +0.000 OA
ENDROOT
BRANCH   1   8
ATOM      4  C   UNL     1       2.497   3.178  20.065  0.00  0.00    +0.000 A 
ATOM      5  C   UNL     1       1.391   2.691  19.365  0.00  0.00    +0.000 A 
ATOM      6  C   UNL     1       0.973   3.322  18.189  0.00  0.00    +0.000 A 
ATOM      7  C   UNL     1       1.680   4.415  17.683  0.00  0.00    +0.000 A 
ATOM      8  C   UNL     1       2.783   4.908  18.376  0.00  0.00    +0.000 A 
ATOM      9  C   UNL     1       3.157   4.324  19.591  0.00  0.00    +0.000 A 
BRANCH   4  11
ATOM     10  C   UNL     1       4.385   1.730  21.092  0.00  0.00    +0.000 C 
ATOM     11  C   UNL     1       3.080   2.468  21.242  0.00  0.00    +0.000 C 
ATOM     12  O   UNL     1       2.495   2.516  22.324  0.00  0.00    +0.000 OA
ENDBRANCH   4  11
ENDBRANCH   1   8
BRANCH   2  13
ATOM     13  C   UNL     1       1.904   7.712  18.085  0.00  0.00    +0.000 C 
BRANCH  13  14
ATOM     14  N   UNL     1       1.780   9.150  18.007  0.00  0.00    +0.000 N 
ATOM     15  C   UNL     1       1.323   9.872  19.087  0.00  0.00    +0.000 C 
ATOM     16  O   UNL     1       1.113   9.353  20.179  0.00  0.00    +0.000 OA
ATOM     17  H   UNL     1       1.759   9.602  17.098  0.00  0.00    +0.000 HD
BRANCH  15  18
ATOM     18  C   UNL     1       1.119  11.284  18.831  0.00  0.00    +0.000 A 
ATOM     19  C   UNL     1       2.030  12.322  18.753  0.00  0.00    +0.000 A 
ATOM     20  C   UNL     1       1.291  13.491  18.451  0.00  0.00    +0.000 A 
ATOM     21  C   UNL     1      -0.026  13.101  18.375  0.00  0.00    +0.000 A 
ATOM     22  O   UNL     1      -0.144  11.766  18.604  0.00  0.00    +0.000 OA
ENDBRANCH  15  18
ENDBRANCH  13  14
ENDBRANCH   2  13
BRANCH   1  23
ATOM     23  C   UNL     1       4.871   5.422  17.120  0.00  0.00    +0.000 C 
BRANCH  23  24
ATOM     24  C   UNL     1       6.114   5.898  17.884  0.00  0.00    +0.000 A 
ATOM     25  C   UNL     1       6.863   6.980  17.393  0.00  0.00    +0.000 A 
ATOM     26  C   UNL     1       7.988   7.396  18.088  0.00  0.00    +0.000 A 
ATOM     27  N   UNL     1       8.409   6.834  19.239  0.00  0.00    +0.000 NA
ATOM     28  C   UNL     1       7.676   5.802  19.707  0.00  0.00    +0.000 A 
ATOM     29  C   UNL     1       6.549   5.302  19.072  0.00  0.00    +0.000 A 
ENDBRANCH  23  24
BRANCH  23  30
ATOM     30  C   UNL     1       5.030   5.603  15.563  0.00  0.00    +0.000 C 
ATOM     31  O   UNL     1       5.030   6.699  15.003  0.00  0.00    +0.000 OA
ATOM     32  N   UNL     1       5.310   4.449  14.849  0.00  0.00    +0.000 N 
ATOM     33  H   UNL     1       5.169   3.543  15.278  0.00  0.00    +0.000 HD
BRANCH  32  34
ATOM     34  C   UNL     1       5.750   4.508  13.464  0.00  0.00    +0.000 C 
ATOM     35  C   UNL     1       7.224   4.861  13.328  0.00  0.00    +0.000 C 
ATOM     36  C   UNL     1       7.585   4.432  11.915  0.00  0.00    +0.000 C 
ATOM     37  C   UNL     1       6.672   3.250  11.593  0.00  0.00    +0.000 C 
ATOM     38  C   UNL     1       5.628   3.187  12.707  0.00  0.00    +0.000 C 
ENDBRANCH  32  34
ENDBRANCH  23  30
ENDBRANCH   1  23
TORSDOF 9
ENDMDL
MODEL 4
REMARK VINA RESULT:      -7.2      2.293      6.345
REMARK  Name = 
REMARK  10 active torsions:
REMARK  status: ('A' for Active; 'I' for Inactive)
REMARK    1  A    between atoms: C_1  and  C_2
REMARK    2  A    between atoms: C_2  and  C_4
REMARK    3  A    between atoms: C_8  and  N_9
REMARK    4  A    between atoms: N_9  and  C_21
REMARK    5  A    between atoms: C_10  and  C_12
REMARK    6  A    between atoms: C_12  and  N_13
REMARK    7  A    between atoms: C_14  and  C_16
REMARK    8  A    between atoms: C_21  and  C_22
REMARK    9  A    between atoms: C_21  and  C_30
REMARK   10  A    between atoms: N_24  and  C_25
REMARK                            x       y       z     vdW  Elec       q    Type
REMARK                         _______ _______ _______ _____ _____    ______ ____
ROOT
ATOM      1  N   UNL     1      -0.605  11.444  19.423  0.00  0.00    +0.000 N 
ATOM      2  C   UNL     1       0.032  12.532  18.824  0.00  0.00    +0.000 C 
ATOM      3  O   UNL     1      -0.557  13.262  18.015  0.00  0.00    +0.000 OA
ENDROOT
BRANCH   1   8
ATOM      4  C   UNL     1       1.497   8.450  20.016  0.00  0.00    +0.000 A 
ATOM      5  C   UNL     1       1.150   8.138  21.332  0.00  0.00    +0.000 A 
ATOM      6  C   UNL     1       0.288   8.976  22.046  0.00  0.00    +0.000 A 
ATOM      7  C   UNL     1      -0.264  10.106  21.439  0.00  0.00    +0.000 A 
ATOM      8  C   UNL     1       0.077  10.425  20.127  0.00  0.00    +0.000 A 
ATOM      9  C   UNL     1       0.998   9.628  19.436  0.00  0.00    +0.000 A 
BRANCH   4  11
ATOM     10  C   UNL     1       2.739   7.983  17.790  0.00  0.00    +0.000 C 
ATOM     11  C   UNL     1       2.292   7.526  19.154  0.00  0.00    +0.000 C 
ATOM     12  O   UNL     1       2.590   6.411  19.582  0.00  0.00    +0.000 OA
ENDBRANCH   4  11
ENDBRANCH   1   8
BRANCH   2  13
ATOM     13  C   UNL     1       1.508  12.802  19.116  0.00  0.00    +0.000 C 
BRANCH  13  14
ATOM     14  N   UNL     1       1.699  14.059  19.804  0.00  0.00    +0.000 N 
ATOM     15  C   UNL     1       1.260  14.221  21.100  0.00  0.00    +0.000 C 
ATOM     16  O   UNL     1       0.799  13.291  21.755  0.00  0.00    +0.000 OA
ATOM     17  H   UNL     1       1.897  14.898  19.268  0.00  0.00    +0.000 HD
BRANCH  15  18
ATOM     18  C   UNL     1       1.392  15.566  21.622  0.00  0.00    +0.000 A 
ATOM     19  C   UNL     1       1.709  16.751  20.981  0.00  0.00    +0.000 A 
ATOM     20  C   UNL     1       1.671  17.769  21.962  0.00  0.00    +0.000 A 
ATOM     21  C   UNL     1       1.347  17.147  23.145  0.00  0.00    +0.000 A 
ATOM     22  O   UNL     1       1.175  15.812  22.954  0.00  0.00    +0.000 OA
ENDBRANCH  15  18
ENDBRANCH  13  14
ENDBRANCH   2  13
BRANCH   1  23
ATOM     23  C   UNL     1      -2.093  11.416  19.415  0.00  0.00    +0.000 C 
BRANCH  23  24
ATOM     24  C   UNL     1      -2.620  11.045  18.022  0.00  0.00    +0.000 A 
ATOM     25  C   UNL     1      -3.785  11.658  17.531  0.00  0.00    +0.000 A 
ATOM     26  C   UNL     1      -4.255  11.309  16.274  0.00  0.00    +0.000 A 
ATOM     27  N   UNL     1      -3.645  10.419  15.466  0.00  0.00    +0.000 NA
ATOM     28  C   UNL     1      -2.521   9.846  15.943  0.00  0.00    +0.000 A 
ATOM     29  C   UNL     1      -1.986  10.113  17.195  0.00  0.00    +0.000 A 
ENDBRANCH  23  24
BRANCH  23  30
ATOM     30  C   UNL     1      -2.906  12.603  20.056  0.00  0.00    +0.000 C 
ATOM     31  O   UNL     1      -4.053  12.487  20.488  0.00  0.00    +0.000 OA
ATOM     32  N   UNL     1      -2.205  13.784  20.236  0.00  0.00    +0.000 N 
ATOM     33  H   UNL     1      -1.324  13.925  19.758  0.00  0.00    +0.000 HD
BRANCH  32  34
ATOM     34  C   UNL     1      -2.738  14.861  21.057  0.00  0.00    +0.000 C 
ATOM     35  C   UNL     1      -2.303  14.763  22.512  0.00  0.00    +0.000 C 
ATOM     36  C   UNL     1      -2.555  16.152  23.074  0.00  0.00    +0.000 C 
ATOM     37  C   UNL     1      -2.369  17.115  21.901  0.00  0.00    +0.000 C 
ATOM     38  C   UNL     1      -2.279  16.257  20.640  0.00  0.00    +0.000 C 
ENDBRANCH  32  34
ENDBRANCH  23  30
ENDBRANCH   1  23
TORSDOF 9
ENDMDL
MODEL 5
REMARK VINA RESULT:      -7.2      4.957     11.200
REMARK  Name = 
REMARK  10 active torsions:
REMARK  status: ('A' for Active; 'I' for Inactive)
REMARK    1  A    between atoms: C_1  and  C_2
REMARK    2  A    between atoms: C_2  and  C_4
REMARK    3  A    between atoms: C_8  and  N_9
REMARK    4  A    between atoms: N_9  and  C_21
REMARK    5  A    between atoms: C_10  and  C_12
REMARK    6  A    between atoms: C_12  and  N_13
REMARK    7  A    between atoms: C_14  and  C_16
REMARK    8  A    between atoms: C_21  and  C_22
REMARK    9  A    between atoms: C_21  and  C_30
REMARK   10  A    between atoms: N_24  and  C_25
REMARK                            x       y       z     vdW  Elec       q    Type
REMARK                         _______ _______ _______ _____ _____    ______ ____
ROOT
ATOM      1  N   UNL     1       3.824   5.491  17.794  0.00  0.00    +0.000 N 
ATOM      2  C   UNL     1       3.438   6.824  17.942  0.00  0.00    +0.000 C 
ATOM      3  O   UNL     1       4.251   7.750  17.820  0.00  0.00    +0.000 OA
ENDROOT
BRANCH   1   8
ATOM      4  C   UNL     1       2.320   2.905  19.982  0.00  0.00    +0.000 A 
ATOM      5  C   UNL     1       1.813   2.016  19.032  0.00  0.00    +0.000 A 
ATOM      6  C   UNL     1       1.893   2.324  17.671  0.00  0.00    +0.000 A 
ATOM      7  C   UNL     1       2.516   3.501  17.248  0.00  0.00    +0.000 A 
ATOM      8  C   UNL     1       3.024   4.394  18.188  0.00  0.00    +0.000 A 
ATOM      9  C   UNL     1       2.877   4.122  19.553  0.00  0.00    +0.000 A 
BRANCH   4  11
ATOM     10  C   UNL     1       1.145   2.613  22.273  0.00  0.00    +0.000 C 
ATOM     11  C   UNL     1       2.396   2.572  21.436  0.00  0.00    +0.000 C 
ATOM     12  O   UNL     1       3.479   2.247  21.922  0.00  0.00    +0.000 OA
ENDBRANCH   4  11
ENDBRANCH   1   8
BRANCH   2  13
ATOM     13  C   UNL     1       1.996   7.159  18.326  0.00  0.00    +0.000 C 
BRANCH  13  14
ATOM     14  N   UNL     1       1.899   8.441  18.986  0.00  0.00    +0.000 N 
ATOM     15  C   UNL     1       1.151   9.457  18.433  0.00  0.00    +0.000 C 
ATOM     16  O   UNL     1       0.455   9.289  17.437  0.00  0.00    +0.000 OA
ATOM     17  H   UNL     1       2.583   8.693  19.692  0.00  0.00    +0.000 HD
BRANCH  15  18
ATOM     18  C   UNL     1       1.248  10.727  19.124  0.00  0.00    +0.000 A 
ATOM     19  C   UNL     1       1.719  11.953  18.688  0.00  0.00    +0.000 A 
ATOM     20  C   UNL     1       1.556  12.858  19.763  0.00  0.00    +0.000 A 
ATOM     21  C   UNL     1       1.009  12.132  20.795  0.00  0.00    +0.000 A 
ATOM     22  O   UNL     1       0.817  10.838  20.422  0.00  0.00    +0.000 OA
ENDBRANCH  15  18
ENDBRANCH  13  14
ENDBRANCH   2  13
BRANCH   1  23
ATOM     23  C   UNL     1       5.099   5.209  17.080  0.00  0.00    +0.000 C 
BRANCH  23  24
ATOM     24  C   UNL     1       6.288   5.824  17.831  0.00  0.00    +0.000 A 
ATOM     25  C   UNL     1       6.700   5.273  19.056  0.00  0.00    +0.000 A 
ATOM     26  C   UNL     1       7.771   5.842  19.728  0.00  0.00    +0.000 A 
ATOM     27  N   UNL     1       8.471   6.897  19.266  0.00  0.00    +0.000 NA
ATOM     28  C   UNL     1       8.073   7.411  18.084  0.00  0.00    +0.000 A 
ATOM     29  C   UNL     1       7.002   6.925  17.349  0.00  0.00    +0.000 A 
ENDBRANCH  23  24
BRANCH  23  30
ATOM     30  C   UNL     1       5.199   5.444  15.525  0.00  0.00    +0.000 C 
ATOM     31  O   UNL     1       5.166   6.558  15.003  0.00  0.00    +0.000 OA
ATOM     32  N   UNL     1       5.465   4.318  14.763  0.00  0.00    +0.000 N 
ATOM     33  H   UNL     1       5.350   3.397  15.166  0.00  0.00    +0.000 HD
BRANCH  32  34
ATOM     34  C   UNL     1       5.853   4.428  13.365  0.00  0.00    +0.000 C 
ATOM     35  C   UNL     1       7.299   4.871  13.188  0.00  0.00    +0.000 C 
ATOM     36  C   UNL     1       7.636   4.491  11.756  0.00  0.00    +0.000 C 
ATOM     37  C   UNL     1       6.783   3.262  11.440  0.00  0.00    +0.000 C 
ATOM     38  C   UNL     1       5.783   3.116  12.586  0.00  0.00    +0.000 C 
ENDBRANCH  32  34
ENDBRANCH  23  30
ENDBRANCH   1  23
TORSDOF 9
ENDMDL
MODEL 6
REMARK VINA RESULT:      -7.1      1.640      2.113
REMARK  Name = 
REMARK  10 active torsions:
REMARK  status: ('A' for Active; 'I' for Inactive)
REMARK    1  A    between atoms: C_1  and  C_2
REMARK    2  A    between atoms: C_2  and  C_4
REMARK    3  A    between atoms: C_8  and  N_9
REMARK    4  A    between atoms: N_9  and  C_21
REMARK    5  A    between atoms: C_10  and  C_12
REMARK    6  A    between atoms: C_12  and  N_13
REMARK    7  A    between atoms: C_14  and  C_16
REMARK    8  A    between atoms: C_21  and  C_22
REMARK    9  A    between atoms: C_21  and  C_30
REMARK   10  A    between atoms: N_24  and  C_25
REMARK                            x       y       z     vdW  Elec       q    Type
REMARK                         _______ _______ _______ _____ _____    ______ ____
ROOT
ATOM      1  N   UNL     1       0.168  10.907  20.320  0.00  0.00    +0.000 N 
ATOM      2  C   UNL     1       0.321   9.561  20.656  0.00  0.00    +0.000 C 
ATOM      3  O   UNL     1      -0.563   8.941  21.262  0.00  0.00    +0.000 OA
ENDROOT
BRANCH   1   8
ATOM      4  C   UNL     1       2.661  13.649  20.343  0.00  0.00    +0.000 A 
ATOM      5  C   UNL     1       3.036  13.678  18.998  0.00  0.00    +0.000 A 
ATOM      6  C   UNL     1       2.526  12.727  18.108  0.00  0.00    +0.000 A 
ATOM      7  C   UNL     1       1.609  11.770  18.546  0.00  0.00    +0.000 A 
ATOM      8  C   UNL     1       1.230  11.733  19.886  0.00  0.00    +0.000 A 
ATOM      9  C   UNL     1       1.797  12.636  20.792  0.00  0.00    +0.000 A 
BRANCH   4  11
ATOM     10  C   UNL     1       1.983  15.511  22.013  0.00  0.00    +0.000 C 
ATOM     11  C   UNL     1       3.053  14.717  21.310  0.00  0.00    +0.000 C 
ATOM     12  O   UNL     1       4.247  14.916  21.535  0.00  0.00    +0.000 OA
ENDBRANCH   4  11
ENDBRANCH   1   8
BRANCH   2  13
ATOM     13  C   UNL     1       1.630   8.841  20.330  0.00  0.00    +0.000 C 
BRANCH  13  14
ATOM     14  N   UNL     1       1.571   7.437  20.672  0.00  0.00    +0.000 N 
ATOM     15  C   UNL     1       2.153   6.494  19.853  0.00  0.00    +0.000 C 
ATOM     16  O   UNL     1       2.831   6.804  18.878  0.00  0.00    +0.000 OA
ATOM     17  H   UNL     1       0.883   7.114  21.345  0.00  0.00    +0.000 HD
BRANCH  15  18
ATOM     18  C   UNL     1       1.905   5.120  20.239  0.00  0.00    +0.000 A 
ATOM     19  C   UNL     1       2.288   4.423  21.371  0.00  0.00    +0.000 A 
ATOM     20  C   UNL     1       1.751   3.120  21.249  0.00  0.00    +0.000 A 
ATOM     21  C   UNL     1       1.084   3.093  20.046  0.00  0.00    +0.000 A 
ATOM     22  O   UNL     1       1.170   4.298  19.423  0.00  0.00    +0.000 OA
ENDBRANCH  15  18
ENDBRANCH  13  14
ENDBRANCH   2  13
BRANCH   1  23
ATOM     23  C   UNL     1      -1.208  11.473  20.313  0.00  0.00    +0.000 C 
BRANCH  23  24
ATOM     24  C   UNL     1      -1.925  11.136  18.997  0.00  0.00    +0.000 A 
ATOM     25  C   UNL     1      -3.194  11.677  18.735  0.00  0.00    +0.000 A 
ATOM     26  C   UNL     1      -3.834  11.359  17.547  0.00  0.00    +0.000 A 
ATOM     27  N   UNL     1      -3.299  10.567  16.596  0.00  0.00    +0.000 NA
ATOM     28  C   UNL     1      -2.075  10.062  16.853  0.00  0.00    +0.000 A 
ATOM     29  C   UNL     1      -1.366  10.304  18.021  0.00  0.00    +0.000 A 
ENDBRANCH  23  24
BRANCH  23  30
ATOM     30  C   UNL     1      -1.448  12.968  20.747  0.00  0.00    +0.000 C 
ATOM     31  O   UNL     1      -1.655  13.313  21.911  0.00  0.00    +0.000 OA
ATOM     32  N   UNL     1      -1.279  13.918  19.753  0.00  0.00    +0.000 N 
ATOM     33  H   UNL     1      -1.253  13.632  18.782  0.00  0.00    +0.000 HD
BRANCH  32  34
ATOM     34  C   UNL     1      -1.197  15.335  20.070  0.00  0.00    +0.000 C 
ATOM     35  C   UNL     1      -0.473  16.137  18.998  0.00  0.00    +0.000 C 
ATOM     36  C   UNL     1      -0.882  17.577  19.265  0.00  0.00    +0.000 C 
ATOM     37  C   UNL     1      -2.284  17.505  19.870  0.00  0.00    +0.000 C 
ATOM     38  C   UNL     1      -2.550  16.034  20.187  0.00  0.00    +0.000 C 
ENDBRANCH  32  34
ENDBRANCH  23  30
ENDBRANCH   1  23
TORSDOF 9
ENDMDL
MODEL 7
REMARK VINA RESULT:      -7.0      2.484      5.049
REMARK  Name = 
REMARK  10 active torsions:
REMARK  status: ('A' for Active; 'I' for Inactive)
REMARK    1  A    between atoms: C_1  and  C_2
REMARK    2  A    between atoms: C_2  and  C_4
REMARK    3  A    between atoms: C_8  and  N_9
REMARK    4  A    between atoms: N_9  and  C_21
REMARK    5  A    between atoms: C_10  and  C_12
REMARK    6  A    between atoms: C_12  and  N_13
REMARK    7  A    between atoms: C_14  and  C_16
REMARK    8  A    between atoms: C_21  and  C_22
REMARK    9  A    between atoms: C_21  and  C_30
REMARK   10  A    between atoms: N_24  and  C_25
REMARK                            x       y       z     vdW  Elec       q    Type
REMARK                         _______ _______ _______ _____ _____    ______ ____
ROOT
ATOM      1  N   UNL     1       0.817  10.207  19.323  0.00  0.00    +0.000 N 
ATOM      2  C   UNL     1       1.545   9.252  18.612  0.00  0.00    +0.000 C 
ATOM      3  O   UNL     1       1.707   9.341  17.388  0.00  0.00    +0.000 OA
ENDROOT
BRANCH   1   8
ATOM      4  C   UNL     1      -0.965  10.873  22.504  0.00  0.00    +0.000 A 
ATOM      5  C   UNL     1      -0.294  10.007  23.370  0.00  0.00    +0.000 A 
ATOM      6  C   UNL     1       0.686   9.141  22.875  0.00  0.00    +0.000 A 
ATOM      7  C   UNL     1       1.031   9.163  21.521  0.00  0.00    +0.000 A 
ATOM      8  C   UNL     1       0.366  10.023  20.650  0.00  0.00    +0.000 A 
ATOM      9  C   UNL     1      -0.666  10.836  21.131  0.00  0.00    +0.000 A 
BRANCH   4  11
ATOM     10  C   UNL     1      -1.573  13.374  22.800  0.00  0.00    +0.000 C 
ATOM     11  C   UNL     1      -1.914  11.919  22.988  0.00  0.00    +0.000 C 
ATOM     12  O   UNL     1      -2.972  11.574  23.513  0.00  0.00    +0.000 OA
ENDBRANCH   4  11
ENDBRANCH   1   8
BRANCH   2  13
ATOM     13  C   UNL     1       2.107   8.030  19.339  0.00  0.00    +0.000 C 
BRANCH  13  14
ATOM     14  N   UNL     1       2.872   7.181  18.454  0.00  0.00    +0.000 N 
ATOM     15  C   UNL     1       3.259   5.921  18.855  0.00  0.00    +0.000 C 
ATOM     16  O   UNL     1       2.883   5.427  19.914  0.00  0.00    +0.000 OA
ATOM     17  H   UNL     1       3.360   7.593  17.665  0.00  0.00    +0.000 HD
BRANCH  15  18
ATOM     18  C   UNL     1       4.134   5.232  17.928  0.00  0.00    +0.000 A 
ATOM     19  C   UNL     1       3.889   4.155  17.094  0.00  0.00    +0.000 A 
ATOM     20  C   UNL     1       5.087   3.908  16.384  0.00  0.00    +0.000 A 
ATOM     21  C   UNL     1       5.996   4.837  16.833  0.00  0.00    +0.000 A 
ATOM     22  O   UNL     1       5.432   5.646  17.770  0.00  0.00    +0.000 OA
ENDBRANCH  15  18
ENDBRANCH  13  14
ENDBRANCH   2  13
BRANCH   1  23
ATOM     23  C   UNL     1       0.602  11.536  18.687  0.00  0.00    +0.000 C 
BRANCH  23  24
ATOM     24  C   UNL     1       1.685  12.530  19.130  0.00  0.00    +0.000 A 
ATOM     25  C   UNL     1       2.477  13.175  18.166  0.00  0.00    +0.000 A 
ATOM     26  C   UNL     1       3.457  14.065  18.579  0.00  0.00    +0.000 A 
ATOM     27  N   UNL     1       3.691  14.376  19.870  0.00  0.00    +0.000 NA
ATOM     28  C   UNL     1       2.917  13.759  20.787  0.00  0.00    +0.000 A 
ATOM     29  C   UNL     1       1.928  12.838  20.473  0.00  0.00    +0.000 A 
ENDBRANCH  23  24
BRANCH  23  30
ATOM     30  C   UNL     1      -0.832  12.188  18.691  0.00  0.00    +0.000 C 
ATOM     31  O   UNL     1      -1.035  13.383  18.900  0.00  0.00    +0.000 OA
ATOM     32  N   UNL     1      -1.871  11.355  18.308  0.00  0.00    +0.000 N 
ATOM     33  H   UNL     1      -1.730  10.353  18.277  0.00  0.00    +0.000 HD
BRANCH  32  34
ATOM     34  C   UNL     1      -3.190  11.888  18.003  0.00  0.00    +0.000 C 
ATOM     35  C   UNL     1      -3.972  11.008  17.038  0.00  0.00    +0.000 C 
ATOM     36  C   UNL     1      -5.414  11.457  17.203  0.00  0.00    +0.000 C 
ATOM     37  C   UNL     1      -5.537  11.935  18.650  0.00  0.00    +0.000 C 
ATOM     38  C   UNL     1      -4.118  12.005  19.211  0.00  0.00    +0.000 C 
ENDBRANCH  32  34
ENDBRANCH  23  30
ENDBRANCH   1  23
TORSDOF 9
ENDMDL
MODEL 8
REMARK VINA RESULT:      -7.0      2.610      7.798
REMARK  Name = 
REMARK  10 active torsions:
REMARK  status: ('A' for Active; 'I' for Inactive)
REMARK    1  A    between atoms: C_1  and  C_2
REMARK    2  A    between atoms: C_2  and  C_4
REMARK    3  A    between atoms: C_8  and  N_9
REMARK    4  A    between atoms: N_9  and  C_21
REMARK    5  A    between atoms: C_10  and  C_12
REMARK    6  A    between atoms: C_12  and  N_13
REMARK    7  A    between atoms: C_14  and  C_16
REMARK    8  A    between atoms: C_21  and  C_22
REMARK    9  A    between atoms: C_21  and  C_30
REMARK   10  A    between atoms: N_24  and  C_25
REMARK                            x       y       z     vdW  Elec       q    Type
REMARK                         _______ _______ _______ _____ _____    ______ ____
ROOT
ATOM      1  N   UNL     1       0.122  10.582  18.751  0.00  0.00    +0.000 N 
ATOM      2  C   UNL     1      -1.010  10.590  17.934  0.00  0.00    +0.000 C 
ATOM      3  O   UNL     1      -1.442   9.552  17.418  0.00  0.00    +0.000 OA
ENDROOT
BRANCH   1   8
ATOM      4  C   UNL     1       0.814  13.810  20.436  0.00  0.00    +0.000 A 
ATOM      5  C   UNL     1       1.896  14.275  19.685  0.00  0.00    +0.000 A 
ATOM      6  C   UNL     1       2.447  13.474  18.680  0.00  0.00    +0.000 A 
ATOM      7  C   UNL     1       1.897  12.223  18.392  0.00  0.00    +0.000 A 
ATOM      8  C   UNL     1       0.820  11.750  19.137  0.00  0.00    +0.000 A 
ATOM      9  C   UNL     1       0.315  12.519  20.192  0.00  0.00    +0.000 A 
BRANCH   4  11
ATOM     10  C   UNL     1      -0.937  15.655  20.930  0.00  0.00    +0.000 C 
ATOM     11  C   UNL     1       0.090  14.668  21.420  0.00  0.00    +0.000 C 
ATOM     12  O   UNL     1       0.328  14.538  22.621  0.00  0.00    +0.000 OA
ENDBRANCH   4  11
ENDBRANCH   1   8
BRANCH   2  13
ATOM     13  C   UNL     1      -1.703  11.914  17.611  0.00  0.00    +0.000 C 
BRANCH  13  14
ATOM     14  N   UNL     1      -2.982  12.029  18.277  0.00  0.00    +0.000 N 
ATOM     15  C   UNL     1      -4.148  11.738  17.604  0.00  0.00    +0.000 C 
ATOM     16  O   UNL     1      -4.150  11.269  16.471  0.00  0.00    +0.000 OA
ATOM     17  H   UNL     1      -3.055  12.577  19.128  0.00  0.00    +0.000 HD
BRANCH  15  18
ATOM     18  C   UNL     1      -5.361  12.024  18.343  0.00  0.00    +0.000 A 
ATOM     19  C   UNL     1      -6.688  11.827  18.002  0.00  0.00    +0.000 A 
ATOM     20  C   UNL     1      -7.461  12.257  19.106  0.00  0.00    +0.000 A 
ATOM     21  C   UNL     1      -6.565  12.702  20.050  0.00  0.00    +0.000 A 
ATOM     22  O   UNL     1      -5.289  12.567  19.601  0.00  0.00    +0.000 OA
ENDBRANCH  15  18
ENDBRANCH  13  14
ENDBRANCH   2  13
BRANCH   1  23
ATOM     23  C   UNL     1       0.551   9.283  19.336  0.00  0.00    +0.000 C 
BRANCH  23  24
ATOM     24  C   UNL     1       0.568   9.360  20.869  0.00  0.00    +0.000 A 
ATOM     25  C   UNL     1      -0.640   9.475  21.576  0.00  0.00    +0.000 A 
ATOM     26  C   UNL     1      -0.611   9.551  22.960  0.00  0.00    +0.000 A 
ATOM     27  N   UNL     1       0.522   9.498  23.690  0.00  0.00    +0.000 NA
ATOM     28  C   UNL     1       1.675   9.375  23.001  0.00  0.00    +0.000 A 
ATOM     29  C   UNL     1       1.749   9.314  21.617  0.00  0.00    +0.000 A 
ENDBRANCH  23  24
BRANCH  23  30
ATOM     30  C   UNL     1       1.822   8.545  18.769  0.00  0.00    +0.000 C 
ATOM     31  O   UNL     1       2.685   9.102  18.090  0.00  0.00    +0.000 OA
ATOM     32  N   UNL     1       1.996   7.237  19.190  0.00  0.00    +0.000 N 
ATOM     33  H   UNL     1       1.227   6.740  19.622  0.00  0.00    +0.000 HD
BRANCH  32  34
ATOM     34  C   UNL     1       3.251   6.535  18.971  0.00  0.00    +0.000 C 
ATOM     35  C   UNL     1       3.411   5.319  19.872  0.00  0.00    +0.000 C 
ATOM     36  C   UNL     1       4.500   4.496  19.204  0.00  0.00    +0.000 C 
ATOM     37  C   UNL     1       4.382   4.787  17.708  0.00  0.00    +0.000 C 
ATOM     38  C   UNL     1       3.417   5.962  17.565  0.00  0.00    +0.000 C 
ENDBRANCH  32  34
ENDBRANCH  23  30
ENDBRANCH   1  23
TORSDOF 9
ENDMDL
MODEL 9
REMARK VINA RESULT:      -7.0      3.540      6.956
REMARK  Name = 
REMARK  10 active torsions:
REMARK  status: ('A' for Active; 'I' for Inactive)
REMARK    1  A    between atoms: C_1  and  C_2
REMARK    2  A    between atoms: C_2  and  C_4
REMARK    3  A    between atoms: C_8  and  N_9
REMARK    4  A    between atoms: N_9  and  C_21
REMARK    5  A    between atoms: C_10  and  C_12
REMARK    6  A    between atoms: C_12  and  N_13
REMARK    7  A    between atoms: C_14  and  C_16
REMARK    8  A    between atoms: C_21  and  C_22
REMARK    9  A    between atoms: C_21  and  C_30
REMARK   10  A    between atoms: N_24  and  C_25
REMARK                            x       y       z     vdW  Elec       q    Type
REMARK                         _______ _______ _______ _____ _____    ______ ____
ROOT
ATOM      1  N   UNL     1      -0.031  12.948  19.393  0.00  0.00    +0.000 N 
ATOM      2  C   UNL     1      -0.508  11.932  18.563  0.00  0.00    +0.000 C 
ATOM      3  O   UNL     1       0.103  10.863  18.432  0.00  0.00    +0.000 OA
ENDROOT
BRANCH   1   8
ATOM      4  C   UNL     1      -0.178  16.579  18.668  0.00  0.00    +0.000 A 
ATOM      5  C   UNL     1      -1.152  16.993  19.579  0.00  0.00    +0.000 A 
ATOM      6  C   UNL     1      -1.820  16.049  20.366  0.00  0.00    +0.000 A 
ATOM      7  C   UNL     1      -1.491  14.695  20.278  0.00  0.00    +0.000 A 
ATOM      8  C   UNL     1      -0.521  14.274  19.372  0.00  0.00    +0.000 A 
ATOM      9  C   UNL     1       0.094  15.207  18.531  0.00  0.00    +0.000 A 
BRANCH   4  11
ATOM     10  C   UNL     1       0.070  18.315  16.760  0.00  0.00    +0.000 C 
ATOM     11  C   UNL     1       0.671  17.543  17.905  0.00  0.00    +0.000 C 
ATOM     12  O   UNL     1       1.843  17.707  18.241  0.00  0.00    +0.000 OA
ENDBRANCH   4  11
ENDBRANCH   1   8
BRANCH   2  13
ATOM     13  C   UNL     1      -1.778  12.157  17.742  0.00  0.00    +0.000 C 
BRANCH  13  14
ATOM     14  N   UNL     1      -2.971  11.885  18.511  0.00  0.00    +0.000 N 
ATOM     15  C   UNL     1      -4.165  11.614  17.878  0.00  0.00    +0.000 C 
ATOM     16  O   UNL     1      -4.244  11.481  16.661  0.00  0.00    +0.000 OA
ATOM     17  H   UNL     1      -3.010  12.159  19.488  0.00  0.00    +0.000 HD
BRANCH  15  18
ATOM     18  C   UNL     1      -5.307  11.495  18.762  0.00  0.00    +0.000 A 
ATOM     19  C   UNL     1      -6.506  10.826  18.593  0.00  0.00    +0.000 A 
ATOM     20  C   UNL     1      -7.249  11.016  19.782  0.00  0.00    +0.000 A 
ATOM     21  C   UNL     1      -6.468  11.797  20.601  0.00  0.00    +0.000 A 
ATOM     22  O   UNL     1      -5.288  12.095  19.995  0.00  0.00    +0.000 OA
ENDBRANCH  15  18
ENDBRANCH  13  14
ENDBRANCH   2  13
BRANCH   1  23
ATOM     23  C   UNL     1       0.970  12.586  20.433  0.00  0.00    +0.000 C 
BRANCH  23  24
ATOM     24  C   UNL     1       0.372  11.589  21.436  0.00  0.00    +0.000 A 
ATOM     25  C   UNL     1      -0.760  11.949  22.187  0.00  0.00    +0.000 A 
ATOM     26  C   UNL     1      -1.286  11.043  23.095  0.00  0.00    +0.000 A 
ATOM     27  N   UNL     1      -0.788   9.806  23.294  0.00  0.00    +0.000 NA
ATOM     28  C   UNL     1       0.292   9.468  22.560  0.00  0.00    +0.000 A 
ATOM     29  C   UNL     1       0.902  10.312  21.644  0.00  0.00    +0.000 A 
ENDBRANCH  23  24
BRANCH  23  30
ATOM     30  C   UNL     1       1.803  13.715  21.150  0.00  0.00    +0.000 C 
ATOM     31  O   UNL     1       1.421  14.304  22.160  0.00  0.00    +0.000 OA
ATOM     32  N   UNL     1       3.079  13.927  20.654  0.00  0.00    +0.000 N 
ATOM     33  H   UNL     1       3.337  13.553  19.749  0.00  0.00    +0.000 HD
BRANCH  32  34
ATOM     34  C   UNL     1       4.047  14.732  21.382  0.00  0.00    +0.000 C 
ATOM     35  C   UNL     1       5.002  13.892  22.218  0.00  0.00    +0.000 C 
ATOM     36  C   UNL     1       6.166  14.825  22.511  0.00  0.00    +0.000 C 
ATOM     37  C   UNL     1       6.246  15.776  21.318  0.00  0.00    +0.000 C 
ATOM     38  C   UNL     1       4.979  15.555  20.494  0.00  0.00    +0.000 C 
ENDBRANCH  32  34
ENDBRANCH  23  30
ENDBRANCH   1  23
TORSDOF 9
ENDMDL
