MODEL 1
REMARK VINA RESULT:      -8.4      0.000      0.000
REMARK  Name = 
REMARK  3 active torsions:
REMARK  status: ('A' for Active; 'I' for Inactive)
REMARK    1  A    between atoms: C_2  and  C_19
REMARK    2  A    between atoms: N_3  and  N_4
REMARK    3  A    between atoms: C_5  and  C_7
REMARK                            x       y       z     vdW  Elec       q    Type
REMARK                         _______ _______ _______ _____ _____    ______ ____
ROOT
ATOM      1  N   UNL     1       8.337   8.022  18.277  0.00  0.00    +0.000 N 
ATOM      2  C   UNL     1       7.505   7.165  17.583  0.00  0.00    +0.000 C 
ATOM      3  O   UNL     1       6.740   7.564  16.711  0.00  0.00    +0.000 OA
ATOM      4  H   UNL     1       9.179   7.694  18.758  0.00  0.00    +0.000 HD
ENDROOT
BRANCH   2   5
ATOM      5  C   UNL     1       7.630   5.705  18.021  0.00  0.00    +0.000 C 
ATOM      6  C   UNL     1       7.009   4.750  16.991  0.00  0.00    +0.000 C 
ATOM      7  C   UNL     1       5.484   4.843  16.979  0.00  0.00    +0.000 C 
ATOM      8  N   UNL     1       5.012   4.612  18.335  0.00  0.00    +0.000 N 
ATOM      9  C   UNL     1       3.943   3.779  18.543  0.00  0.00    +0.000 A 
ATOM     10  N   UNL     1       3.449   3.107  17.485  0.00  0.00    +0.000 NA
ATOM     11  C   UNL     1       2.446   2.234  17.688  0.00  0.00    +0.000 A 
ATOM     12  C   UNL     1       1.904   1.991  18.918  0.00  0.00    +0.000 A 
ATOM     13  C   UNL     1       2.456   2.714  19.944  0.00  0.00    +0.000 A 
ATOM     14  N   UNL     1       3.458   3.604  19.782  0.00  0.00    +0.000 NA
ATOM     15  C   UNL     1       5.466   5.531  19.361  0.00  0.00    +0.000 C 
ATOM     16  C   UNL     1       6.998   5.474  19.409  0.00  0.00    +0.000 C 
ENDBRANCH   2   5
BRANCH   1  19
ATOM     17  O   UNL     1       9.569   9.885  19.812  0.00  0.00    +0.000 OA
ATOM     18  C   UNL     1       8.963  10.256  18.810  0.00  0.00    +0.000 C 
ATOM     19  N   UNL     1       8.311   9.384  17.963  0.00  0.00    +0.000 N 
ATOM     20  H   UNL     1       8.009   9.627  17.021  0.00  0.00    +0.000 HD
BRANCH  18  21
ATOM     21  C   UNL     1       8.909  11.695  18.441  0.00  0.00    +0.000 A 
ATOM     22  C   UNL     1       9.813  12.583  19.042  0.00  0.00    +0.000 A 
ATOM     23  C   UNL     1       9.776  13.942  18.720  0.00  0.00    +0.000 A 
ATOM     24  C   UNL     1       8.828  14.407  17.816  0.00  0.00    +0.000 A 
ATOM     25  F   UNL     1       8.794  15.710  17.507  0.00  0.00    +0.000 F 
ATOM     26  C   UNL     1       7.907  13.542  17.234  0.00  0.00    +0.000 A 
ATOM     27  C   UNL     1       7.942  12.182  17.546  0.00  0.00    +0.000 A 
ENDBRANCH  18  21
ENDBRANCH   1  19
TORSDOF 3
ENDMDL
MODEL 2
REMARK VINA RESULT:      -8.3      5.617      7.314
REMARK  Name = 
REMARK  3 active torsions:
REMARK  status: ('A' for Active; 'I' for Inactive)
REMARK    1  A    between atoms: C_2  and  C_19
REMARK    2  A    between atoms: N_3  and  N_4
REMARK    3  A    between atoms: C_5  and  C_7
REMARK                            x       y       z     vdW  Elec       q    Type
REMARK                         _______ _______ _______ _____ _____    ______ ____
ROOT
ATOM      1  N   UNL     1       2.564   5.442  20.543  0.00  0.00    +0.000 N 
ATOM      2  C   UNL     1       1.900   4.282  20.195  0.00  0.00    +0.000 C 
ATOM      3  O   UNL     1       0.686   4.162  20.329  0.00  0.00    +0.000 OA
ATOM      4  H   UNL     1       3.482   5.680  20.159  0.00  0.00    +0.000 HD
ENDROOT
BRANCH   2   5
ATOM      5  C   UNL     1       2.822   3.189  19.653  0.00  0.00    +0.000 C 
ATOM      6  C   UNL     1       4.302   3.578  19.789  0.00  0.00    +0.000 C 
ATOM      7  C   UNL     1       4.687   4.690  18.812  0.00  0.00    +0.000 C 
ATOM      8  N   UNL     1       4.327   4.252  17.473  0.00  0.00    +0.000 N 
ATOM      9  C   UNL     1       5.214   4.435  16.444  0.00  0.00    +0.000 A 
ATOM     10  N   UNL     1       6.441   4.905  16.742  0.00  0.00    +0.000 NA
ATOM     11  C   UNL     1       7.343   5.024  15.751  0.00  0.00    +0.000 A 
ATOM     12  C   UNL     1       7.078   4.688  14.455  0.00  0.00    +0.000 A 
ATOM     13  C   UNL     1       5.809   4.221  14.229  0.00  0.00    +0.000 A 
ATOM     14  N   UNL     1       4.872   4.092  15.192  0.00  0.00    +0.000 NA
ATOM     15  C   UNL     1       2.928   3.961  17.224  0.00  0.00    +0.000 C 
ATOM     16  C   UNL     1       2.494   2.847  18.186  0.00  0.00    +0.000 C 
ENDBRANCH   2   5
BRANCH   1  19
ATOM     17  O   UNL     1       2.303   7.786  19.208  0.00  0.00    +0.000 OA
ATOM     18  C   UNL     1       1.755   7.667  20.300  0.00  0.00    +0.000 C 
ATOM     19  N   UNL     1       1.824   6.513  21.052  0.00  0.00    +0.000 N 
ATOM     20  H   UNL     1       1.201   6.305  21.830  0.00  0.00    +0.000 HD
BRANCH  18  21
ATOM     21  C   UNL     1       0.960   8.782  20.879  0.00  0.00    +0.000 A 
ATOM     22  C   UNL     1       0.707   8.789  22.259  0.00  0.00    +0.000 A 
ATOM     23  C   UNL     1      -0.046   9.820  22.826  0.00  0.00    +0.000 A 
ATOM     24  C   UNL     1      -0.555  10.825  22.012  0.00  0.00    +0.000 A 
ATOM     25  F   UNL     1      -1.276  11.814  22.556  0.00  0.00    +0.000 F 
ATOM     26  C   UNL     1      -0.337  10.815  20.638  0.00  0.00    +0.000 A 
ATOM     27  C   UNL     1       0.421   9.791  20.065  0.00  0.00    +0.000 A 
ENDBRANCH  18  21
ENDBRANCH   1  19
TORSDOF 3
ENDMDL
MODEL 3
REMARK VINA RESULT:      -8.2      2.086      2.593
REMARK  Name = 
REMARK  3 active torsions:
REMARK  status: ('A' for Active; 'I' for Inactive)
REMARK    1  A    between atoms: C_2  and  C_19
REMARK    2  A    between atoms: N_3  and  N_4
REMARK    3  A    between atoms: C_5  and  C_7
REMARK                            x       y       z     vdW  Elec       q    Type
REMARK                         _______ _______ _______ _____ _____    ______ ____
ROOT
ATOM      1  N   UNL     1       7.081   8.021  17.358  0.00  0.00    +0.000 N 
ATOM      2  C   UNL     1       7.126   6.640  17.357  0.00  0.00    +0.000 C 
ATOM      3  O   UNL     1       8.028   6.018  17.912  0.00  0.00    +0.000 OA
ATOM      4  H   UNL     1       6.213   8.537  17.193  0.00  0.00    +0.000 HD
ENDROOT
BRANCH   2   5
ATOM      5  C   UNL     1       5.971   5.991  16.596  0.00  0.00    +0.000 C 
ATOM      6  C   UNL     1       4.619   6.608  16.986  0.00  0.00    +0.000 C 
ATOM      7  C   UNL     1       4.199   6.205  18.400  0.00  0.00    +0.000 C 
ATOM      8  N   UNL     1       4.213   4.753  18.473  0.00  0.00    +0.000 N 
ATOM      9  C   UNL     1       3.167   4.100  19.073  0.00  0.00    +0.000 A 
ATOM     10  N   UNL     1       2.105   4.831  19.464  0.00  0.00    +0.000 NA
ATOM     11  C   UNL     1       1.044   4.193  19.991  0.00  0.00    +0.000 A 
ATOM     12  C   UNL     1       0.988   2.838  20.148  0.00  0.00    +0.000 A 
ATOM     13  C   UNL     1       2.107   2.163  19.730  0.00  0.00    +0.000 A 
ATOM     14  N   UNL     1       3.194   2.764  19.202  0.00  0.00    +0.000 NA
ATOM     15  C   UNL     1       5.476   4.087  18.220  0.00  0.00    +0.000 C 
ATOM     16  C   UNL     1       5.940   4.464  16.807  0.00  0.00    +0.000 C 
ENDBRANCH   2   5
BRANCH   1  19
ATOM     17  O   UNL     1       7.405  10.697  17.072  0.00  0.00    +0.000 OA
ATOM     18  C   UNL     1       8.175  10.086  17.809  0.00  0.00    +0.000 C 
ATOM     19  N   UNL     1       8.088   8.726  18.024  0.00  0.00    +0.000 N 
ATOM     20  H   UNL     1       8.549   8.242  18.792  0.00  0.00    +0.000 HD
BRANCH  18  21
ATOM     21  C   UNL     1       9.261  10.797  18.534  0.00  0.00    +0.000 A 
ATOM     22  C   UNL     1      10.263  11.440  17.792  0.00  0.00    +0.000 A 
ATOM     23  C   UNL     1      11.300  12.107  18.449  0.00  0.00    +0.000 A 
ATOM     24  C   UNL     1      11.340  12.113  19.839  0.00  0.00    +0.000 A 
ATOM     25  F   UNL     1      12.333  12.753  20.469  0.00  0.00    +0.000 F 
ATOM     26  C   UNL     1      10.369  11.455  20.587  0.00  0.00    +0.000 A 
ATOM     27  C   UNL     1       9.325  10.792  19.937  0.00  0.00    +0.000 A 
ENDBRANCH  18  21
ENDBRANCH   1  19
TORSDOF 3
ENDMDL
MODEL 4
REMARK VINA RESULT:      -8.2      1.486      1.836
REMARK  Name = 
REMARK  3 active torsions:
REMARK  status: ('A' for Active; 'I' for Inactive)
REMARK    1  A    between atoms: C_2  and  C_19
REMARK    2  A    between atoms: N_3  and  N_4
REMARK    3  A    between atoms: C_5  and  C_7
REMARK                            x       y       z     vdW  Elec       q    Type
REMARK                         _______ _______ _______ _____ _____    ______ ____
ROOT
ATOM      1  N   UNL     1       7.175   6.893  17.368  0.00  0.00    +0.000 N 
ATOM      2  C   UNL     1       6.165   6.386  16.573  0.00  0.00    +0.000 C 
ATOM      3  O   UNL     1       5.524   7.096  15.803  0.00  0.00    +0.000 OA
ATOM      4  H   UNL     1       7.910   6.298  17.760  0.00  0.00    +0.000 HD
ENDROOT
BRANCH   2   5
ATOM      5  C   UNL     1       5.931   4.888  16.763  0.00  0.00    +0.000 C 
ATOM      6  C   UNL     1       4.494   4.488  16.396  0.00  0.00    +0.000 C 
ATOM      7  C   UNL     1       3.484   4.997  17.425  0.00  0.00    +0.000 C 
ATOM      8  N   UNL     1       3.900   4.516  18.733  0.00  0.00    +0.000 N 
ATOM      9  C   UNL     1       2.963   3.987  19.584  0.00  0.00    +0.000 A 
ATOM     10  N   UNL     1       1.710   3.820  19.120  0.00  0.00    +0.000 NA
ATOM     11  C   UNL     1       0.799   3.237  19.921  0.00  0.00    +0.000 A 
ATOM     12  C   UNL     1       1.084   2.802  21.184  0.00  0.00    +0.000 A 
ATOM     13  C   UNL     1       2.379   3.010  21.586  0.00  0.00    +0.000 A 
ATOM     14  N   UNL     1       3.320   3.595  20.817  0.00  0.00    +0.000 NA
ATOM     15  C   UNL     1       5.206   4.930  19.208  0.00  0.00    +0.000 C 
ATOM     16  C   UNL     1       6.256   4.441  18.203  0.00  0.00    +0.000 C 
ENDBRANCH   2   5
BRANCH   1  19
ATOM     17  O   UNL     1       8.901   8.101  19.073  0.00  0.00    +0.000 OA
ATOM     18  C   UNL     1       8.366   8.778  18.199  0.00  0.00    +0.000 C 
ATOM     19  N   UNL     1       7.480   8.254  17.281  0.00  0.00    +0.000 N 
ATOM     20  H   UNL     1       7.210   8.725  16.419  0.00  0.00    +0.000 HD
BRANCH  18  21
ATOM     21  C   UNL     1       8.661  10.230  18.072  0.00  0.00    +0.000 A 
ATOM     22  C   UNL     1       9.849  10.730  18.624  0.00  0.00    +0.000 A 
ATOM     23  C   UNL     1      10.145  12.092  18.528  0.00  0.00    +0.000 A 
ATOM     24  C   UNL     1       9.248  12.946  17.898  0.00  0.00    +0.000 A 
ATOM     25  F   UNL     1       9.532  14.252  17.805  0.00  0.00    +0.000 F 
ATOM     26  C   UNL     1       8.052  12.469  17.372  0.00  0.00    +0.000 A 
ATOM     27  C   UNL     1       7.753  11.107  17.459  0.00  0.00    +0.000 A 
ENDBRANCH  18  21
ENDBRANCH   1  19
TORSDOF 3
ENDMDL
MODEL 5
REMARK VINA RESULT:      -8.1      1.800      2.242
REMARK  Name = 
REMARK  3 active torsions:
REMARK  status: ('A' for Active; 'I' for Inactive)
REMARK    1  A    between atoms: C_2  and  C_19
REMARK    2  A    between atoms: N_3  and  N_4
REMARK    3  A    between atoms: C_5  and  C_7
REMARK                            x       y       z     vdW  Elec       q    Type
REMARK                         _______ _______ _______ _____ _____    ______ ____
ROOT
ATOM      1  N   UNL     1       7.937   8.380  17.444  0.00  0.00    +0.000 N 
ATOM      2  C   UNL     1       7.741   7.076  17.855  0.00  0.00    +0.000 C 
ATOM      3  O   UNL     1       8.077   6.687  18.971  0.00  0.00    +0.000 OA
ATOM      4  H   UNL     1       7.400   8.796  16.679  0.00  0.00    +0.000 HD
ENDROOT
BRANCH   2   5
ATOM      5  C   UNL     1       7.093   6.191  16.791  0.00  0.00    +0.000 C 
ATOM      6  C   UNL     1       5.640   6.607  16.516  0.00  0.00    +0.000 C 
ATOM      7  C   UNL     1       4.719   6.252  17.683  0.00  0.00    +0.000 C 
ATOM      8  N   UNL     1       4.869   4.831  17.954  0.00  0.00    +0.000 N 
ATOM      9  C   UNL     1       3.752   4.065  18.168  0.00  0.00    +0.000 A 
ATOM     10  N   UNL     1       2.547   4.642  17.994  0.00  0.00    +0.000 NA
ATOM     11  C   UNL     1       1.445   3.883  18.133  0.00  0.00    +0.000 A 
ATOM     12  C   UNL     1       1.486   2.553  18.439  0.00  0.00    +0.000 A 
ATOM     13  C   UNL     1       2.747   2.039  18.603  0.00  0.00    +0.000 A 
ATOM     14  N   UNL     1       3.877   2.766  18.479  0.00  0.00    +0.000 NA
ATOM     15  C   UNL     1       6.191   4.362  18.324  0.00  0.00    +0.000 C 
ATOM     16  C   UNL     1       7.154   4.700  17.179  0.00  0.00    +0.000 C 
ENDBRANCH   2   5
BRANCH   1  19
ATOM     17  O   UNL     1       7.750  11.064  17.116  0.00  0.00    +0.000 OA
ATOM     18  C   UNL     1       8.378  10.631  18.079  0.00  0.00    +0.000 C 
ATOM     19  N   UNL     1       8.525   9.284  18.334  0.00  0.00    +0.000 N 
ATOM     20  H   UNL     1       8.829   8.907  19.230  0.00  0.00    +0.000 HD
BRANCH  18  21
ATOM     21  C   UNL     1       9.020  11.558  19.048  0.00  0.00    +0.000 A 
ATOM     22  C   UNL     1       9.325  12.864  18.637  0.00  0.00    +0.000 A 
ATOM     23  C   UNL     1       9.937  13.751  19.526  0.00  0.00    +0.000 A 
ATOM     24  C   UNL     1      10.255  13.325  20.810  0.00  0.00    +0.000 A 
ATOM     25  F   UNL     1      10.841  14.177  21.662  0.00  0.00    +0.000 F 
ATOM     26  C   UNL     1       9.984  12.025  21.222  0.00  0.00    +0.000 A 
ATOM     27  C   UNL     1       9.366  11.134  20.341  0.00  0.00    +0.000 A 
ENDBRANCH  18  21
ENDBRANCH   1  19
TORSDOF 3
ENDMDL
MODEL 6
REMARK VINA RESULT:      -8.0      1.470      2.017
REMARK  Name = 
REMARK  3 active torsions:
REMARK  status: ('A' for Active; 'I' for Inactive)
REMARK    1  A    between atoms: C_2  and  C_19
REMARK    2  A    between atoms: N_3  and  N_4
REMARK    3  A    between atoms: C_5  and  C_7
REMARK                            x       y       z     vdW  Elec       q    Type
REMARK                         _______ _______ _______ _____ _____    ______ ____
ROOT
ATOM      1  N   UNL     1       7.481   7.208  17.094  0.00  0.00    +0.000 N 
ATOM      2  C   UNL     1       6.137   6.890  17.048  0.00  0.00    +0.000 C 
ATOM      3  O   UNL     1       5.262   7.751  17.090  0.00  0.00    +0.000 OA
ATOM      4  H   UNL     1       8.203   6.570  16.749  0.00  0.00    +0.000 HD
ENDROOT
BRANCH   2   5
ATOM      5  C   UNL     1       5.867   5.389  16.958  0.00  0.00    +0.000 C 
ATOM      6  C   UNL     1       4.403   5.097  16.593  0.00  0.00    +0.000 C 
ATOM      7  C   UNL     1       3.456   5.418  17.749  0.00  0.00    +0.000 C 
ATOM      8  N   UNL     1       3.915   4.685  18.918  0.00  0.00    +0.000 N 
ATOM      9  C   UNL     1       3.003   4.019  19.696  0.00  0.00    +0.000 A 
ATOM     10  N   UNL     1       1.725   3.971  19.272  0.00  0.00    +0.000 NA
ATOM     11  C   UNL     1       0.835   3.264  19.990  0.00  0.00    +0.000 A 
ATOM     12  C   UNL     1       1.162   2.587  21.130  0.00  0.00    +0.000 A 
ATOM     13  C   UNL     1       2.479   2.685  21.499  0.00  0.00    +0.000 A 
ATOM     14  N   UNL     1       3.403   3.389  20.812  0.00  0.00    +0.000 NA
ATOM     15  C   UNL     1       5.253   4.971  19.399  0.00  0.00    +0.000 C 
ATOM     16  C   UNL     1       6.242   4.665  18.267  0.00  0.00    +0.000 C 
ENDBRANCH   2   5
BRANCH   1  19
ATOM     17  O   UNL     1       8.847   8.203  19.212  0.00  0.00    +0.000 OA
ATOM     18  C   UNL     1       8.540   8.966  18.300  0.00  0.00    +0.000 C 
ATOM     19  N   UNL     1       7.850   8.553  17.178  0.00  0.00    +0.000 N 
ATOM     20  H   UNL     1       7.791   9.096  16.318  0.00  0.00    +0.000 HD
BRANCH  18  21
ATOM     21  C   UNL     1       8.912  10.405  18.351  0.00  0.00    +0.000 A 
ATOM     22  C   UNL     1       8.202  11.316  17.555  0.00  0.00    +0.000 A 
ATOM     23  C   UNL     1       8.538  12.672  17.577  0.00  0.00    +0.000 A 
ATOM     24  C   UNL     1       9.589  13.105  18.378  0.00  0.00    +0.000 A 
ATOM     25  F   UNL     1       9.911  14.405  18.399  0.00  0.00    +0.000 F 
ATOM     26  C   UNL     1      10.320  12.208  19.150  0.00  0.00    +0.000 A 
ATOM     27  C   UNL     1       9.985  10.852  19.138  0.00  0.00    +0.000 A 
ENDBRANCH  18  21
ENDBRANCH   1  19
TORSDOF 3
ENDMDL
MODEL 7
REMARK VINA RESULT:      -7.8      5.530      7.041
REMARK  Name = 
REMARK  3 active torsions:
REMARK  status: ('A' for Active; 'I' for Inactive)
REMARK    1  A    between atoms: C_2  and  C_19
REMARK    2  A    between atoms: N_3  and  N_4
REMARK    3  A    between atoms: C_5  and  C_7
REMARK                            x       y       z     vdW  Elec       q    Type
REMARK                         _______ _______ _______ _____ _____    ______ ____
ROOT
ATOM      1  N   UNL     1       3.477   6.051  19.808  0.00  0.00    +0.000 N 
ATOM      2  C   UNL     1       3.087   4.739  19.621  0.00  0.00    +0.000 C 
ATOM      3  O   UNL     1       1.923   4.378  19.769  0.00  0.00    +0.000 OA
ATOM      4  H   UNL     1       4.334   6.428  19.396  0.00  0.00    +0.000 HD
ENDROOT
BRANCH   2   5
ATOM      5  C   UNL     1       4.237   3.809  19.234  0.00  0.00    +0.000 C 
ATOM      6  C   UNL     1       5.526   4.593  18.943  0.00  0.00    +0.000 C 
ATOM      7  C   UNL     1       5.430   5.374  17.633  0.00  0.00    +0.000 C 
ATOM      8  N   UNL     1       5.076   4.437  16.579  0.00  0.00    +0.000 N 
ATOM      9  C   UNL     1       5.738   4.492  15.380  0.00  0.00    +0.000 A 
ATOM     10  N   UNL     1       6.781   5.337  15.271  0.00  0.00    +0.000 NA
ATOM     11  C   UNL     1       7.482   5.350  14.123  0.00  0.00    +0.000 A 
ATOM     12  C   UNL     1       7.191   4.544  13.060  0.00  0.00    +0.000 A 
ATOM     13  C   UNL     1       6.115   3.714  13.245  0.00  0.00    +0.000 A 
ATOM     14  N   UNL     1       5.382   3.674  14.377  0.00  0.00    +0.000 NA
ATOM     15  C   UNL     1       3.820   3.725  16.719  0.00  0.00    +0.000 C 
ATOM     16  C   UNL     1       3.869   2.924  18.026  0.00  0.00    +0.000 C 
ENDBRANCH   2   5
BRANCH   1  19
ATOM     17  O   UNL     1       2.721   8.051  18.143  0.00  0.00    +0.000 OA
ATOM     18  C   UNL     1       2.196   7.978  19.251  0.00  0.00    +0.000 C 
ATOM     19  N   UNL     1       2.509   6.994  20.166  0.00  0.00    +0.000 N 
ATOM     20  H   UNL     1       1.936   6.772  20.978  0.00  0.00    +0.000 HD
BRANCH  18  21
ATOM     21  C   UNL     1       1.164   8.963  19.672  0.00  0.00    +0.000 A 
ATOM     22  C   UNL     1       0.699   9.898  18.736  0.00  0.00    +0.000 A 
ATOM     23  C   UNL     1      -0.263  10.840  19.109  0.00  0.00    +0.000 A 
ATOM     24  C   UNL     1      -0.741  10.853  20.414  0.00  0.00    +0.000 A 
ATOM     25  F   UNL     1      -1.664  11.755  20.771  0.00  0.00    +0.000 F 
ATOM     26  C   UNL     1      -0.268   9.949  21.360  0.00  0.00    +0.000 A 
ATOM     27  C   UNL     1       0.689   9.000  20.992  0.00  0.00    +0.000 A 
ENDBRANCH  18  21
ENDBRANCH   1  19
TORSDOF 3
ENDMDL
MODEL 8
REMARK VINA RESULT:      -7.8      1.825      2.291
REMARK  Name = 
REMARK  3 active torsions:
REMARK  status: ('A' for Active; 'I' for Inactive)
REMARK    1  A    between atoms: C_2  and  C_19
REMARK    2  A    between atoms: N_3  and  N_4
REMARK    3  A    between atoms: C_5  and  C_7
REMARK                            x       y       z     vdW  Elec       q    Type
REMARK                         _______ _______ _______ _____ _____    ______ ____
ROOT
ATOM      1  N   UNL     1       7.559   8.326  17.439  0.00  0.00    +0.000 N 
ATOM      2  C   UNL     1       7.490   7.025  17.900  0.00  0.00    +0.000 C 
ATOM      3  O   UNL     1       8.186   6.626  18.830  0.00  0.00    +0.000 OA
ATOM      4  H   UNL     1       6.797   8.756  16.908  0.00  0.00    +0.000 HD
ENDROOT
BRANCH   2   5
ATOM      5  C   UNL     1       6.491   6.158  17.135  0.00  0.00    +0.000 C 
ATOM      6  C   UNL     1       5.064   6.717  17.233  0.00  0.00    +0.000 C 
ATOM      7  C   UNL     1       4.480   6.535  18.634  0.00  0.00    +0.000 C 
ATOM      8  N   UNL     1       4.570   5.125  18.976  0.00  0.00    +0.000 N 
ATOM      9  C   UNL     1       3.493   4.502  19.552  0.00  0.00    +0.000 A 
ATOM     10  N   UNL     1       2.345   5.198  19.666  0.00  0.00    +0.000 NA
ATOM     11  C   UNL     1       1.263   4.576  20.166  0.00  0.00    +0.000 A 
ATOM     12  C   UNL     1       1.267   3.270  20.563  0.00  0.00    +0.000 A 
ATOM     13  C   UNL     1       2.471   2.629  20.420  0.00  0.00    +0.000 A 
ATOM     14  N   UNL     1       3.582   3.217  19.929  0.00  0.00    +0.000 NA
ATOM     15  C   UNL     1       5.894   4.534  19.009  0.00  0.00    +0.000 C 
ATOM     16  C   UNL     1       6.523   4.694  17.619  0.00  0.00    +0.000 C 
ENDBRANCH   2   5
BRANCH   1  19
ATOM     17  O   UNL     1       7.460  11.001  17.013  0.00  0.00    +0.000 OA
ATOM     18  C   UNL     1       8.314  10.557  17.777  0.00  0.00    +0.000 C 
ATOM     19  N   UNL     1       8.440   9.214  18.062  0.00  0.00    +0.000 N 
ATOM     20  H   UNL     1       8.969   8.849  18.853  0.00  0.00    +0.000 HD
BRANCH  18  21
ATOM     21  C   UNL     1       9.273  11.467  18.459  0.00  0.00    +0.000 A 
ATOM     22  C   UNL     1      10.098  10.949  19.467  0.00  0.00    +0.000 A 
ATOM     23  C   UNL     1      11.000  11.784  20.130  0.00  0.00    +0.000 A 
ATOM     24  C   UNL     1      11.060  13.132  19.796  0.00  0.00    +0.000 A 
ATOM     25  F   UNL     1      11.925  13.933  20.431  0.00  0.00    +0.000 F 
ATOM     26  C   UNL     1      10.227  13.665  18.818  0.00  0.00    +0.000 A 
ATOM     27  C   UNL     1       9.327  12.835  18.146  0.00  0.00    +0.000 A 
ENDBRANCH  18  21
ENDBRANCH   1  19
TORSDOF 3
ENDMDL
MODEL 9
REMARK VINA RESULT:      -7.8      4.200     10.153
REMARK  Name = 
REMARK  3 active torsions:
REMARK  status: ('A' for Active; 'I' for Inactive)
REMARK    1  A    between atoms: C_2  and  C_19
REMARK    2  A    between atoms: N_3  and  N_4
REMARK    3  A    between atoms: C_5  and  C_7
REMARK                            x       y       z     vdW  Elec       q    Type
REMARK                         _______ _______ _______ _____ _____    ______ ____
ROOT
ATOM      1  N   UNL     1       8.874   8.907  19.022  0.00  0.00    +0.000 N 
ATOM      2  C   UNL     1       9.125  10.250  18.819  0.00  0.00    +0.000 C 
ATOM      3  O   UNL     1       8.708  10.848  17.831  0.00  0.00    +0.000 OA
ATOM      4  H   UNL     1       8.928   8.478  19.950  0.00  0.00    +0.000 HD
ENDROOT
BRANCH   2   5
ATOM      5  C   UNL     1       9.969  10.888  19.921  0.00  0.00    +0.000 C 
ATOM      6  C   UNL     1       9.175  11.947  20.702  0.00  0.00    +0.000 C 
ATOM      7  C   UNL     1       8.930  13.202  19.864  0.00  0.00    +0.000 C 
ATOM      8  N   UNL     1      10.218  13.682  19.391  0.00  0.00    +0.000 N 
ATOM      9  C   UNL     1      10.506  15.021  19.462  0.00  0.00    +0.000 A 
ATOM     10  N   UNL     1       9.623  15.825  20.086  0.00  0.00    +0.000 NA
ATOM     11  C   UNL     1       9.925  17.128  20.223  0.00  0.00    +0.000 A 
ATOM     12  C   UNL     1      11.087  17.679  19.763  0.00  0.00    +0.000 A 
ATOM     13  C   UNL     1      11.933  16.799  19.137  0.00  0.00    +0.000 A 
ATOM     14  N   UNL     1      11.665  15.487  18.973  0.00  0.00    +0.000 NA
ATOM     15  C   UNL     1      10.995  12.784  18.558  0.00  0.00    +0.000 C 
ATOM     16  C   UNL     1      11.266  11.504  19.358  0.00  0.00    +0.000 C 
ENDBRANCH   2   5
BRANCH   1  19
ATOM     17  O   UNL     1       8.241   6.287  19.311  0.00  0.00    +0.000 OA
ATOM     18  C   UNL     1       7.846   6.882  18.311  0.00  0.00    +0.000 C 
ATOM     19  N   UNL     1       8.111   8.215  18.078  0.00  0.00    +0.000 N 
ATOM     20  H   UNL     1       7.610   8.782  17.395  0.00  0.00    +0.000 HD
BRANCH  18  21
ATOM     21  C   UNL     1       7.033   6.183  17.280  0.00  0.00    +0.000 A 
ATOM     22  C   UNL     1       7.410   4.892  16.881  0.00  0.00    +0.000 A 
ATOM     23  C   UNL     1       6.669   4.218  15.908  0.00  0.00    +0.000 A 
ATOM     24  C   UNL     1       5.570   4.841  15.328  0.00  0.00    +0.000 A 
ATOM     25  F   UNL     1       4.859   4.194  14.395  0.00  0.00    +0.000 F 
ATOM     26  C   UNL     1       5.203   6.132  15.693  0.00  0.00    +0.000 A 
ATOM     27  C   UNL     1       5.935   6.810  16.671  0.00  0.00    +0.000 A 
ENDBRANCH  18  21
ENDBRANCH   1  19
TORSDOF 3
ENDMDL
