MODEL 1
REMARK VINA RESULT:      -7.2      0.000      0.000
REMARK  Name = 
REMARK  17 active torsions:
REMARK  status: ('A' for Active; 'I' for Inactive)
REMARK    1  A    between atoms: C_1  and  C_2
REMARK    2  A    between atoms: C_2  and  O_3
REMARK    3  A    between atoms: O_3  and  C_4
REMARK    4  A    between atoms: C_6  and  C_7
REMARK    5  A    between atoms: C_7  and  N_8
REMARK    6  A    between atoms: N_8  and  C_9
REMARK    7  A    between atoms: C_9  and  C_10
REMARK    8  A    between atoms: C_10  and  C_11
REMARK    9  A    between atoms: C_14  and  S_15
REMARK   10  A    between atoms: S_15  and  N_16
REMARK   11  A    between atoms: C_23  and  O_24
REMARK   12  A    between atoms: O_24  and  C_25
REMARK   13  A    between atoms: C_25  and  C_26
REMARK   14  A    between atoms: N_28  and  C_29
REMARK   15  A    between atoms: C_29  and  C_30
REMARK   16  A    between atoms: C_29  and  C_31
REMARK   17  A    between atoms: C_29  and  C_32
REMARK                            x       y       z     vdW  Elec       q    Type
REMARK                         _______ _______ _______ _____ _____    ______ ____
ROOT
ATOM      1  C   UNL     1       1.628   6.869  20.355  0.00  0.00    +0.000 A 
ATOM      2  C   UNL     1       1.273   5.517  20.548  0.00  0.00    +0.000 A 
ATOM      3  C   UNL     1       1.409   4.583  19.511  0.00  0.00    +0.000 A 
ATOM      4  C   UNL     1       1.924   4.968  18.286  0.00  0.00    +0.000 A 
ATOM      5  C   UNL     1       2.283   6.277  18.077  0.00  0.00    +0.000 A 
ATOM      6  C   UNL     1       2.128   7.264  19.086  0.00  0.00    +0.000 A 
ENDROOT
BRANCH   1   7
ATOM      7  O   UNL     1       1.459   7.796  21.348  0.00  0.00    +0.000 OA
BRANCH   7   9
ATOM      8  C   UNL     1       0.604   9.805  22.430  0.00  0.00    +0.000 C 
ATOM      9  C   UNL     1       0.312   8.534  21.622  0.00  0.00    +0.000 C 
ENDBRANCH   7   9
ENDBRANCH   1   7
BRANCH   3  10
ATOM     10  C   UNL     1       1.014   3.170  19.716  0.00  0.00    +0.000 C 
BRANCH  10  11
ATOM     11  N   UNL     1       1.611   2.658  20.954  0.00  0.00    +0.000 NA
ATOM     12  H   UNL     1       1.383   1.637  21.037  0.00  0.00    +0.000 HD
BRANCH  11  13
ATOM     13  C   UNL     1       3.067   2.781  20.926  0.00  0.00    +0.000 C 
BRANCH  13  14
ATOM     14  C   UNL     1       3.681   2.016  19.737  0.00  0.00    +0.000 C 
BRANCH  14  15
ATOM     15  C   UNL     1       4.402   2.965  18.843  0.00  0.00    +0.000 A 
ATOM     16  C   UNL     1       5.178   3.989  19.406  0.00  0.00    +0.000 A 
ATOM     17  C   UNL     1       5.825   4.906  18.584  0.00  0.00    +0.000 A 
ATOM     18  C   UNL     1       5.711   4.799  17.197  0.00  0.00    +0.000 A 
ATOM     19  C   UNL     1       4.962   3.761  16.629  0.00  0.00    +0.000 A 
ATOM     20  C   UNL     1       4.306   2.845  17.450  0.00  0.00    +0.000 A 
BRANCH  18  21
ATOM     21  S   UNL     1       6.522   6.010  16.173  0.00  0.00    +0.000 S 
ATOM     22  O   UNL     1       7.481   5.406  15.137  0.00  0.00    +0.000 OA
ATOM     23  O   UNL     1       5.529   6.778  15.288  0.00  0.00    +0.000 OA
BRANCH  21  24
ATOM     24  N   UNL     1       7.453   7.255  17.006  0.00  0.00    +0.000 NA
ATOM     25  H   UNL     1       8.424   7.225  16.622  0.00  0.00    +0.000 HD
ATOM     26  H   UNL     1       7.499   6.985  18.014  0.00  0.00    +0.000 HD
ENDBRANCH  21  24
ENDBRANCH  18  21
ENDBRANCH  14  15
ENDBRANCH  13  14
ENDBRANCH  11  13
ENDBRANCH  10  11
ENDBRANCH   3  10
BRANCH   6  27
ATOM     27  O   UNL     1       2.413   8.574  18.811  0.00  0.00    +0.000 OA
BRANCH  27  28
ATOM     28  C   UNL     1       1.614   9.279  17.918  0.00  0.00    +0.000 C 
BRANCH  28  29
ATOM     29  C   UNL     1       0.881  10.454  18.463  0.00  0.00    +0.000 C 
ATOM     30  O   UNL     1       1.385  11.186  19.302  0.00  0.00    +0.000 OA
ATOM     31  N   UNL     1      -0.391  10.643  17.999  0.00  0.00    +0.000 N 
ATOM     32  H   UNL     1      -0.743   9.951  17.315  0.00  0.00    +0.000 HD
BRANCH  31  33
ATOM     33  C   UNL     1      -1.314  11.701  18.400  0.00  0.00    +0.000 C 
ATOM     34  C   UNL     1      -2.631  11.562  17.619  0.00  0.00    +0.000 C 
ATOM     35  C   UNL     1      -1.611  11.549  19.911  0.00  0.00    +0.000 C 
ATOM     36  C   UNL     1      -0.686  13.088  18.172  0.00  0.00    +0.000 C 
ENDBRANCH  31  33
ENDBRANCH  28  29
ENDBRANCH  27  28
ENDBRANCH   6  27
TORSDOF 13
ENDMDL
MODEL 2
REMARK VINA RESULT:      -7.2      2.251      3.019
REMARK  Name = 
REMARK  17 active torsions:
REMARK  status: ('A' for Active; 'I' for Inactive)
REMARK    1  A    between atoms: C_1  and  C_2
REMARK    2  A    between atoms: C_2  and  O_3
REMARK    3  A    between atoms: O_3  and  C_4
REMARK    4  A    between atoms: C_6  and  C_7
REMARK    5  A    between atoms: C_7  and  N_8
REMARK    6  A    between atoms: N_8  and  C_9
REMARK    7  A    between atoms: C_9  and  C_10
REMARK    8  A    between atoms: C_10  and  C_11
REMARK    9  A    between atoms: C_14  and  S_15
REMARK   10  A    between atoms: S_15  and  N_16
REMARK   11  A    between atoms: C_23  and  O_24
REMARK   12  A    between atoms: O_24  and  C_25
REMARK   13  A    between atoms: C_25  and  C_26
REMARK   14  A    between atoms: N_28  and  C_29
REMARK   15  A    between atoms: C_29  and  C_30
REMARK   16  A    between atoms: C_29  and  C_31
REMARK   17  A    between atoms: C_29  and  C_32
REMARK                            x       y       z     vdW  Elec       q    Type
REMARK                         _______ _______ _______ _____ _____    ______ ____
ROOT
ATOM      1  C   UNL     1       1.148   8.792  20.227  0.00  0.00    +0.000 A 
ATOM      2  C   UNL     1       1.402   7.539  20.824  0.00  0.00    +0.000 A 
ATOM      3  C   UNL     1       2.059   6.525  20.114  0.00  0.00    +0.000 A 
ATOM      4  C   UNL     1       2.497   6.747  18.820  0.00  0.00    +0.000 A 
ATOM      5  C   UNL     1       2.268   7.962  18.221  0.00  0.00    +0.000 A 
ATOM      6  C   UNL     1       1.573   9.004  18.890  0.00  0.00    +0.000 A 
ENDROOT
BRANCH   1   7
ATOM      7  O   UNL     1       0.469   9.774  20.898  0.00  0.00    +0.000 OA
BRANCH   7   9
ATOM      8  C   UNL     1      -0.116   9.687  23.262  0.00  0.00    +0.000 C 
ATOM      9  C   UNL     1      -0.576   9.606  21.801  0.00  0.00    +0.000 C 
ENDBRANCH   7   9
ENDBRANCH   1   7
BRANCH   3  10
ATOM     10  C   UNL     1       2.304   5.205  20.741  0.00  0.00    +0.000 C 
BRANCH  10  11
ATOM     11  N   UNL     1       1.068   4.416  20.742  0.00  0.00    +0.000 NA
ATOM     12  H   UNL     1       0.263   5.055  20.530  0.00  0.00    +0.000 HD
BRANCH  11  13
ATOM     13  C   UNL     1       1.099   3.390  19.700  0.00  0.00    +0.000 C 
BRANCH  13  14
ATOM     14  C   UNL     1       2.411   2.583  19.733  0.00  0.00    +0.000 C 
BRANCH  14  15
ATOM     15  C   UNL     1       3.366   3.131  18.730  0.00  0.00    +0.000 A 
ATOM     16  C   UNL     1       2.947   3.312  17.404  0.00  0.00    +0.000 A 
ATOM     17  C   UNL     1       3.839   3.788  16.449  0.00  0.00    +0.000 A 
ATOM     18  C   UNL     1       5.151   4.096  16.814  0.00  0.00    +0.000 A 
ATOM     19  C   UNL     1       5.567   3.945  18.142  0.00  0.00    +0.000 A 
ATOM     20  C   UNL     1       4.677   3.462  19.101  0.00  0.00    +0.000 A 
BRANCH  18  21
ATOM     21  S   UNL     1       6.279   4.668  15.559  0.00  0.00    +0.000 S 
ATOM     22  O   UNL     1       6.003   6.101  15.082  0.00  0.00    +0.000 OA
ATOM     23  O   UNL     1       7.720   4.772  16.081  0.00  0.00    +0.000 OA
BRANCH  21  24
ATOM     24  N   UNL     1       6.392   3.696  14.093  0.00  0.00    +0.000 NA
ATOM     25  H   UNL     1       7.310   3.915  13.646  0.00  0.00    +0.000 HD
ATOM     26  H   UNL     1       5.636   4.020  13.448  0.00  0.00    +0.000 HD
ENDBRANCH  21  24
ENDBRANCH  18  21
ENDBRANCH  14  15
ENDBRANCH  13  14
ENDBRANCH  11  13
ENDBRANCH  10  11
ENDBRANCH   3  10
BRANCH   6  27
ATOM     27  O   UNL     1       1.285  10.168  18.228  0.00  0.00    +0.000 OA
BRANCH  27  28
ATOM     28  C   UNL     1       2.309  11.056  17.921  0.00  0.00    +0.000 C 
BRANCH  28  29
ATOM     29  C   UNL     1       2.284  12.370  18.619  0.00  0.00    +0.000 C 
ATOM     30  O   UNL     1       1.761  12.498  19.716  0.00  0.00    +0.000 OA
ATOM     31  N   UNL     1       2.846  13.423  17.951  0.00  0.00    +0.000 N 
ATOM     32  H   UNL     1       3.235  13.223  17.013  0.00  0.00    +0.000 HD
BRANCH  31  33
ATOM     33  C   UNL     1       2.920  14.806  18.413  0.00  0.00    +0.000 C 
ATOM     34  C   UNL     1       3.884  14.902  19.607  0.00  0.00    +0.000 C 
ATOM     35  C   UNL     1       3.462  15.683  17.260  0.00  0.00    +0.000 C 
ATOM     36  C   UNL     1       1.522  15.328  18.795  0.00  0.00    +0.000 C 
ENDBRANCH  31  33
ENDBRANCH  28  29
ENDBRANCH  27  28
ENDBRANCH   6  27
TORSDOF 13
ENDMDL
MODEL 3
REMARK VINA RESULT:      -7.1      1.328      1.918
REMARK  Name = 
REMARK  17 active torsions:
REMARK  status: ('A' for Active; 'I' for Inactive)
REMARK    1  A    between atoms: C_1  and  C_2
REMARK    2  A    between atoms: C_2  and  O_3
REMARK    3  A    between atoms: O_3  and  C_4
REMARK    4  A    between atoms: C_6  and  C_7
REMARK    5  A    between atoms: C_7  and  N_8
REMARK    6  A    between atoms: N_8  and  C_9
REMARK    7  A    between atoms: C_9  and  C_10
REMARK    8  A    between atoms: C_10  and  C_11
REMARK    9  A    between atoms: C_14  and  S_15
REMARK   10  A    between atoms: S_15  and  N_16
REMARK   11  A    between atoms: C_23  and  O_24
REMARK   12  A    between atoms: O_24  and  C_25
REMARK   13  A    between atoms: C_25  and  C_26
REMARK   14  A    between atoms: N_28  and  C_29
REMARK   15  A    between atoms: C_29  and  C_30
REMARK   16  A    between atoms: C_29  and  C_31
REMARK   17  A    between atoms: C_29  and  C_32
REMARK                            x       y       z     vdW  Elec       q    Type
REMARK                         _______ _______ _______ _____ _____    ______ ____
ROOT
ATOM      1  C   UNL     1       1.686   7.834  20.294  0.00  0.00    +0.000 A 
ATOM      2  C   UNL     1       1.315   6.578  20.820  0.00  0.00    +0.000 A 
ATOM      3  C   UNL     1       1.502   5.405  20.076  0.00  0.00    +0.000 A 
ATOM      4  C   UNL     1       2.082   5.456  18.821  0.00  0.00    +0.000 A 
ATOM      5  C   UNL     1       2.458   6.667  18.292  0.00  0.00    +0.000 A 
ATOM      6  C   UNL     1       2.253   7.884  18.995  0.00  0.00    +0.000 A 
ENDROOT
BRANCH   1   7
ATOM      7  O   UNL     1       1.469   8.990  20.997  0.00  0.00    +0.000 OA
BRANCH   7   9
ATOM      8  C   UNL     1      -0.165   9.504  22.730  0.00  0.00    +0.000 C 
ATOM      9  C   UNL     1       1.274   9.115  22.368  0.00  0.00    +0.000 C 
ENDBRANCH   7   9
ENDBRANCH   1   7
BRANCH   3  10
ATOM     10  C   UNL     1       1.091   4.092  20.627  0.00  0.00    +0.000 C 
BRANCH  10  11
ATOM     11  N   UNL     1       2.213   3.477  21.343  0.00  0.00    +0.000 NA
ATOM     12  H   UNL     1       1.867   3.132  22.272  0.00  0.00    +0.000 HD
BRANCH  11  13
ATOM     13  C   UNL     1       2.732   2.321  20.613  0.00  0.00    +0.000 C 
BRANCH  13  14
ATOM     14  C   UNL     1       4.266   2.372  20.480  0.00  0.00    +0.000 C 
BRANCH  14  15
ATOM     15  C   UNL     1       4.641   3.130  19.253  0.00  0.00    +0.000 A 
ATOM     16  C   UNL     1       4.113   2.742  18.013  0.00  0.00    +0.000 A 
ATOM     17  C   UNL     1       4.484   3.417  16.854  0.00  0.00    +0.000 A 
ATOM     18  C   UNL     1       5.375   4.489  16.929  0.00  0.00    +0.000 A 
ATOM     19  C   UNL     1       5.883   4.900  18.167  0.00  0.00    +0.000 A 
ATOM     20  C   UNL     1       5.518   4.221  19.330  0.00  0.00    +0.000 A 
BRANCH  18  21
ATOM     21  S   UNL     1       5.859   5.308  15.423  0.00  0.00    +0.000 S 
ATOM     22  O   UNL     1       5.191   6.676  15.217  0.00  0.00    +0.000 OA
ATOM     23  O   UNL     1       7.352   5.672  15.415  0.00  0.00    +0.000 OA
BRANCH  21  24
ATOM     24  N   UNL     1       5.594   4.425  13.920  0.00  0.00    +0.000 NA
ATOM     25  H   UNL     1       6.036   4.979  13.153  0.00  0.00    +0.000 HD
ATOM     26  H   UNL     1       4.564   4.406  13.749  0.00  0.00    +0.000 HD
ENDBRANCH  21  24
ENDBRANCH  18  21
ENDBRANCH  14  15
ENDBRANCH  13  14
ENDBRANCH  11  13
ENDBRANCH  10  11
ENDBRANCH   3  10
BRANCH   6  27
ATOM     27  O   UNL     1       2.559   9.078  18.397  0.00  0.00    +0.000 OA
BRANCH  27  28
ATOM     28  C   UNL     1       1.542   9.853  17.851  0.00  0.00    +0.000 C 
BRANCH  28  29
ATOM     29  C   UNL     1       1.280  11.164  18.503  0.00  0.00    +0.000 C 
ATOM     30  O   UNL     1       2.089  12.078  18.444  0.00  0.00    +0.000 OA
ATOM     31  N   UNL     1       0.104  11.273  19.194  0.00  0.00    +0.000 N 
ATOM     32  H   UNL     1      -0.501  10.435  19.214  0.00  0.00    +0.000 HD
BRANCH  31  33
ATOM     33  C   UNL     1      -0.362  12.442  19.935  0.00  0.00    +0.000 C 
ATOM     34  C   UNL     1       0.635  12.775  21.056  0.00  0.00    +0.000 C 
ATOM     35  C   UNL     1      -0.442  13.643  18.963  0.00  0.00    +0.000 C 
ATOM     36  C   UNL     1      -1.770  12.196  20.510  0.00  0.00    +0.000 C 
ENDBRANCH  31  33
ENDBRANCH  28  29
ENDBRANCH  27  28
ENDBRANCH   6  27
TORSDOF 13
ENDMDL
MODEL 4
REMARK VINA RESULT:      -6.9      1.556      2.030
REMARK  Name = 
REMARK  17 active torsions:
REMARK  status: ('A' for Active; 'I' for Inactive)
REMARK    1  A    between atoms: C_1  and  C_2
REMARK    2  A    between atoms: C_2  and  O_3
REMARK    3  A    between atoms: O_3  and  C_4
REMARK    4  A    between atoms: C_6  and  C_7
REMARK    5  A    between atoms: C_7  and  N_8
REMARK    6  A    between atoms: N_8  and  C_9
REMARK    7  A    between atoms: C_9  and  C_10
REMARK    8  A    between atoms: C_10  and  C_11
REMARK    9  A    between atoms: C_14  and  S_15
REMARK   10  A    between atoms: S_15  and  N_16
REMARK   11  A    between atoms: C_23  and  O_24
REMARK   12  A    between atoms: O_24  and  C_25
REMARK   13  A    between atoms: C_25  and  C_26
REMARK   14  A    between atoms: N_28  and  C_29
REMARK   15  A    between atoms: C_29  and  C_30
REMARK   16  A    between atoms: C_29  and  C_31
REMARK   17  A    between atoms: C_29  and  C_32
REMARK                            x       y       z     vdW  Elec       q    Type
REMARK                         _______ _______ _______ _____ _____    ______ ____
ROOT
ATOM      1  C   UNL     1       1.480   8.382  20.482  0.00  0.00    +0.000 A 
ATOM      2  C   UNL     1       1.449   7.089  21.045  0.00  0.00    +0.000 A 
ATOM      3  C   UNL     1       1.831   5.969  20.294  0.00  0.00    +0.000 A 
ATOM      4  C   UNL     1       2.275   6.117  18.992  0.00  0.00    +0.000 A 
ATOM      5  C   UNL     1       2.321   7.368  18.425  0.00  0.00    +0.000 A 
ATOM      6  C   UNL     1       1.909   8.525  19.137  0.00  0.00    +0.000 A 
ENDROOT
BRANCH   1   7
ATOM      7  O   UNL     1       1.069   9.477  21.195  0.00  0.00    +0.000 OA
BRANCH   7   9
ATOM      8  C   UNL     1      -0.617  10.479  22.639  0.00  0.00    +0.000 C 
ATOM      9  C   UNL     1       0.546   9.492  22.484  0.00  0.00    +0.000 C 
ENDBRANCH   7   9
ENDBRANCH   1   7
BRANCH   3  10
ATOM     10  C   UNL     1       1.775   4.612  20.886  0.00  0.00    +0.000 C 
BRANCH  10  11
ATOM     11  N   UNL     1       1.269   3.655  19.896  0.00  0.00    +0.000 NA
ATOM     12  H   UNL     1       1.505   4.010  18.937  0.00  0.00    +0.000 HD
BRANCH  11  13
ATOM     13  C   UNL     1       1.911   2.351  20.050  0.00  0.00    +0.000 C 
BRANCH  13  14
ATOM     14  C   UNL     1       2.554   1.872  18.734  0.00  0.00    +0.000 C 
BRANCH  14  15
ATOM     15  C   UNL     1       3.569   2.863  18.279  0.00  0.00    +0.000 A 
ATOM     16  C   UNL     1       3.498   3.376  16.976  0.00  0.00    +0.000 A 
ATOM     17  C   UNL     1       4.461   4.273  16.525  0.00  0.00    +0.000 A 
ATOM     18  C   UNL     1       5.493   4.672  17.376  0.00  0.00    +0.000 A 
ATOM     19  C   UNL     1       5.553   4.186  18.688  0.00  0.00    +0.000 A 
ATOM     20  C   UNL     1       4.593   3.281  19.140  0.00  0.00    +0.000 A 
BRANCH  18  21
ATOM     21  S   UNL     1       6.731   5.793  16.757  0.00  0.00    +0.000 S 
ATOM     22  O   UNL     1       6.228   7.232  16.567  0.00  0.00    +0.000 OA
ATOM     23  O   UNL     1       7.889   5.982  17.749  0.00  0.00    +0.000 OA
BRANCH  21  24
ATOM     24  N   UNL     1       7.501   5.359  15.231  0.00  0.00    +0.000 NA
ATOM     25  H   UNL     1       7.980   4.442  15.376  0.00  0.00    +0.000 HD
ATOM     26  H   UNL     1       8.236   6.077  15.039  0.00  0.00    +0.000 HD
ENDBRANCH  21  24
ENDBRANCH  18  21
ENDBRANCH  14  15
ENDBRANCH  13  14
ENDBRANCH  11  13
ENDBRANCH  10  11
ENDBRANCH   3  10
BRANCH   6  27
ATOM     27  O   UNL     1       1.885   9.741  18.508  0.00  0.00    +0.000 OA
BRANCH  27  28
ATOM     28  C   UNL     1       0.693  10.452  18.431  0.00  0.00    +0.000 C 
BRANCH  28  29
ATOM     29  C   UNL     1       0.728  11.866  18.895  0.00  0.00    +0.000 C 
ATOM     30  O   UNL     1       1.713  12.567  18.725  0.00  0.00    +0.000 OA
ATOM     31  N   UNL     1      -0.386  12.317  19.548  0.00  0.00    +0.000 N 
ATOM     32  H   UNL     1      -1.157  11.639  19.673  0.00  0.00    +0.000 HD
BRANCH  31  33
ATOM     33  C   UNL     1      -0.580  13.648  20.117  0.00  0.00    +0.000 C 
ATOM     34  C   UNL     1      -2.012  13.774  20.662  0.00  0.00    +0.000 C 
ATOM     35  C   UNL     1       0.418  13.834  21.285  0.00  0.00    +0.000 C 
ATOM     36  C   UNL     1      -0.296  14.737  19.066  0.00  0.00    +0.000 C 
ENDBRANCH  31  33
ENDBRANCH  28  29
ENDBRANCH  27  28
ENDBRANCH   6  27
TORSDOF 13
ENDMDL
MODEL 5
REMARK VINA RESULT:      -6.9      6.349      9.654
REMARK  Name = 
REMARK  17 active torsions:
REMARK  status: ('A' for Active; 'I' for Inactive)
REMARK    1  A    between atoms: C_1  and  C_2
REMARK    2  A    between atoms: C_2  and  O_3
REMARK    3  A    between atoms: O_3  and  C_4
REMARK    4  A    between atoms: C_6  and  C_7
REMARK    5  A    between atoms: C_7  and  N_8
REMARK    6  A    between atoms: N_8  and  C_9
REMARK    7  A    between atoms: C_9  and  C_10
REMARK    8  A    between atoms: C_10  and  C_11
REMARK    9  A    between atoms: C_14  and  S_15
REMARK   10  A    between atoms: S_15  and  N_16
REMARK   11  A    between atoms: C_23  and  O_24
REMARK   12  A    between atoms: O_24  and  C_25
REMARK   13  A    between atoms: C_25  and  C_26
REMARK   14  A    between atoms: N_28  and  C_29
REMARK   15  A    between atoms: C_29  and  C_30
REMARK   16  A    between atoms: C_29  and  C_31
REMARK   17  A    between atoms: C_29  and  C_32
REMARK                            x       y       z     vdW  Elec       q    Type
REMARK                         _______ _______ _______ _____ _____    ______ ____
ROOT
ATOM      1  C   UNL     1       6.350   6.075  16.890  0.00  0.00    +0.000 A 
ATOM      2  C   UNL     1       6.931   7.361  16.859  0.00  0.00    +0.000 A 
ATOM      3  C   UNL     1       7.817   7.773  17.864  0.00  0.00    +0.000 A 
ATOM      4  C   UNL     1       8.161   6.911  18.891  0.00  0.00    +0.000 A 
ATOM      5  C   UNL     1       7.614   5.652  18.937  0.00  0.00    +0.000 A 
ATOM      6  C   UNL     1       6.684   5.206  17.961  0.00  0.00    +0.000 A 
ENDROOT
BRANCH   1   7
ATOM      7  O   UNL     1       5.452   5.679  15.936  0.00  0.00    +0.000 OA
BRANCH   7   9
ATOM      8  C   UNL     1       6.739   4.721  14.103  0.00  0.00    +0.000 C 
ATOM      9  C   UNL     1       5.563   4.589  15.078  0.00  0.00    +0.000 C 
ENDBRANCH   7   9
ENDBRANCH   1   7
BRANCH   3  10
ATOM     10  C   UNL     1       8.406   9.132  17.836  0.00  0.00    +0.000 C 
BRANCH  10  11
ATOM     11  N   UNL     1       9.015   9.440  19.134  0.00  0.00    +0.000 NA
ATOM     12  H   UNL     1       9.651   8.648  19.401  0.00  0.00    +0.000 HD
BRANCH  11  13
ATOM     13  C   UNL     1       9.832  10.650  19.057  0.00  0.00    +0.000 C 
BRANCH  13  14
ATOM     14  C   UNL     1       9.635  11.551  20.292  0.00  0.00    +0.000 C 
BRANCH  14  15
ATOM     15  C   UNL     1       9.625  12.982  19.877  0.00  0.00    +0.000 A 
ATOM     16  C   UNL     1       9.288  13.315  18.557  0.00  0.00    +0.000 A 
ATOM     17  C   UNL     1       9.311  14.644  18.145  0.00  0.00    +0.000 A 
ATOM     18  C   UNL     1       9.659  15.647  19.050  0.00  0.00    +0.000 A 
ATOM     19  C   UNL     1       9.967  15.324  20.377  0.00  0.00    +0.000 A 
ATOM     20  C   UNL     1       9.952  13.992  20.792  0.00  0.00    +0.000 A 
BRANCH  18  21
ATOM     21  S   UNL     1       9.714  17.335  18.482  0.00  0.00    +0.000 S 
ATOM     22  O   UNL     1       8.330  17.974  18.297  0.00  0.00    +0.000 OA
ATOM     23  O   UNL     1      10.369  18.270  19.510  0.00  0.00    +0.000 OA
BRANCH  21  24
ATOM     24  N   UNL     1      10.577  17.634  16.974  0.00  0.00    +0.000 NA
ATOM     25  H   UNL     1      10.281  18.574  16.629  0.00  0.00    +0.000 HD
ATOM     26  H   UNL     1      10.249  16.922  16.283  0.00  0.00    +0.000 HD
ENDBRANCH  21  24
ENDBRANCH  18  21
ENDBRANCH  14  15
ENDBRANCH  13  14
ENDBRANCH  11  13
ENDBRANCH  10  11
ENDBRANCH   3  10
BRANCH   6  27
ATOM     27  O   UNL     1       6.093   3.978  18.091  0.00  0.00    +0.000 OA
BRANCH  27  28
ATOM     28  C   UNL     1       5.376   3.679  19.244  0.00  0.00    +0.000 C 
BRANCH  28  29
ATOM     29  C   UNL     1       3.895   3.791  19.155  0.00  0.00    +0.000 C 
ATOM     30  O   UNL     1       3.351   4.300  18.187  0.00  0.00    +0.000 OA
ATOM     31  N   UNL     1       3.186   3.324  20.228  0.00  0.00    +0.000 N 
ATOM     32  H   UNL     1       3.736   2.940  21.016  0.00  0.00    +0.000 HD
BRANCH  31  33
ATOM     33  C   UNL     1       1.735   3.348  20.388  0.00  0.00    +0.000 C 
ATOM     34  C   UNL     1       1.346   2.627  21.689  0.00  0.00    +0.000 C 
ATOM     35  C   UNL     1       1.274   4.823  20.477  0.00  0.00    +0.000 C 
ATOM     36  C   UNL     1       1.042   2.702  19.175  0.00  0.00    +0.000 C 
ENDBRANCH  31  33
ENDBRANCH  28  29
ENDBRANCH  27  28
ENDBRANCH   6  27
TORSDOF 13
ENDMDL
MODEL 6
REMARK VINA RESULT:      -6.9      1.811      2.481
REMARK  Name = 
REMARK  17 active torsions:
REMARK  status: ('A' for Active; 'I' for Inactive)
REMARK    1  A    between atoms: C_1  and  C_2
REMARK    2  A    between atoms: C_2  and  O_3
REMARK    3  A    between atoms: O_3  and  C_4
REMARK    4  A    between atoms: C_6  and  C_7
REMARK    5  A    between atoms: C_7  and  N_8
REMARK    6  A    between atoms: N_8  and  C_9
REMARK    7  A    between atoms: C_9  and  C_10
REMARK    8  A    between atoms: C_10  and  C_11
REMARK    9  A    between atoms: C_14  and  S_15
REMARK   10  A    between atoms: S_15  and  N_16
REMARK   11  A    between atoms: C_23  and  O_24
REMARK   12  A    between atoms: O_24  and  C_25
REMARK   13  A    between atoms: C_25  and  C_26
REMARK   14  A    between atoms: N_28  and  C_29
REMARK   15  A    between atoms: C_29  and  C_30
REMARK   16  A    between atoms: C_29  and  C_31
REMARK   17  A    between atoms: C_29  and  C_32
REMARK                            x       y       z     vdW  Elec       q    Type
REMARK                         _______ _______ _______ _____ _____    ______ ____
ROOT
ATOM      1  C   UNL     1       0.936   8.943  20.552  0.00  0.00    +0.000 A 
ATOM      2  C   UNL     1       1.138   7.644  21.066  0.00  0.00    +0.000 A 
ATOM      3  C   UNL     1       1.820   6.675  20.319  0.00  0.00    +0.000 A 
ATOM      4  C   UNL     1       2.336   6.985  19.073  0.00  0.00    +0.000 A 
ATOM      5  C   UNL     1       2.158   8.245  18.556  0.00  0.00    +0.000 A 
ATOM      6  C   UNL     1       1.441   9.247  19.262  0.00  0.00    +0.000 A 
ENDROOT
BRANCH   1   7
ATOM      7  O   UNL     1       0.234   9.884  21.257  0.00  0.00    +0.000 OA
BRANCH   7   9
ATOM      8  C   UNL     1      -1.055  10.955  23.026  0.00  0.00    +0.000 C 
ATOM      9  C   UNL     1      -0.034   9.884  22.623  0.00  0.00    +0.000 C 
ENDBRANCH   7   9
ENDBRANCH   1   7
BRANCH   3  10
ATOM     10  C   UNL     1       2.009   5.307  20.857  0.00  0.00    +0.000 C 
BRANCH  10  11
ATOM     11  N   UNL     1       0.940   4.427  20.372  0.00  0.00    +0.000 NA
ATOM     12  H   UNL     1       0.594   4.797  19.453  0.00  0.00    +0.000 HD
BRANCH  11  13
ATOM     13  C   UNL     1       1.440   3.073  20.138  0.00  0.00    +0.000 C 
BRANCH  13  14
ATOM     14  C   UNL     1       1.753   2.830  18.649  0.00  0.00    +0.000 C 
BRANCH  14  15
ATOM     15  C   UNL     1       3.095   3.385  18.318  0.00  0.00    +0.000 A 
ATOM     16  C   UNL     1       4.133   3.286  19.255  0.00  0.00    +0.000 A 
ATOM     17  C   UNL     1       5.382   3.833  18.976  0.00  0.00    +0.000 A 
ATOM     18  C   UNL     1       5.604   4.471  17.754  0.00  0.00    +0.000 A 
ATOM     19  C   UNL     1       4.580   4.547  16.802  0.00  0.00    +0.000 A 
ATOM     20  C   UNL     1       3.325   4.006  17.082  0.00  0.00    +0.000 A 
BRANCH  18  21
ATOM     21  S   UNL     1       7.202   5.193  17.441  0.00  0.00    +0.000 S 
ATOM     22  O   UNL     1       8.333   4.163  17.307  0.00  0.00    +0.000 OA
ATOM     23  O   UNL     1       7.256   5.912  16.085  0.00  0.00    +0.000 OA
BRANCH  21  24
ATOM     24  N   UNL     1       7.778   6.377  18.612  0.00  0.00    +0.000 NA
ATOM     25  H   UNL     1       6.989   7.035  18.802  0.00  0.00    +0.000 HD
ATOM     26  H   UNL     1       8.544   6.921  18.152  0.00  0.00    +0.000 HD
ENDBRANCH  21  24
ENDBRANCH  18  21
ENDBRANCH  14  15
ENDBRANCH  13  14
ENDBRANCH  11  13
ENDBRANCH  10  11
ENDBRANCH   3  10
BRANCH   6  27
ATOM     27  O   UNL     1       1.208  10.462  18.675  0.00  0.00    +0.000 OA
BRANCH  27  28
ATOM     28  C   UNL     1      -0.097  10.916  18.528  0.00  0.00    +0.000 C 
BRANCH  28  29
ATOM     29  C   UNL     1      -0.395  12.275  19.056  0.00  0.00    +0.000 C 
ATOM     30  O   UNL     1      -1.541  12.635  19.279  0.00  0.00    +0.000 OA
ATOM     31  N   UNL     1       0.679  13.101  19.243  0.00  0.00    +0.000 N 
ATOM     32  H   UNL     1       1.608  12.719  18.995  0.00  0.00    +0.000 HD
BRANCH  31  33
ATOM     33  C   UNL     1       0.641  14.480  19.722  0.00  0.00    +0.000 C 
ATOM     34  C   UNL     1       0.088  14.515  21.156  0.00  0.00    +0.000 C 
ATOM     35  C   UNL     1       2.084  15.039  19.729  0.00  0.00    +0.000 C 
ATOM     36  C   UNL     1      -0.208  15.360  18.785  0.00  0.00    +0.000 C 
ENDBRANCH  31  33
ENDBRANCH  28  29
ENDBRANCH  27  28
ENDBRANCH   6  27
TORSDOF 13
ENDMDL
MODEL 7
REMARK VINA RESULT:      -6.9      1.380      1.591
REMARK  Name = 
REMARK  17 active torsions:
REMARK  status: ('A' for Active; 'I' for Inactive)
REMARK    1  A    between atoms: C_1  and  C_2
REMARK    2  A    between atoms: C_2  and  O_3
REMARK    3  A    between atoms: O_3  and  C_4
REMARK    4  A    between atoms: C_6  and  C_7
REMARK    5  A    between atoms: C_7  and  N_8
REMARK    6  A    between atoms: N_8  and  C_9
REMARK    7  A    between atoms: C_9  and  C_10
REMARK    8  A    between atoms: C_10  and  C_11
REMARK    9  A    between atoms: C_14  and  S_15
REMARK   10  A    between atoms: S_15  and  N_16
REMARK   11  A    between atoms: C_23  and  O_24
REMARK   12  A    between atoms: O_24  and  C_25
REMARK   13  A    between atoms: C_25  and  C_26
REMARK   14  A    between atoms: N_28  and  C_29
REMARK   15  A    between atoms: C_29  and  C_30
REMARK   16  A    between atoms: C_29  and  C_31
REMARK   17  A    between atoms: C_29  and  C_32
REMARK                            x       y       z     vdW  Elec       q    Type
REMARK                         _______ _______ _______ _____ _____    ______ ____
ROOT
ATOM      1  C   UNL     1       1.825   7.667  20.326  0.00  0.00    +0.000 A 
ATOM      2  C   UNL     1       1.454   6.409  20.847  0.00  0.00    +0.000 A 
ATOM      3  C   UNL     1       1.529   5.254  20.057  0.00  0.00    +0.000 A 
ATOM      4  C   UNL     1       1.999   5.323  18.758  0.00  0.00    +0.000 A 
ATOM      5  C   UNL     1       2.374   6.535  18.232  0.00  0.00    +0.000 A 
ATOM      6  C   UNL     1       2.279   7.736  18.983  0.00  0.00    +0.000 A 
ENDROOT
BRANCH   1   7
ATOM      7  O   UNL     1       1.715   8.807  21.076  0.00  0.00    +0.000 OA
BRANCH   7   9
ATOM      8  C   UNL     1      -0.266   9.409  22.360  0.00  0.00    +0.000 C 
ATOM      9  C   UNL     1       1.188   8.921  22.359  0.00  0.00    +0.000 C 
ENDBRANCH   7   9
ENDBRANCH   1   7
BRANCH   3  10
ATOM     10  C   UNL     1       1.117   3.940  20.606  0.00  0.00    +0.000 C 
BRANCH  10  11
ATOM     11  N   UNL     1       2.190   2.959  20.413  0.00  0.00    +0.000 NA
ATOM     12  H   UNL     1       2.239   2.347  21.264  0.00  0.00    +0.000 HD
BRANCH  11  13
ATOM     13  C   UNL     1       1.910   2.094  19.268  0.00  0.00    +0.000 C 
BRANCH  13  14
ATOM     14  C   UNL     1       3.205   1.548  18.635  0.00  0.00    +0.000 C 
BRANCH  14  15
ATOM     15  C   UNL     1       4.090   2.680  18.242  0.00  0.00    +0.000 A 
ATOM     16  C   UNL     1       4.890   3.299  19.213  0.00  0.00    +0.000 A 
ATOM     17  C   UNL     1       5.693   4.382  18.869  0.00  0.00    +0.000 A 
ATOM     18  C   UNL     1       5.710   4.845  17.552  0.00  0.00    +0.000 A 
ATOM     19  C   UNL     1       4.936   4.212  16.572  0.00  0.00    +0.000 A 
ATOM     20  C   UNL     1       4.124   3.131  16.915  0.00  0.00    +0.000 A 
BRANCH  18  21
ATOM     21  S   UNL     1       6.721   6.256  17.151  0.00  0.00    +0.000 S 
ATOM     22  O   UNL     1       7.568   6.074  15.883  0.00  0.00    +0.000 OA
ATOM     23  O   UNL     1       5.877   7.492  16.802  0.00  0.00    +0.000 OA
BRANCH  21  24
ATOM     24  N   UNL     1       7.845   6.804  18.394  0.00  0.00    +0.000 NA
ATOM     25  H   UNL     1       7.295   7.366  19.082  0.00  0.00    +0.000 HD
ATOM     26  H   UNL     1       8.530   7.444  17.932  0.00  0.00    +0.000 HD
ENDBRANCH  21  24
ENDBRANCH  18  21
ENDBRANCH  14  15
ENDBRANCH  13  14
ENDBRANCH  11  13
ENDBRANCH  10  11
ENDBRANCH   3  10
BRANCH   6  27
ATOM     27  O   UNL     1       2.576   8.936  18.394  0.00  0.00    +0.000 OA
BRANCH  27  28
ATOM     28  C   UNL     1       1.573   9.657  17.756  0.00  0.00    +0.000 C 
BRANCH  28  29
ATOM     29  C   UNL     1       1.056  10.855  18.470  0.00  0.00    +0.000 C 
ATOM     30  O   UNL     1       0.038  10.805  19.144  0.00  0.00    +0.000 OA
ATOM     31  N   UNL     1       1.762  12.014  18.301  0.00  0.00    +0.000 N 
ATOM     32  H   UNL     1       2.592  11.965  17.685  0.00  0.00    +0.000 HD
BRANCH  31  33
ATOM     33  C   UNL     1       1.441  13.319  18.872  0.00  0.00    +0.000 C 
ATOM     34  C   UNL     1      -0.008  13.694  18.521  0.00  0.00    +0.000 C 
ATOM     35  C   UNL     1       1.576  13.230  20.411  0.00  0.00    +0.000 C 
ATOM     36  C   UNL     1       2.423  14.392  18.366  0.00  0.00    +0.000 C 
ENDBRANCH  31  33
ENDBRANCH  28  29
ENDBRANCH  27  28
ENDBRANCH   6  27
TORSDOF 13
ENDMDL
MODEL 8
REMARK VINA RESULT:      -6.8      1.644      3.021
REMARK  Name = 
REMARK  17 active torsions:
REMARK  status: ('A' for Active; 'I' for Inactive)
REMARK    1  A    between atoms: C_1  and  C_2
REMARK    2  A    between atoms: C_2  and  O_3
REMARK    3  A    between atoms: O_3  and  C_4
REMARK    4  A    between atoms: C_6  and  C_7
REMARK    5  A    between atoms: C_7  and  N_8
REMARK    6  A    between atoms: N_8  and  C_9
REMARK    7  A    between atoms: C_9  and  C_10
REMARK    8  A    between atoms: C_10  and  C_11
REMARK    9  A    between atoms: C_14  and  S_15
REMARK   10  A    between atoms: S_15  and  N_16
REMARK   11  A    between atoms: C_23  and  O_24
REMARK   12  A    between atoms: O_24  and  C_25
REMARK   13  A    between atoms: C_25  and  C_26
REMARK   14  A    between atoms: N_28  and  C_29
REMARK   15  A    between atoms: C_29  and  C_30
REMARK   16  A    between atoms: C_29  and  C_31
REMARK   17  A    between atoms: C_29  and  C_32
REMARK                            x       y       z     vdW  Elec       q    Type
REMARK                         _______ _______ _______ _____ _____    ______ ____
ROOT
ATOM      1  C   UNL     1       2.387   7.704  18.522  0.00  0.00    +0.000 A 
ATOM      2  C   UNL     1       2.429   6.464  19.194  0.00  0.00    +0.000 A 
ATOM      3  C   UNL     1       1.769   6.287  20.418  0.00  0.00    +0.000 A 
ATOM      4  C   UNL     1       1.038   7.321  20.975  0.00  0.00    +0.000 A 
ATOM      5  C   UNL     1       0.977   8.535  20.336  0.00  0.00    +0.000 A 
ATOM      6  C   UNL     1       1.660   8.770  19.114  0.00  0.00    +0.000 A 
ENDROOT
BRANCH   1   7
ATOM      7  O   UNL     1       3.063   7.899  17.348  0.00  0.00    +0.000 OA
BRANCH   7   9
ATOM      8  C   UNL     1       4.599   7.071  15.648  0.00  0.00    +0.000 C 
ATOM      9  C   UNL     1       4.390   7.580  17.079  0.00  0.00    +0.000 C 
ENDBRANCH   7   9
ENDBRANCH   1   7
BRANCH   3  10
ATOM     10  C   UNL     1       1.836   4.987  21.126  0.00  0.00    +0.000 C 
BRANCH  10  11
ATOM     11  N   UNL     1       0.976   4.007  20.455  0.00  0.00    +0.000 NA
ATOM     12  H   UNL     1       0.846   4.305  19.458  0.00  0.00    +0.000 HD
BRANCH  11  13
ATOM     13  C   UNL     1       1.601   2.685  20.438  0.00  0.00    +0.000 C 
BRANCH  13  14
ATOM     14  C   UNL     1       1.981   2.252  19.009  0.00  0.00    +0.000 C 
BRANCH  14  15
ATOM     15  C   UNL     1       3.253   2.914  18.602  0.00  0.00    +0.000 A 
ATOM     16  C   UNL     1       3.452   3.262  17.259  0.00  0.00    +0.000 A 
ATOM     17  C   UNL     1       4.649   3.845  16.858  0.00  0.00    +0.000 A 
ATOM     18  C   UNL     1       5.650   4.095  17.799  0.00  0.00    +0.000 A 
ATOM     19  C   UNL     1       5.446   3.777  19.147  0.00  0.00    +0.000 A 
ATOM     20  C   UNL     1       4.249   3.185  19.551  0.00  0.00    +0.000 A 
BRANCH  18  21
ATOM     21  S   UNL     1       7.186   4.810  17.248  0.00  0.00    +0.000 S 
ATOM     22  O   UNL     1       7.402   6.256  17.719  0.00  0.00    +0.000 OA
ATOM     23  O   UNL     1       8.405   4.090  17.843  0.00  0.00    +0.000 OA
BRANCH  21  24
ATOM     24  N   UNL     1       7.470   4.833  15.509  0.00  0.00    +0.000 NA
ATOM     25  H   UNL     1       8.497   4.709  15.361  0.00  0.00    +0.000 HD
ATOM     26  H   UNL     1       7.209   5.785  15.164  0.00  0.00    +0.000 HD
ENDBRANCH  21  24
ENDBRANCH  18  21
ENDBRANCH  14  15
ENDBRANCH  13  14
ENDBRANCH  11  13
ENDBRANCH  10  11
ENDBRANCH   3  10
BRANCH   6  27
ATOM     27  O   UNL     1       1.648  10.020  18.553  0.00  0.00    +0.000 OA
BRANCH  27  28
ATOM     28  C   UNL     1       1.016  11.065  19.217  0.00  0.00    +0.000 C 
BRANCH  28  29
ATOM     29  C   UNL     1      -0.277  11.532  18.648  0.00  0.00    +0.000 C 
ATOM     30  O   UNL     1      -0.525  12.722  18.525  0.00  0.00    +0.000 OA
ATOM     31  N   UNL     1      -1.176  10.560  18.306  0.00  0.00    +0.000 N 
ATOM     32  H   UNL     1      -0.888   9.581  18.478  0.00  0.00    +0.000 HD
BRANCH  31  33
ATOM     33  C   UNL     1      -2.513  10.767  17.758  0.00  0.00    +0.000 C 
ATOM     34  C   UNL     1      -2.406  11.319  16.327  0.00  0.00    +0.000 C 
ATOM     35  C   UNL     1      -3.244   9.404  17.715  0.00  0.00    +0.000 C 
ATOM     36  C   UNL     1      -3.328  11.719  18.653  0.00  0.00    +0.000 C 
ENDBRANCH  31  33
ENDBRANCH  28  29
ENDBRANCH  27  28
ENDBRANCH   6  27
TORSDOF 13
ENDMDL
MODEL 9
REMARK VINA RESULT:      -6.8      4.238      9.634
REMARK  Name = 
REMARK  17 active torsions:
REMARK  status: ('A' for Active; 'I' for Inactive)
REMARK    1  A    between atoms: C_1  and  C_2
REMARK    2  A    between atoms: C_2  and  O_3
REMARK    3  A    between atoms: O_3  and  C_4
REMARK    4  A    between atoms: C_6  and  C_7
REMARK    5  A    between atoms: C_7  and  N_8
REMARK    6  A    between atoms: N_8  and  C_9
REMARK    7  A    between atoms: C_9  and  C_10
REMARK    8  A    between atoms: C_10  and  C_11
REMARK    9  A    between atoms: C_14  and  S_15
REMARK   10  A    between atoms: S_15  and  N_16
REMARK   11  A    between atoms: C_23  and  O_24
REMARK   12  A    between atoms: O_24  and  C_25
REMARK   13  A    between atoms: C_25  and  C_26
REMARK   14  A    between atoms: N_28  and  C_29
REMARK   15  A    between atoms: C_29  and  C_30
REMARK   16  A    between atoms: C_29  and  C_31
REMARK   17  A    between atoms: C_29  and  C_32
REMARK                            x       y       z     vdW  Elec       q    Type
REMARK                         _______ _______ _______ _____ _____    ______ ____
ROOT
ATOM      1  C   UNL     1       4.692   4.943  18.802  0.00  0.00    +0.000 A 
ATOM      2  C   UNL     1       3.637   5.706  19.347  0.00  0.00    +0.000 A 
ATOM      3  C   UNL     1       3.166   6.852  18.690  0.00  0.00    +0.000 A 
ATOM      4  C   UNL     1       3.709   7.238  17.478  0.00  0.00    +0.000 A 
ATOM      5  C   UNL     1       4.731   6.505  16.924  0.00  0.00    +0.000 A 
ATOM      6  C   UNL     1       5.264   5.360  17.572  0.00  0.00    +0.000 A 
ENDROOT
BRANCH   1   7
ATOM      7  O   UNL     1       5.187   3.847  19.456  0.00  0.00    +0.000 OA
BRANCH   7   9
ATOM      8  C   UNL     1       3.481   2.400  18.490  0.00  0.00    +0.000 C 
ATOM      9  C   UNL     1       4.653   2.562  19.466  0.00  0.00    +0.000 C 
ENDBRANCH   7   9
ENDBRANCH   1   7
BRANCH   3  10
ATOM     10  C   UNL     1       2.073   7.660  19.280  0.00  0.00    +0.000 C 
BRANCH  10  11
ATOM     11  N   UNL     1       1.985   7.406  20.722  0.00  0.00    +0.000 NA
ATOM     12  H   UNL     1       2.953   7.444  21.127  0.00  0.00    +0.000 HD
BRANCH  11  13
ATOM     13  C   UNL     1       1.192   8.437  21.389  0.00  0.00    +0.000 C 
BRANCH  13  14
ATOM     14  C   UNL     1       0.721   9.523  20.402  0.00  0.00    +0.000 C 
BRANCH  14  15
ATOM     15  C   UNL     1       0.081  10.642  21.150  0.00  0.00    +0.000 A 
ATOM     16  C   UNL     1       0.193  11.951  20.662  0.00  0.00    +0.000 A 
ATOM     17  C   UNL     1      -0.366  13.011  21.369  0.00  0.00    +0.000 A 
ATOM     18  C   UNL     1      -1.049  12.767  22.562  0.00  0.00    +0.000 A 
ATOM     19  C   UNL     1      -1.190  11.458  23.040  0.00  0.00    +0.000 A 
ATOM     20  C   UNL     1      -0.624  10.394  22.336  0.00  0.00    +0.000 A 
BRANCH  18  21
ATOM     21  S   UNL     1      -1.722  14.148  23.464  0.00  0.00    +0.000 S 
ATOM     22  O   UNL     1      -0.788  14.693  24.554  0.00  0.00    +0.000 OA
ATOM     23  O   UNL     1      -1.928  15.379  22.568  0.00  0.00    +0.000 OA
BRANCH  21  24
ATOM     24  N   UNL     1      -3.275  13.894  24.258  0.00  0.00    +0.000 NA
ATOM     25  H   UNL     1      -4.001  14.374  23.680  0.00  0.00    +0.000 HD
ATOM     26  H   UNL     1      -3.232  14.377  25.184  0.00  0.00    +0.000 HD
ENDBRANCH  21  24
ENDBRANCH  18  21
ENDBRANCH  14  15
ENDBRANCH  13  14
ENDBRANCH  11  13
ENDBRANCH  10  11
ENDBRANCH   3  10
BRANCH   6  27
ATOM     27  O   UNL     1       6.342   4.710  17.033  0.00  0.00    +0.000 OA
BRANCH  27  28
ATOM     28  C   UNL     1       6.141   3.724  16.073  0.00  0.00    +0.000 C 
BRANCH  28  29
ATOM     29  C   UNL     1       6.342   4.124  14.654  0.00  0.00    +0.000 C 
ATOM     30  O   UNL     1       6.683   5.259  14.355  0.00  0.00    +0.000 OA
ATOM     31  N   UNL     1       6.092   3.165  13.712  0.00  0.00    +0.000 N 
ATOM     32  H   UNL     1       5.775   2.244  14.061  0.00  0.00    +0.000 HD
BRANCH  31  33
ATOM     33  C   UNL     1       6.190   3.322  12.264  0.00  0.00    +0.000 C 
ATOM     34  C   UNL     1       6.662   2.003  11.631  0.00  0.00    +0.000 C 
ATOM     35  C   UNL     1       4.788   3.668  11.710  0.00  0.00    +0.000 C 
ATOM     36  C   UNL     1       7.145   4.475  11.904  0.00  0.00    +0.000 C 
ENDBRANCH  31  33
ENDBRANCH  28  29
ENDBRANCH  27  28
ENDBRANCH   6  27
TORSDOF 13
ENDMDL
