MODEL 1
REMARK VINA RESULT:      -8.0      0.000      0.000
REMARK  Name = 
REMARK  9 active torsions:
REMARK  status: ('A' for Active; 'I' for Inactive)
REMARK    1  A    between atoms: C_1  and  C_2
REMARK    2  A    between atoms: C_2  and  C_3
REMARK    3  A    between atoms: C_3  and  C_4
REMARK    4  A    between atoms: C_4  and  C_5
REMARK    5  A    between atoms: C_5  and  C_6
REMARK    6  A    between atoms: C_6  and  O_8
REMARK    7  A    between atoms: O_8  and  C_9
REMARK    8  A    between atoms: C_9  and  C_10
REMARK    9  A    between atoms: C_13  and  C_14
REMARK                            x       y       z     vdW  Elec       q    Type
REMARK                         _______ _______ _______ _____ _____    ______ ____
ROOT
ATOM      1  C   UNL     1       6.714   5.815  18.033  0.00  0.00    +0.000 C 
ATOM      2  C   UNL     1       5.498   6.582  17.472  0.00  0.00    +0.000 C 
ATOM      3  C   UNL     1       4.354   5.593  17.568  0.00  0.00    +0.000 C 
ATOM      4  C   UNL     1       4.698   4.804  18.797  0.00  0.00    +0.000 C 
ATOM      5  O   UNL     1       5.657   3.771  18.580  0.00  0.00    +0.000 OA
ATOM      6  N   UNL     1       6.129   5.007  19.172  0.00  0.00    +0.000 NA
ENDROOT
BRANCH   4   7
ATOM      7  C   UNL     1       3.558   4.469  19.704  0.00  0.00    +0.000 A 
ATOM      8  C   UNL     1       3.351   3.113  20.041  0.00  0.00    +0.000 A 
ATOM      9  C   UNL     1       2.150   2.662  20.583  0.00  0.00    +0.000 A 
ATOM     10  C   UNL     1       1.136   3.573  20.848  0.00  0.00    +0.000 A 
ATOM     11  C   UNL     1       1.348   4.933  20.621  0.00  0.00    +0.000 A 
ATOM     12  C   UNL     1       2.553   5.378  20.060  0.00  0.00    +0.000 A 
ENDBRANCH   4   7
BRANCH   1  13
ATOM     13  C   UNL     1       7.291   4.899  16.916  0.00  0.00    +0.000 C 
ATOM     14  O   UNL     1       8.238   4.122  17.072  0.00  0.00    +0.000 OA
BRANCH  13  15
ATOM     15  O   UNL     1       6.626   5.057  15.734  0.00  0.00    +0.000 OA
BRANCH  15  16
ATOM     16  C   UNL     1       6.191   3.848  15.100  0.00  0.00    +0.000 C 
ATOM     17  C   UNL     1       6.269   3.977  13.588  0.00  0.00    +0.000 C 
ENDBRANCH  15  16
ENDBRANCH  13  15
ENDBRANCH   1  13
BRANCH   1  18
ATOM     18  C   UNL     1       7.846   6.795  18.437  0.00  0.00    +0.000 C 
BRANCH  18  19
ATOM     19  C   UNL     1       7.847   8.175  17.776  0.00  0.00    +0.000 C 
BRANCH  19  21
ATOM     20  C   UNL     1       8.669  10.549  17.940  0.00  0.00    +0.000 C 
ATOM     21  C   UNL     1       8.683   9.173  18.584  0.00  0.00    +0.000 C 
ENDBRANCH  19  21
ENDBRANCH  18  19
ENDBRANCH   1  18
TORSDOF 7
ENDMDL
MODEL 2
REMARK VINA RESULT:      -7.9      0.681      1.242
REMARK  Name = 
REMARK  9 active torsions:
REMARK  status: ('A' for Active; 'I' for Inactive)
REMARK    1  A    between atoms: C_1  and  C_2
REMARK    2  A    between atoms: C_2  and  C_3
REMARK    3  A    between atoms: C_3  and  C_4
REMARK    4  A    between atoms: C_4  and  C_5
REMARK    5  A    between atoms: C_5  and  C_6
REMARK    6  A    between atoms: C_6  and  O_8
REMARK    7  A    between atoms: O_8  and  C_9
REMARK    8  A    between atoms: C_9  and  C_10
REMARK    9  A    between atoms: C_13  and  C_14
REMARK                            x       y       z     vdW  Elec       q    Type
REMARK                         _______ _______ _______ _____ _____    ______ ____
ROOT
ATOM      1  C   UNL     1       6.712   6.064  17.754  0.00  0.00    +0.000 C 
ATOM      2  C   UNL     1       5.603   6.929  17.117  0.00  0.00    +0.000 C 
ATOM      3  C   UNL     1       4.425   5.987  16.980  0.00  0.00    +0.000 C 
ATOM      4  C   UNL     1       4.582   5.081  18.166  0.00  0.00    +0.000 C 
ATOM      5  O   UNL     1       5.528   4.029  17.979  0.00  0.00    +0.000 OA
ATOM      6  N   UNL     1       5.959   5.189  18.734  0.00  0.00    +0.000 NA
ENDROOT
BRANCH   4   7
ATOM      7  C   UNL     1       3.325   4.720  18.889  0.00  0.00    +0.000 A 
ATOM      8  C   UNL     1       2.633   5.743  19.574  0.00  0.00    +0.000 A 
ATOM      9  C   UNL     1       1.668   5.464  20.539  0.00  0.00    +0.000 A 
ATOM     10  C   UNL     1       1.335   4.143  20.809  0.00  0.00    +0.000 A 
ATOM     11  C   UNL     1       1.929   3.114  20.077  0.00  0.00    +0.000 A 
ATOM     12  C   UNL     1       2.911   3.401  19.120  0.00  0.00    +0.000 A 
ENDBRANCH   4   7
BRANCH   1  13
ATOM     13  C   UNL     1       7.397   5.223  16.640  0.00  0.00    +0.000 C 
ATOM     14  O   UNL     1       8.071   4.210  16.848  0.00  0.00    +0.000 OA
BRANCH  13  15
ATOM     15  O   UNL     1       7.169   5.741  15.398  0.00  0.00    +0.000 OA
BRANCH  15  16
ATOM     16  C   UNL     1       7.139   4.791  14.325  0.00  0.00    +0.000 C 
ATOM     17  C   UNL     1       5.729   4.267  14.112  0.00  0.00    +0.000 C 
ENDBRANCH  15  16
ENDBRANCH  13  15
ENDBRANCH   1  13
BRANCH   1  18
ATOM     18  C   UNL     1       7.814   6.956  18.384  0.00  0.00    +0.000 C 
BRANCH  18  19
ATOM     19  C   UNL     1       7.996   8.359  17.802  0.00  0.00    +0.000 C 
BRANCH  19  21
ATOM     20  C   UNL     1       9.071  10.611  18.142  0.00  0.00    +0.000 C 
ATOM     21  C   UNL     1       8.758   9.265  18.775  0.00  0.00    +0.000 C 
ENDBRANCH  19  21
ENDBRANCH  18  19
ENDBRANCH   1  18
TORSDOF 7
ENDMDL
MODEL 3
REMARK VINA RESULT:      -7.6      1.278      1.852
REMARK  Name = 
REMARK  9 active torsions:
REMARK  status: ('A' for Active; 'I' for Inactive)
REMARK    1  A    between atoms: C_1  and  C_2
REMARK    2  A    between atoms: C_2  and  C_3
REMARK    3  A    between atoms: C_3  and  C_4
REMARK    4  A    between atoms: C_4  and  C_5
REMARK    5  A    between atoms: C_5  and  C_6
REMARK    6  A    between atoms: C_6  and  O_8
REMARK    7  A    between atoms: O_8  and  C_9
REMARK    8  A    between atoms: C_9  and  C_10
REMARK    9  A    between atoms: C_13  and  C_14
REMARK                            x       y       z     vdW  Elec       q    Type
REMARK                         _______ _______ _______ _____ _____    ______ ____
ROOT
ATOM      1  C   UNL     1       5.872   5.386  17.197  0.00  0.00    +0.000 C 
ATOM      2  C   UNL     1       4.987   6.495  17.807  0.00  0.00    +0.000 C 
ATOM      3  C   UNL     1       3.605   5.878  17.872  0.00  0.00    +0.000 C 
ATOM      4  C   UNL     1       3.898   4.428  18.123  0.00  0.00    +0.000 C 
ATOM      5  O   UNL     1       4.243   3.689  16.953  0.00  0.00    +0.000 OA
ATOM      6  N   UNL     1       5.326   4.116  17.816  0.00  0.00    +0.000 NA
ENDROOT
BRANCH   4   7
ATOM      7  C   UNL     1       3.006   3.737  19.104  0.00  0.00    +0.000 A 
ATOM      8  C   UNL     1       1.631   4.058  19.094  0.00  0.00    +0.000 A 
ATOM      9  C   UNL     1       0.791   3.741  20.160  0.00  0.00    +0.000 A 
ATOM     10  C   UNL     1       1.302   3.047  21.248  0.00  0.00    +0.000 A 
ATOM     11  C   UNL     1       2.633   2.627  21.241  0.00  0.00    +0.000 A 
ATOM     12  C   UNL     1       3.477   2.964  20.173  0.00  0.00    +0.000 A 
ENDBRANCH   4   7
BRANCH   1  13
ATOM     13  C   UNL     1       5.696   5.394  15.652  0.00  0.00    +0.000 C 
ATOM     14  O   UNL     1       5.211   6.331  15.012  0.00  0.00    +0.000 OA
BRANCH  13  15
ATOM     15  O   UNL     1       6.141   4.236  15.083  0.00  0.00    +0.000 OA
BRANCH  15  16
ATOM     16  C   UNL     1       6.746   4.371  13.791  0.00  0.00    +0.000 C 
ATOM     17  C   UNL     1       6.012   3.527  12.763  0.00  0.00    +0.000 C 
ENDBRANCH  15  16
ENDBRANCH  13  15
ENDBRANCH   1  13
BRANCH   1  18
ATOM     18  C   UNL     1       7.372   5.659  17.478  0.00  0.00    +0.000 C 
BRANCH  18  19
ATOM     19  C   UNL     1       7.712   6.875  18.343  0.00  0.00    +0.000 C 
BRANCH  19  21
ATOM     20  C   UNL     1       8.478   9.273  18.279  0.00  0.00    +0.000 C 
ATOM     21  C   UNL     1       7.841   8.141  17.490  0.00  0.00    +0.000 C 
ENDBRANCH  19  21
ENDBRANCH  18  19
ENDBRANCH   1  18
TORSDOF 7
ENDMDL
MODEL 4
REMARK VINA RESULT:      -7.5      1.347      1.875
REMARK  Name = 
REMARK  9 active torsions:
REMARK  status: ('A' for Active; 'I' for Inactive)
REMARK    1  A    between atoms: C_1  and  C_2
REMARK    2  A    between atoms: C_2  and  C_3
REMARK    3  A    between atoms: C_3  and  C_4
REMARK    4  A    between atoms: C_4  and  C_5
REMARK    5  A    between atoms: C_5  and  C_6
REMARK    6  A    between atoms: C_6  and  O_8
REMARK    7  A    between atoms: O_8  and  C_9
REMARK    8  A    between atoms: C_9  and  C_10
REMARK    9  A    between atoms: C_13  and  C_14
REMARK                            x       y       z     vdW  Elec       q    Type
REMARK                         _______ _______ _______ _____ _____    ______ ____
ROOT
ATOM      1  C   UNL     1       5.770   5.644  17.175  0.00  0.00    +0.000 C 
ATOM      2  C   UNL     1       5.034   6.868  17.763  0.00  0.00    +0.000 C 
ATOM      3  C   UNL     1       3.570   6.479  17.723  0.00  0.00    +0.000 C 
ATOM      4  C   UNL     1       3.613   4.996  17.947  0.00  0.00    +0.000 C 
ATOM      5  O   UNL     1       3.913   4.235  16.778  0.00  0.00    +0.000 OA
ATOM      6  N   UNL     1       4.991   4.466  17.720  0.00  0.00    +0.000 NA
ENDROOT
BRANCH   4   7
ATOM      7  C   UNL     1       2.560   4.436  18.849  0.00  0.00    +0.000 A 
ATOM      8  C   UNL     1       2.655   4.708  20.232  0.00  0.00    +0.000 A 
ATOM      9  C   UNL     1       1.944   3.974  21.179  0.00  0.00    +0.000 A 
ATOM     10  C   UNL     1       1.080   2.973  20.758  0.00  0.00    +0.000 A 
ATOM     11  C   UNL     1       0.888   2.748  19.393  0.00  0.00    +0.000 A 
ATOM     12  C   UNL     1       1.618   3.480  18.446  0.00  0.00    +0.000 A 
ENDBRANCH   4   7
BRANCH   1  13
ATOM     13  C   UNL     1       5.700   5.712  15.623  0.00  0.00    +0.000 C 
ATOM     14  O   UNL     1       5.171   6.630  14.989  0.00  0.00    +0.000 OA
BRANCH  13  15
ATOM     15  O   UNL     1       6.294   4.631  15.039  0.00  0.00    +0.000 OA
BRANCH  15  16
ATOM     16  C   UNL     1       5.603   4.075  13.913  0.00  0.00    +0.000 C 
ATOM     17  C   UNL     1       6.571   3.784  12.779  0.00  0.00    +0.000 C 
ENDBRANCH  15  16
ENDBRANCH  13  15
ENDBRANCH   1  13
BRANCH   1  18
ATOM     18  C   UNL     1       7.273   5.669  17.556  0.00  0.00    +0.000 C 
BRANCH  18  19
ATOM     19  C   UNL     1       7.773   6.873  18.357  0.00  0.00    +0.000 C 
BRANCH  19  21
ATOM     20  C   UNL     1       8.462   9.292  18.247  0.00  0.00    +0.000 C 
ATOM     21  C   UNL     1       7.934   8.104  17.460  0.00  0.00    +0.000 C 
ENDBRANCH  19  21
ENDBRANCH  18  19
ENDBRANCH   1  18
TORSDOF 7
ENDMDL
MODEL 5
REMARK VINA RESULT:      -7.4      1.528      4.190
REMARK  Name = 
REMARK  9 active torsions:
REMARK  status: ('A' for Active; 'I' for Inactive)
REMARK    1  A    between atoms: C_1  and  C_2
REMARK    2  A    between atoms: C_2  and  C_3
REMARK    3  A    between atoms: C_3  and  C_4
REMARK    4  A    between atoms: C_4  and  C_5
REMARK    5  A    between atoms: C_5  and  C_6
REMARK    6  A    between atoms: C_6  and  O_8
REMARK    7  A    between atoms: O_8  and  C_9
REMARK    8  A    between atoms: C_9  and  C_10
REMARK    9  A    between atoms: C_13  and  C_14
REMARK                            x       y       z     vdW  Elec       q    Type
REMARK                         _______ _______ _______ _____ _____    ______ ____
ROOT
ATOM      1  C   UNL     1       5.734   5.025  16.199  0.00  0.00    +0.000 C 
ATOM      2  C   UNL     1       5.559   3.510  16.438  0.00  0.00    +0.000 C 
ATOM      3  C   UNL     1       4.996   3.415  17.842  0.00  0.00    +0.000 C 
ATOM      4  C   UNL     1       4.166   4.660  17.953  0.00  0.00    +0.000 C 
ATOM      5  O   UNL     1       4.911   5.836  18.263  0.00  0.00    +0.000 OA
ATOM      6  N   UNL     1       4.526   5.634  16.880  0.00  0.00    +0.000 NA
ENDROOT
BRANCH   4   7
ATOM      7  C   UNL     1       2.847   4.512  18.642  0.00  0.00    +0.000 A 
ATOM      8  C   UNL     1       2.648   5.206  19.856  0.00  0.00    +0.000 A 
ATOM      9  C   UNL     1       1.617   4.878  20.733  0.00  0.00    +0.000 A 
ATOM     10  C   UNL     1       0.724   3.872  20.391  0.00  0.00    +0.000 A 
ATOM     11  C   UNL     1       0.834   3.237  19.153  0.00  0.00    +0.000 A 
ATOM     12  C   UNL     1       1.884   3.560  18.283  0.00  0.00    +0.000 A 
ENDBRANCH   4   7
BRANCH   1  13
ATOM     13  C   UNL     1       7.063   5.490  16.861  0.00  0.00    +0.000 C 
ATOM     14  O   UNL     1       7.892   4.728  17.367  0.00  0.00    +0.000 OA
BRANCH  13  15
ATOM     15  O   UNL     1       7.205   6.847  16.820  0.00  0.00    +0.000 OA
BRANCH  15  16
ATOM     16  C   UNL     1       7.892   7.433  17.932  0.00  0.00    +0.000 C 
ATOM     17  C   UNL     1       8.075   8.927  17.723  0.00  0.00    +0.000 C 
ENDBRANCH  15  16
ENDBRANCH  13  15
ENDBRANCH   1  13
BRANCH   1  18
ATOM     18  C   UNL     1       5.858   5.334  14.684  0.00  0.00    +0.000 C 
BRANCH  18  19
ATOM     19  C   UNL     1       6.370   4.211  13.780  0.00  0.00    +0.000 C 
BRANCH  19  21
ATOM     20  C   UNL     1       5.830   2.719  11.825  0.00  0.00    +0.000 C 
ATOM     21  C   UNL     1       5.295   3.774  12.780  0.00  0.00    +0.000 C 
ENDBRANCH  19  21
ENDBRANCH  18  19
ENDBRANCH   1  18
TORSDOF 7
ENDMDL
MODEL 6
REMARK VINA RESULT:      -7.4      1.636      4.275
REMARK  Name = 
REMARK  9 active torsions:
REMARK  status: ('A' for Active; 'I' for Inactive)
REMARK    1  A    between atoms: C_1  and  C_2
REMARK    2  A    between atoms: C_2  and  C_3
REMARK    3  A    between atoms: C_3  and  C_4
REMARK    4  A    between atoms: C_4  and  C_5
REMARK    5  A    between atoms: C_5  and  C_6
REMARK    6  A    between atoms: C_6  and  O_8
REMARK    7  A    between atoms: O_8  and  C_9
REMARK    8  A    between atoms: C_9  and  C_10
REMARK    9  A    between atoms: C_13  and  C_14
REMARK                            x       y       z     vdW  Elec       q    Type
REMARK                         _______ _______ _______ _____ _____    ______ ____
ROOT
ATOM      1  C   UNL     1       5.718   4.608  16.423  0.00  0.00    +0.000 C 
ATOM      2  C   UNL     1       6.493   4.157  17.680  0.00  0.00    +0.000 C 
ATOM      3  C   UNL     1       5.612   4.583  18.836  0.00  0.00    +0.000 C 
ATOM      4  C   UNL     1       4.229   4.437  18.274  0.00  0.00    +0.000 C 
ATOM      5  O   UNL     1       3.807   5.533  17.464  0.00  0.00    +0.000 OA
ATOM      6  N   UNL     1       4.272   4.340  16.784  0.00  0.00    +0.000 NA
ENDROOT
BRANCH   4   7
ATOM      7  C   UNL     1       3.202   3.859  19.194  0.00  0.00    +0.000 A 
ATOM      8  C   UNL     1       1.941   4.491  19.265  0.00  0.00    +0.000 A 
ATOM      9  C   UNL     1       1.053   4.252  20.311  0.00  0.00    +0.000 A 
ATOM     10  C   UNL     1       1.390   3.332  21.295  0.00  0.00    +0.000 A 
ATOM     11  C   UNL     1       2.584   2.618  21.198  0.00  0.00    +0.000 A 
ATOM     12  C   UNL     1       3.481   2.875  20.151  0.00  0.00    +0.000 A 
ENDBRANCH   4   7
BRANCH   1  13
ATOM     13  C   UNL     1       5.981   6.122  16.185  0.00  0.00    +0.000 C 
ATOM     14  O   UNL     1       5.132   6.920  15.778  0.00  0.00    +0.000 OA
BRANCH  13  15
ATOM     15  O   UNL     1       7.269   6.467  16.476  0.00  0.00    +0.000 OA
BRANCH  15  16
ATOM     16  C   UNL     1       7.431   7.651  17.266  0.00  0.00    +0.000 C 
ATOM     17  C   UNL     1       8.186   7.342  18.548  0.00  0.00    +0.000 C 
ENDBRANCH  15  16
ENDBRANCH  13  15
ENDBRANCH   1  13
BRANCH   1  18
ATOM     18  C   UNL     1       6.228   3.861  15.163  0.00  0.00    +0.000 C 
BRANCH  18  19
ATOM     19  C   UNL     1       5.715   4.347  13.806  0.00  0.00    +0.000 C 
BRANCH  19  21
ATOM     20  C   UNL     1       4.888   3.169  11.739  0.00  0.00    +0.000 C 
ATOM     21  C   UNL     1       6.055   3.346  12.697  0.00  0.00    +0.000 C 
ENDBRANCH  19  21
ENDBRANCH  18  19
ENDBRANCH   1  18
TORSDOF 7
ENDMDL
MODEL 7
REMARK VINA RESULT:      -7.4      0.819      1.369
REMARK  Name = 
REMARK  9 active torsions:
REMARK  status: ('A' for Active; 'I' for Inactive)
REMARK    1  A    between atoms: C_1  and  C_2
REMARK    2  A    between atoms: C_2  and  C_3
REMARK    3  A    between atoms: C_3  and  C_4
REMARK    4  A    between atoms: C_4  and  C_5
REMARK    5  A    between atoms: C_5  and  C_6
REMARK    6  A    between atoms: C_6  and  O_8
REMARK    7  A    between atoms: O_8  and  C_9
REMARK    8  A    between atoms: C_9  and  C_10
REMARK    9  A    between atoms: C_13  and  C_14
REMARK                            x       y       z     vdW  Elec       q    Type
REMARK                         _______ _______ _______ _____ _____    ______ ____
ROOT
ATOM      1  C   UNL     1       5.927   6.084  17.464  0.00  0.00    +0.000 C 
ATOM      2  C   UNL     1       4.605   6.011  16.670  0.00  0.00    +0.000 C 
ATOM      3  C   UNL     1       4.022   4.661  17.036  0.00  0.00    +0.000 C 
ATOM      4  C   UNL     1       4.478   4.474  18.453  0.00  0.00    +0.000 C 
ATOM      5  O   UNL     1       5.818   4.001  18.580  0.00  0.00    +0.000 OA
ATOM      6  N   UNL     1       5.587   5.418  18.781  0.00  0.00    +0.000 NA
ENDROOT
BRANCH   4   7
ATOM      7  C   UNL     1       3.476   3.884  19.393  0.00  0.00    +0.000 A 
ATOM      8  C   UNL     1       2.271   4.587  19.609  0.00  0.00    +0.000 A 
ATOM      9  C   UNL     1       1.440   4.314  20.693  0.00  0.00    +0.000 A 
ATOM     10  C   UNL     1       1.776   3.290  21.568  0.00  0.00    +0.000 A 
ATOM     11  C   UNL     1       2.908   2.510  21.324  0.00  0.00    +0.000 A 
ATOM     12  C   UNL     1       3.748   2.802  20.240  0.00  0.00    +0.000 A 
ENDBRANCH   4   7
BRANCH   1  13
ATOM     13  C   UNL     1       7.024   5.299  16.689  0.00  0.00    +0.000 C 
ATOM     14  O   UNL     1       7.861   4.565  17.221  0.00  0.00    +0.000 OA
BRANCH  13  15
ATOM     15  O   UNL     1       6.953   5.520  15.344  0.00  0.00    +0.000 OA
BRANCH  15  16
ATOM     16  C   UNL     1       7.093   4.360  14.516  0.00  0.00    +0.000 C 
ATOM     17  C   UNL     1       5.795   4.063  13.784  0.00  0.00    +0.000 C 
ENDBRANCH  15  16
ENDBRANCH  13  15
ENDBRANCH   1  13
BRANCH   1  18
ATOM     18  C   UNL     1       6.422   7.549  17.579  0.00  0.00    +0.000 C 
BRANCH  18  19
ATOM     19  C   UNL     1       7.881   7.765  17.989  0.00  0.00    +0.000 C 
BRANCH  19  21
ATOM     20  C   UNL     1       9.093   9.690  19.069  0.00  0.00    +0.000 C 
ATOM     21  C   UNL     1       8.274   9.241  17.870  0.00  0.00    +0.000 C 
ENDBRANCH  19  21
ENDBRANCH  18  19
ENDBRANCH   1  18
TORSDOF 7
ENDMDL
MODEL 8
REMARK VINA RESULT:      -7.3      1.612      4.186
REMARK  Name = 
REMARK  9 active torsions:
REMARK  status: ('A' for Active; 'I' for Inactive)
REMARK    1  A    between atoms: C_1  and  C_2
REMARK    2  A    between atoms: C_2  and  C_3
REMARK    3  A    between atoms: C_3  and  C_4
REMARK    4  A    between atoms: C_4  and  C_5
REMARK    5  A    between atoms: C_5  and  C_6
REMARK    6  A    between atoms: C_6  and  O_8
REMARK    7  A    between atoms: O_8  and  C_9
REMARK    8  A    between atoms: C_9  and  C_10
REMARK    9  A    between atoms: C_13  and  C_14
REMARK                            x       y       z     vdW  Elec       q    Type
REMARK                         _______ _______ _______ _____ _____    ______ ____
ROOT
ATOM      1  C   UNL     1       5.812   4.703  16.387  0.00  0.00    +0.000 C 
ATOM      2  C   UNL     1       6.571   4.278  17.662  0.00  0.00    +0.000 C 
ATOM      3  C   UNL     1       5.699   4.770  18.799  0.00  0.00    +0.000 C 
ATOM      4  C   UNL     1       4.314   4.641  18.237  0.00  0.00    +0.000 C 
ATOM      5  O   UNL     1       3.924   5.718  17.387  0.00  0.00    +0.000 OA
ATOM      6  N   UNL     1       4.358   4.489  16.753  0.00  0.00    +0.000 NA
ENDROOT
BRANCH   4   7
ATOM      7  C   UNL     1       3.270   4.125  19.174  0.00  0.00    +0.000 A 
ATOM      8  C   UNL     1       2.838   2.789  19.021  0.00  0.00    +0.000 A 
ATOM      9  C   UNL     1       1.659   2.323  19.598  0.00  0.00    +0.000 A 
ATOM     10  C   UNL     1       0.902   3.178  20.388  0.00  0.00    +0.000 A 
ATOM     11  C   UNL     1       1.354   4.473  20.641  0.00  0.00    +0.000 A 
ATOM     12  C   UNL     1       2.533   4.941  20.044  0.00  0.00    +0.000 A 
ENDBRANCH   4   7
BRANCH   1  13
ATOM     13  C   UNL     1       6.117   6.200  16.094  0.00  0.00    +0.000 C 
ATOM     14  O   UNL     1       5.332   6.975  15.540  0.00  0.00    +0.000 OA
BRANCH  13  15
ATOM     15  O   UNL     1       7.363   6.558  16.522  0.00  0.00    +0.000 OA
BRANCH  15  16
ATOM     16  C   UNL     1       7.431   7.763  17.295  0.00  0.00    +0.000 C 
ATOM     17  C   UNL     1       8.262   7.550  18.549  0.00  0.00    +0.000 C 
ENDBRANCH  15  16
ENDBRANCH  13  15
ENDBRANCH   1  13
BRANCH   1  18
ATOM     18  C   UNL     1       6.304   3.897  15.157  0.00  0.00    +0.000 C 
BRANCH  18  19
ATOM     19  C   UNL     1       5.498   4.032  13.863  0.00  0.00    +0.000 C 
BRANCH  19  21
ATOM     20  C   UNL     1       5.526   2.687  11.735  0.00  0.00    +0.000 C 
ATOM     21  C   UNL     1       6.327   3.600  12.649  0.00  0.00    +0.000 C 
ENDBRANCH  19  21
ENDBRANCH  18  19
ENDBRANCH   1  18
TORSDOF 7
ENDMDL
MODEL 9
REMARK VINA RESULT:      -7.3      2.996      5.100
REMARK  Name = 
REMARK  9 active torsions:
REMARK  status: ('A' for Active; 'I' for Inactive)
REMARK    1  A    between atoms: C_1  and  C_2
REMARK    2  A    between atoms: C_2  and  C_3
REMARK    3  A    between atoms: C_3  and  C_4
REMARK    4  A    between atoms: C_4  and  C_5
REMARK    5  A    between atoms: C_5  and  C_6
REMARK    6  A    between atoms: C_6  and  O_8
REMARK    7  A    between atoms: O_8  and  C_9
REMARK    8  A    between atoms: C_9  and  C_10
REMARK    9  A    between atoms: C_13  and  C_14
REMARK                            x       y       z     vdW  Elec       q    Type
REMARK                         _______ _______ _______ _____ _____    ______ ____
ROOT
ATOM      1  C   UNL     1       3.952   4.461  17.721  0.00  0.00    +0.000 C 
ATOM      2  C   UNL     1       2.422   4.275  17.628  0.00  0.00    +0.000 C 
ATOM      3  C   UNL     1       1.870   5.165  18.723  0.00  0.00    +0.000 C 
ATOM      4  C   UNL     1       2.850   6.300  18.756  0.00  0.00    +0.000 C 
ATOM      5  O   UNL     1       4.041   6.025  19.492  0.00  0.00    +0.000 OA
ATOM      6  N   UNL     1       4.111   5.931  18.047  0.00  0.00    +0.000 NA
ENDROOT
BRANCH   4   7
ATOM      7  C   UNL     1       2.268   7.667  18.925  0.00  0.00    +0.000 A 
ATOM      8  C   UNL     1       1.764   8.023  20.196  0.00  0.00    +0.000 A 
ATOM      9  C   UNL     1       0.913   9.112  20.373  0.00  0.00    +0.000 A 
ATOM     10  C   UNL     1       0.581   9.904  19.283  0.00  0.00    +0.000 A 
ATOM     11  C   UNL     1       1.144   9.637  18.034  0.00  0.00    +0.000 A 
ATOM     12  C   UNL     1       1.987   8.531  17.859  0.00  0.00    +0.000 A 
ENDBRANCH   4   7
BRANCH   1  13
ATOM     13  C   UNL     1       4.502   3.556  18.860  0.00  0.00    +0.000 C 
ATOM     14  O   UNL     1       5.648   3.625  19.312  0.00  0.00    +0.000 OA
BRANCH  13  15
ATOM     15  O   UNL     1       3.564   2.668  19.302  0.00  0.00    +0.000 OA
BRANCH  15  16
ATOM     16  C   UNL     1       3.628   2.341  20.696  0.00  0.00    +0.000 C 
ATOM     17  C   UNL     1       2.374   2.809  21.415  0.00  0.00    +0.000 C 
ENDBRANCH  15  16
ENDBRANCH  13  15
ENDBRANCH   1  13
BRANCH   1  18
ATOM     18  C   UNL     1       4.644   4.002  16.411  0.00  0.00    +0.000 C 
BRANCH  18  19
ATOM     19  C   UNL     1       5.445   5.051  15.637  0.00  0.00    +0.000 C 
BRANCH  19  21
ATOM     20  C   UNL     1       6.157   3.843  13.546  0.00  0.00    +0.000 C 
ATOM     21  C   UNL     1       6.612   4.408  14.881  0.00  0.00    +0.000 C 
ENDBRANCH  19  21
ENDBRANCH  18  19
ENDBRANCH   1  18
TORSDOF 7
ENDMDL
