MODEL 1
REMARK VINA RESULT:      -8.4      0.000      0.000
REMARK  Name = 
REMARK  6 active torsions:
REMARK  status: ('A' for Active; 'I' for Inactive)
REMARK    1  A    between atoms: C_1  and  O_2
REMARK    2  A    between atoms: O_2  and  C_3
REMARK    3  A    between atoms: N_6  and  C_7
REMARK    4  A    between atoms: C_10  and  C_11
REMARK    5  A    between atoms: C_20  and  O_21
REMARK    6  A    between atoms: O_21  and  C_22
REMARK                            x       y       z     vdW  Elec       q    Type
REMARK                         _______ _______ _______ _____ _____    ______ ____
ROOT
ATOM      1  C   UNL     1       1.960   7.361  19.933  0.00  0.00    +0.000 A 
ATOM      2  C   UNL     1       2.183   8.354  18.964  0.00  0.00    +0.000 A 
ATOM      3  C   UNL     1       3.008   8.124  17.865  0.00  0.00    +0.000 A 
ATOM      4  C   UNL     1       3.558   6.864  17.641  0.00  0.00    +0.000 A 
ATOM      5  C   UNL     1       3.343   5.858  18.599  0.00  0.00    +0.000 A 
ATOM      6  C   UNL     1       2.574   6.112  19.744  0.00  0.00    +0.000 A 
ENDROOT
BRANCH   1  10
ATOM      7  C   UNL     1      -0.707  10.611  20.683  0.00  0.00    +0.000 A 
ATOM      8  N   UNL     1       0.102   9.579  20.387  0.00  0.00    +0.000 NA
ATOM      9  C   UNL     1       0.642   8.893  21.400  0.00  0.00    +0.000 A 
ATOM     10  N   UNL     1       1.285   7.688  21.121  0.00  0.00    +0.000 N 
ATOM     11  N   UNL     1       0.513   9.250  22.685  0.00  0.00    +0.000 NA
ATOM     12  C   UNL     1      -0.282  10.316  22.942  0.00  0.00    +0.000 A 
ATOM     13  C   UNL     1      -0.957  11.021  21.971  0.00  0.00    +0.000 A 
ATOM     14 BR   UNL     1      -2.175  12.378  22.431  0.00  0.00    +0.000 Br
ATOM     15  H   UNL     1       1.755   7.359  21.955  0.00  0.00    +0.000 HD
BRANCH   7  17
ATOM     16  C   UNL     1      -0.493  12.122  18.904  0.00  0.00    +0.000 C 
ATOM     17  O   UNL     1      -1.350  11.245  19.638  0.00  0.00    +0.000 OA
ENDBRANCH   7  17
ENDBRANCH   1  10
BRANCH   4  18
ATOM     18  C   UNL     1       4.515   6.600  16.532  0.00  0.00    +0.000 C 
ATOM     19  O   UNL     1       4.380   7.271  15.509  0.00  0.00    +0.000 OA
ATOM     20  N   UNL     1       5.512   5.626  16.638  0.00  0.00    +0.000 N 
ATOM     21  C   UNL     1       5.911   4.879  17.838  0.00  0.00    +0.000 C 
ATOM     22  C   UNL     1       7.432   4.710  17.925  0.00  0.00    +0.000 C 
ATOM     23  O   UNL     1       7.979   4.171  16.715  0.00  0.00    +0.000 OA
ATOM     24  C   UNL     1       7.686   5.041  15.610  0.00  0.00    +0.000 C 
ATOM     25  C   UNL     1       6.176   5.177  15.409  0.00  0.00    +0.000 C 
ENDBRANCH   4  18
BRANCH   6  26
ATOM     26  O   UNL     1       2.623   5.118  20.698  0.00  0.00    +0.000 OA
BRANCH  26  27
ATOM     27  C   UNL     1       1.494   4.219  20.832  0.00  0.00    +0.000 C 
ATOM     28  C   UNL     1       1.050   3.580  19.489  0.00  0.00    +0.000 C 
ATOM     29  C   UNL     1       1.558   2.216  19.961  0.00  0.00    +0.000 C 
ATOM     30  C   UNL     1       1.812   2.801  21.352  0.00  0.00    +0.000 C 
ENDBRANCH  26  27
ENDBRANCH   6  26
TORSDOF 5
ENDMDL
MODEL 2
REMARK VINA RESULT:      -8.3      3.224      7.924
REMARK  Name = 
REMARK  6 active torsions:
REMARK  status: ('A' for Active; 'I' for Inactive)
REMARK    1  A    between atoms: C_1  and  O_2
REMARK    2  A    between atoms: O_2  and  C_3
REMARK    3  A    between atoms: N_6  and  C_7
REMARK    4  A    between atoms: C_10  and  C_11
REMARK    5  A    between atoms: C_20  and  O_21
REMARK    6  A    between atoms: O_21  and  C_22
REMARK                            x       y       z     vdW  Elec       q    Type
REMARK                         _______ _______ _______ _____ _____    ______ ____
ROOT
ATOM      1  C   UNL     1       2.429   6.891  19.085  0.00  0.00    +0.000 A 
ATOM      2  C   UNL     1       2.382   8.068  18.318  0.00  0.00    +0.000 A 
ATOM      3  C   UNL     1       1.758   9.219  18.793  0.00  0.00    +0.000 A 
ATOM      4  C   UNL     1       1.248   9.269  20.089  0.00  0.00    +0.000 A 
ATOM      5  C   UNL     1       1.289   8.102  20.870  0.00  0.00    +0.000 A 
ATOM      6  C   UNL     1       1.850   6.920  20.365  0.00  0.00    +0.000 A 
ENDROOT
BRANCH   1  10
ATOM      7  C   UNL     1       5.810   6.293  16.545  0.00  0.00    +0.000 A 
ATOM      8  N   UNL     1       4.784   6.523  17.383  0.00  0.00    +0.000 NA
ATOM      9  C   UNL     1       3.828   5.591  17.475  0.00  0.00    +0.000 A 
ATOM     10  N   UNL     1       2.891   5.700  18.502  0.00  0.00    +0.000 N 
ATOM     11  N   UNL     1       3.780   4.503  16.696  0.00  0.00    +0.000 NA
ATOM     12  C   UNL     1       4.813   4.323  15.840  0.00  0.00    +0.000 A 
ATOM     13  C   UNL     1       5.889   5.177  15.746  0.00  0.00    +0.000 A 
ATOM     14 BR   UNL     1       7.363   4.761  14.654  0.00  0.00    +0.000 Br
ATOM     15  H   UNL     1       2.162   5.011  18.362  0.00  0.00    +0.000 HD
BRANCH   7  17
ATOM     16  C   UNL     1       7.575   7.237  17.764  0.00  0.00    +0.000 C 
ATOM     17  O   UNL     1       6.848   7.204  16.535  0.00  0.00    +0.000 OA
ENDBRANCH   7  17
ENDBRANCH   1  10
BRANCH   4  18
ATOM     18  C   UNL     1       0.496  10.445  20.602  0.00  0.00    +0.000 C 
ATOM     19  O   UNL     1       1.018  11.087  21.514  0.00  0.00    +0.000 OA
ATOM     20  N   UNL     1      -0.755  10.800  20.087  0.00  0.00    +0.000 N 
ATOM     21  C   UNL     1      -1.421  10.254  18.897  0.00  0.00    +0.000 C 
ATOM     22  C   UNL     1      -2.129  11.347  18.088  0.00  0.00    +0.000 C 
ATOM     23  O   UNL     1      -2.996  12.141  18.908  0.00  0.00    +0.000 OA
ATOM     24  C   UNL     1      -2.243  12.773  19.956  0.00  0.00    +0.000 C 
ATOM     25  C   UNL     1      -1.586  11.730  20.860  0.00  0.00    +0.000 C 
ENDBRANCH   4  18
BRANCH   6  26
ATOM     26  O   UNL     1       1.633   5.804  21.144  0.00  0.00    +0.000 OA
BRANCH  26  27
ATOM     27  C   UNL     1       1.999   4.502  20.622  0.00  0.00    +0.000 C 
ATOM     28  C   UNL     1       2.476   3.510  21.716  0.00  0.00    +0.000 C 
ATOM     29  C   UNL     1       1.206   2.679  21.527  0.00  0.00    +0.000 C 
ATOM     30  C   UNL     1       0.832   3.538  20.318  0.00  0.00    +0.000 C 
ENDBRANCH  26  27
ENDBRANCH   6  26
TORSDOF 5
ENDMDL
MODEL 3
REMARK VINA RESULT:      -8.1      2.483      4.826
REMARK  Name = 
REMARK  6 active torsions:
REMARK  status: ('A' for Active; 'I' for Inactive)
REMARK    1  A    between atoms: C_1  and  O_2
REMARK    2  A    between atoms: O_2  and  C_3
REMARK    3  A    between atoms: N_6  and  C_7
REMARK    4  A    between atoms: C_10  and  C_11
REMARK    5  A    between atoms: C_20  and  O_21
REMARK    6  A    between atoms: O_21  and  C_22
REMARK                            x       y       z     vdW  Elec       q    Type
REMARK                         _______ _______ _______ _____ _____    ______ ____
ROOT
ATOM      1  C   UNL     1       0.386   9.557  20.430  0.00  0.00    +0.000 A 
ATOM      2  C   UNL     1       1.069   8.543  21.123  0.00  0.00    +0.000 A 
ATOM      3  C   UNL     1       1.912   7.653  20.462  0.00  0.00    +0.000 A 
ATOM      4  C   UNL     1       2.182   7.805  19.104  0.00  0.00    +0.000 A 
ATOM      5  C   UNL     1       1.509   8.815  18.396  0.00  0.00    +0.000 A 
ATOM      6  C   UNL     1       0.603   9.665  19.047  0.00  0.00    +0.000 A 
ENDROOT
BRANCH   1  10
ATOM      7  C   UNL     1       0.508  13.652  21.640  0.00  0.00    +0.000 A 
ATOM      8  N   UNL     1       0.498  12.381  21.200  0.00  0.00    +0.000 NA
ATOM      9  C   UNL     1      -0.422  11.550  21.701  0.00  0.00    +0.000 A 
ATOM     10  N   UNL     1      -0.599  10.309  21.092  0.00  0.00    +0.000 N 
ATOM     11  N   UNL     1      -1.255  11.884  22.696  0.00  0.00    +0.000 NA
ATOM     12  C   UNL     1      -1.192  13.162  23.137  0.00  0.00    +0.000 A 
ATOM     13  C   UNL     1      -0.346  14.113  22.613  0.00  0.00    +0.000 A 
ATOM     14 BR   UNL     1      -0.447  15.909  23.167  0.00  0.00    +0.000 Br
ATOM     15  H   UNL     1      -1.223   9.745  21.657  0.00  0.00    +0.000 HD
BRANCH   7  17
ATOM     16  C   UNL     1       1.651  14.216  19.673  0.00  0.00    +0.000 C 
ATOM     17  O   UNL     1       1.385  14.533  21.041  0.00  0.00    +0.000 OA
ENDBRANCH   7  17
ENDBRANCH   1  10
BRANCH   4  18
ATOM     18  C   UNL     1       3.002   6.825  18.342  0.00  0.00    +0.000 C 
ATOM     19  O   UNL     1       3.888   7.282  17.620  0.00  0.00    +0.000 OA
ATOM     20  N   UNL     1       2.770   5.449  18.427  0.00  0.00    +0.000 N 
ATOM     21  C   UNL     1       1.885   4.746  19.365  0.00  0.00    +0.000 C 
ATOM     22  C   UNL     1       2.512   3.443  19.875  0.00  0.00    +0.000 C 
ATOM     23  O   UNL     1       2.969   2.615  18.798  0.00  0.00    +0.000 OA
ATOM     24  C   UNL     1       3.954   3.314  18.020  0.00  0.00    +0.000 C 
ATOM     25  C   UNL     1       3.361   4.580  17.402  0.00  0.00    +0.000 C 
ENDBRANCH   4  18
BRANCH   6  26
ATOM     26  O   UNL     1      -0.142  10.461  18.203  0.00  0.00    +0.000 OA
BRANCH  26  27
ATOM     27  C   UNL     1      -1.567  10.222  18.090  0.00  0.00    +0.000 C 
ATOM     28  C   UNL     1      -2.404  11.523  17.970  0.00  0.00    +0.000 C 
ATOM     29  C   UNL     1      -2.734  11.185  16.515  0.00  0.00    +0.000 C 
ATOM     30  C   UNL     1      -2.079   9.815  16.692  0.00  0.00    +0.000 C 
ENDBRANCH  26  27
ENDBRANCH   6  26
TORSDOF 5
ENDMDL
MODEL 4
REMARK VINA RESULT:      -8.0      3.492      9.028
REMARK  Name = 
REMARK  6 active torsions:
REMARK  status: ('A' for Active; 'I' for Inactive)
REMARK    1  A    between atoms: C_1  and  O_2
REMARK    2  A    between atoms: O_2  and  C_3
REMARK    3  A    between atoms: N_6  and  C_7
REMARK    4  A    between atoms: C_10  and  C_11
REMARK    5  A    between atoms: C_20  and  O_21
REMARK    6  A    between atoms: O_21  and  C_22
REMARK                            x       y       z     vdW  Elec       q    Type
REMARK                         _______ _______ _______ _____ _____    ______ ____
ROOT
ATOM      1  C   UNL     1       1.051   9.322  19.372  0.00  0.00    +0.000 A 
ATOM      2  C   UNL     1       1.542   9.305  20.688  0.00  0.00    +0.000 A 
ATOM      3  C   UNL     1       0.897   9.993  21.713  0.00  0.00    +0.000 A 
ATOM      4  C   UNL     1      -0.316  10.638  21.482  0.00  0.00    +0.000 A 
ATOM      5  C   UNL     1      -0.824  10.663  20.172  0.00  0.00    +0.000 A 
ATOM      6  C   UNL     1      -0.135  10.033  19.125  0.00  0.00    +0.000 A 
ENDROOT
BRANCH   1  10
ATOM      7  C   UNL     1       2.537   5.341  18.934  0.00  0.00    +0.000 A 
ATOM      8  N   UNL     1       2.009   6.568  19.093  0.00  0.00    +0.000 NA
ATOM      9  C   UNL     1       2.511   7.567  18.358  0.00  0.00    +0.000 A 
ATOM     10  N   UNL     1       1.828   8.782  18.334  0.00  0.00    +0.000 N 
ATOM     11  N   UNL     1       3.580   7.433  17.562  0.00  0.00    +0.000 NA
ATOM     12  C   UNL     1       4.105   6.190  17.454  0.00  0.00    +0.000 A 
ATOM     13  C   UNL     1       3.595   5.084  18.095  0.00  0.00    +0.000 A 
ATOM     14 BR   UNL     1       4.279   3.365  17.754  0.00  0.00    +0.000 Br
ATOM     15  H   UNL     1       2.392   9.472  17.853  0.00  0.00    +0.000 HD
BRANCH   7  17
ATOM     16  C   UNL     1       2.146   4.356  21.025  0.00  0.00    +0.000 C 
ATOM     17  O   UNL     1       1.944   4.294  19.612  0.00  0.00    +0.000 OA
ENDBRANCH   7  17
ENDBRANCH   1  10
BRANCH   4  18
ATOM     18  C   UNL     1      -0.991  11.459  22.523  0.00  0.00    +0.000 C 
ATOM     19  O   UNL     1      -1.608  10.851  23.399  0.00  0.00    +0.000 OA
ATOM     20  N   UNL     1      -0.944  12.856  22.504  0.00  0.00    +0.000 N 
ATOM     21  C   UNL     1      -0.114  13.712  21.645  0.00  0.00    +0.000 C 
ATOM     22  C   UNL     1       0.450  14.913  22.411  0.00  0.00    +0.000 C 
ATOM     23  O   UNL     1      -0.576  15.633  23.107  0.00  0.00    +0.000 OA
ATOM     24  C   UNL     1      -1.236  14.769  24.046  0.00  0.00    +0.000 C 
ATOM     25  C   UNL     1      -1.904  13.595  23.331  0.00  0.00    +0.000 C 
ENDBRANCH   4  18
BRANCH   6  26
ATOM     26  O   UNL     1      -0.623  10.314  17.867  0.00  0.00    +0.000 OA
BRANCH  26  27
ATOM     27  C   UNL     1      -2.010  10.714  17.726  0.00  0.00    +0.000 C 
ATOM     28  C   UNL     1      -2.383  11.151  16.285  0.00  0.00    +0.000 C 
ATOM     29  C   UNL     1      -3.244   9.897  16.120  0.00  0.00    +0.000 C 
ATOM     30  C   UNL     1      -3.037   9.569  17.599  0.00  0.00    +0.000 C 
ENDBRANCH  26  27
ENDBRANCH   6  26
TORSDOF 5
ENDMDL
MODEL 5
REMARK VINA RESULT:      -7.9      1.948      2.786
REMARK  Name = 
REMARK  6 active torsions:
REMARK  status: ('A' for Active; 'I' for Inactive)
REMARK    1  A    between atoms: C_1  and  O_2
REMARK    2  A    between atoms: O_2  and  C_3
REMARK    3  A    between atoms: N_6  and  C_7
REMARK    4  A    between atoms: C_10  and  C_11
REMARK    5  A    between atoms: C_20  and  O_21
REMARK    6  A    between atoms: O_21  and  C_22
REMARK                            x       y       z     vdW  Elec       q    Type
REMARK                         _______ _______ _______ _____ _____    ______ ____
ROOT
ATOM      1  C   UNL     1       3.220   5.950  18.736  0.00  0.00    +0.000 A 
ATOM      2  C   UNL     1       3.568   6.953  17.814  0.00  0.00    +0.000 A 
ATOM      3  C   UNL     1       4.603   6.771  16.900  0.00  0.00    +0.000 A 
ATOM      4  C   UNL     1       5.260   5.546  16.806  0.00  0.00    +0.000 A 
ATOM      5  C   UNL     1       4.923   4.531  17.718  0.00  0.00    +0.000 A 
ATOM      6  C   UNL     1       3.932   4.741  18.688  0.00  0.00    +0.000 A 
ENDROOT
BRANCH   1  10
ATOM      7  C   UNL     1       1.128   9.594  19.510  0.00  0.00    +0.000 A 
ATOM      8  N   UNL     1       1.773   8.455  19.200  0.00  0.00    +0.000 NA
ATOM      9  C   UNL     1       1.856   7.505  20.138  0.00  0.00    +0.000 A 
ATOM     10  N   UNL     1       2.307   6.240  19.764  0.00  0.00    +0.000 N 
ATOM     11  N   UNL     1       1.434   7.672  21.398  0.00  0.00    +0.000 NA
ATOM     12  C   UNL     1       0.820   8.845  21.681  0.00  0.00    +0.000 A 
ATOM     13  C   UNL     1       0.602   9.840  20.756  0.00  0.00    +0.000 A 
ATOM     14 BR   UNL     1      -0.412  11.364  21.192  0.00  0.00    +0.000 Br
ATOM     15  H   UNL     1       2.444   5.676  20.594  0.00  0.00    +0.000 HD
BRANCH   7  17
ATOM     16  C   UNL     1       2.177  10.961  17.921  0.00  0.00    +0.000 C 
ATOM     17  O   UNL     1       0.949  10.525  18.507  0.00  0.00    +0.000 OA
ENDBRANCH   7  17
ENDBRANCH   1  10
BRANCH   4  18
ATOM     18  C   UNL     1       6.429   5.338  15.909  0.00  0.00    +0.000 C 
ATOM     19  O   UNL     1       7.545   5.529  16.393  0.00  0.00    +0.000 OA
ATOM     20  N   UNL     1       6.272   4.959  14.572  0.00  0.00    +0.000 N 
ATOM     21  C   UNL     1       5.038   4.525  13.903  0.00  0.00    +0.000 C 
ATOM     22  C   UNL     1       5.292   3.361  12.939  0.00  0.00    +0.000 C 
ATOM     23  O   UNL     1       6.360   3.647  12.027  0.00  0.00    +0.000 OA
ATOM     24  C   UNL     1       7.573   3.903  12.751  0.00  0.00    +0.000 C 
ATOM     25  C   UNL     1       7.416   5.118  13.666  0.00  0.00    +0.000 C 
ENDBRANCH   4  18
BRANCH   6  26
ATOM     26  O   UNL     1       3.852   3.754  19.647  0.00  0.00    +0.000 OA
BRANCH  26  27
ATOM     27  C   UNL     1       2.971   2.626  19.420  0.00  0.00    +0.000 C 
ATOM     28  C   UNL     1       1.832   2.510  20.469  0.00  0.00    +0.000 C 
ATOM     29  C   UNL     1       0.803   2.893  19.404  0.00  0.00    +0.000 C 
ATOM     30  C   UNL     1       1.891   2.813  18.333  0.00  0.00    +0.000 C 
ENDBRANCH  26  27
ENDBRANCH   6  26
TORSDOF 5
ENDMDL
MODEL 6
REMARK VINA RESULT:      -7.8      3.038      5.420
REMARK  Name = 
REMARK  6 active torsions:
REMARK  status: ('A' for Active; 'I' for Inactive)
REMARK    1  A    between atoms: C_1  and  O_2
REMARK    2  A    between atoms: O_2  and  C_3
REMARK    3  A    between atoms: N_6  and  C_7
REMARK    4  A    between atoms: C_10  and  C_11
REMARK    5  A    between atoms: C_20  and  O_21
REMARK    6  A    between atoms: O_21  and  C_22
REMARK                            x       y       z     vdW  Elec       q    Type
REMARK                         _______ _______ _______ _____ _____    ______ ____
ROOT
ATOM      1  C   UNL     1       0.882   9.753  18.590  0.00  0.00    +0.000 A 
ATOM      2  C   UNL     1       1.433   9.022  17.524  0.00  0.00    +0.000 A 
ATOM      3  C   UNL     1       2.198   7.879  17.746  0.00  0.00    +0.000 A 
ATOM      4  C   UNL     1       2.355   7.368  19.032  0.00  0.00    +0.000 A 
ATOM      5  C   UNL     1       1.809   8.085  20.110  0.00  0.00    +0.000 A 
ATOM      6  C   UNL     1       1.102   9.276  19.893  0.00  0.00    +0.000 A 
ENDROOT
BRANCH   1  10
ATOM      7  C   UNL     1       2.498  13.660  19.193  0.00  0.00    +0.000 A 
ATOM      8  N   UNL     1       2.049  12.411  18.977  0.00  0.00    +0.000 NA
ATOM      9  C   UNL     1       0.735  12.237  18.797  0.00  0.00    +0.000 A 
ATOM     10  N   UNL     1       0.284  11.000  18.342  0.00  0.00    +0.000 N 
ATOM     11  N   UNL     1      -0.165  13.221  18.933  0.00  0.00    +0.000 NA
ATOM     12  C   UNL     1       0.322  14.459  19.183  0.00  0.00    +0.000 A 
ATOM     13  C   UNL     1       1.663  14.749  19.287  0.00  0.00    +0.000 A 
ATOM     14 BR   UNL     1       2.260  16.525  19.463  0.00  0.00    +0.000 Br
ATOM     15  H   UNL     1      -0.727  10.977  18.385  0.00  0.00    +0.000 HD
BRANCH   7  17
ATOM     16  C   UNL     1       4.439  14.269  18.029  0.00  0.00    +0.000 C 
ATOM     17  O   UNL     1       3.863  13.849  19.268  0.00  0.00    +0.000 OA
ENDBRANCH   7  17
ENDBRANCH   1  10
BRANCH   4  18
ATOM     18  C   UNL     1       3.237   6.205  19.322  0.00  0.00    +0.000 C 
ATOM     19  O   UNL     1       4.447   6.425  19.383  0.00  0.00    +0.000 OA
ATOM     20  N   UNL     1       2.721   4.918  19.503  0.00  0.00    +0.000 N 
ATOM     21  C   UNL     1       1.311   4.530  19.638  0.00  0.00    +0.000 C 
ATOM     22  C   UNL     1       1.119   3.442  20.702  0.00  0.00    +0.000 C 
ATOM     23  O   UNL     1       1.996   2.329  20.491  0.00  0.00    +0.000 OA
ATOM     24  C   UNL     1       3.365   2.762  20.533  0.00  0.00    +0.000 C 
ATOM     25  C   UNL     1       3.648   3.783  19.430  0.00  0.00    +0.000 C 
ENDBRANCH   4  18
BRANCH   6  26
ATOM     26  O   UNL     1       0.810   9.985  21.038  0.00  0.00    +0.000 OA
BRANCH  26  27
ATOM     27  C   UNL     1      -0.525   9.897  21.597  0.00  0.00    +0.000 C 
ATOM     28  C   UNL     1      -0.544   9.865  23.149  0.00  0.00    +0.000 C 
ATOM     29  C   UNL     1      -1.162  11.264  23.177  0.00  0.00    +0.000 C 
ATOM     30  C   UNL     1      -1.326  11.215  21.658  0.00  0.00    +0.000 C 
ENDBRANCH  26  27
ENDBRANCH   6  26
TORSDOF 5
ENDMDL
MODEL 7
REMARK VINA RESULT:      -7.8      2.681      4.642
REMARK  Name = 
REMARK  6 active torsions:
REMARK  status: ('A' for Active; 'I' for Inactive)
REMARK    1  A    between atoms: C_1  and  O_2
REMARK    2  A    between atoms: O_2  and  C_3
REMARK    3  A    between atoms: N_6  and  C_7
REMARK    4  A    between atoms: C_10  and  C_11
REMARK    5  A    between atoms: C_20  and  O_21
REMARK    6  A    between atoms: O_21  and  C_22
REMARK                            x       y       z     vdW  Elec       q    Type
REMARK                         _______ _______ _______ _____ _____    ______ ____
ROOT
ATOM      1  C   UNL     1       1.058   9.422  19.938  0.00  0.00    +0.000 A 
ATOM      2  C   UNL     1       1.687   8.408  20.680  0.00  0.00    +0.000 A 
ATOM      3  C   UNL     1       2.171   7.254  20.068  0.00  0.00    +0.000 A 
ATOM      4  C   UNL     1       2.134   7.116  18.682  0.00  0.00    +0.000 A 
ATOM      5  C   UNL     1       1.510   8.122  17.924  0.00  0.00    +0.000 A 
ATOM      6  C   UNL     1       0.956   9.249  18.548  0.00  0.00    +0.000 A 
ENDROOT
BRANCH   1  10
ATOM      7  C   UNL     1       1.664  13.630  19.519  0.00  0.00    +0.000 A 
ATOM      8  N   UNL     1       1.476  12.299  19.583  0.00  0.00    +0.000 NA
ATOM      9  C   UNL     1       0.821  11.807  20.641  0.00  0.00    +0.000 A 
ATOM     10  N   UNL     1       0.413  10.475  20.609  0.00  0.00    +0.000 N 
ATOM     11  N   UNL     1       0.445  12.553  21.688  0.00  0.00    +0.000 NA
ATOM     12  C   UNL     1       0.681  13.883  21.603  0.00  0.00    +0.000 A 
ATOM     13  C   UNL     1       1.260  14.490  20.512  0.00  0.00    +0.000 A 
ATOM     14 BR   UNL     1       1.393  16.364  20.404  0.00  0.00    +0.000 Br
ATOM     15  H   UNL     1       0.057  10.213  21.520  0.00  0.00    +0.000 HD
BRANCH   7  17
ATOM     16  C   UNL     1       3.670  14.134  18.417  0.00  0.00    +0.000 C 
ATOM     17  O   UNL     1       2.242  14.143  18.375  0.00  0.00    +0.000 OA
ENDBRANCH   7  17
ENDBRANCH   1  10
BRANCH   4  18
ATOM     18  C   UNL     1       2.555   5.865  17.996  0.00  0.00    +0.000 C 
ATOM     19  O   UNL     1       1.682   5.022  17.787  0.00  0.00    +0.000 OA
ATOM     20  N   UNL     1       3.883   5.644  17.620  0.00  0.00    +0.000 N 
ATOM     21  C   UNL     1       4.991   6.608  17.637  0.00  0.00    +0.000 C 
ATOM     22  C   UNL     1       5.891   6.465  16.403  0.00  0.00    +0.000 C 
ATOM     23  O   UNL     1       6.321   5.112  16.211  0.00  0.00    +0.000 OA
ATOM     24  C   UNL     1       5.184   4.251  16.041  0.00  0.00    +0.000 C 
ATOM     25  C   UNL     1       4.291   4.275  17.282  0.00  0.00    +0.000 C 
ENDBRANCH   4  18
BRANCH   6  26
ATOM     26  O   UNL     1       0.191  10.044  17.721  0.00  0.00    +0.000 OA
BRANCH  26  27
ATOM     27  C   UNL     1      -1.240  10.109  17.939  0.00  0.00    +0.000 C 
ATOM     28  C   UNL     1      -1.808  11.553  17.886  0.00  0.00    +0.000 C 
ATOM     29  C   UNL     1      -2.522  11.232  16.572  0.00  0.00    +0.000 C 
ATOM     30  C   UNL     1      -2.130   9.762  16.726  0.00  0.00    +0.000 C 
ENDBRANCH  26  27
ENDBRANCH   6  26
TORSDOF 5
ENDMDL
MODEL 8
REMARK VINA RESULT:      -7.8      3.235      7.755
REMARK  Name = 
REMARK  6 active torsions:
REMARK  status: ('A' for Active; 'I' for Inactive)
REMARK    1  A    between atoms: C_1  and  O_2
REMARK    2  A    between atoms: O_2  and  C_3
REMARK    3  A    between atoms: N_6  and  C_7
REMARK    4  A    between atoms: C_10  and  C_11
REMARK    5  A    between atoms: C_20  and  O_21
REMARK    6  A    between atoms: O_21  and  C_22
REMARK                            x       y       z     vdW  Elec       q    Type
REMARK                         _______ _______ _______ _____ _____    ______ ____
ROOT
ATOM      1  C   UNL     1       2.647   6.424  18.817  0.00  0.00    +0.000 A 
ATOM      2  C   UNL     1       2.308   7.612  18.146  0.00  0.00    +0.000 A 
ATOM      3  C   UNL     1       1.605   8.631  18.784  0.00  0.00    +0.000 A 
ATOM      4  C   UNL     1       1.304   8.544  20.142  0.00  0.00    +0.000 A 
ATOM      5  C   UNL     1       1.637   7.365  20.829  0.00  0.00    +0.000 A 
ATOM      6  C   UNL     1       2.279   6.308  20.167  0.00  0.00    +0.000 A 
ENDROOT
BRANCH   1  10
ATOM      7  C   UNL     1       6.180   6.298  16.420  0.00  0.00    +0.000 A 
ATOM      8  N   UNL     1       5.103   6.374  17.221  0.00  0.00    +0.000 NA
ATOM      9  C   UNL     1       4.175   5.415  17.119  0.00  0.00    +0.000 A 
ATOM     10  N   UNL     1       3.180   5.345  18.093  0.00  0.00    +0.000 N 
ATOM     11  N   UNL     1       4.208   4.454  16.186  0.00  0.00    +0.000 NA
ATOM     12  C   UNL     1       5.291   4.431  15.376  0.00  0.00    +0.000 A 
ATOM     13  C   UNL     1       6.340   5.316  15.472  0.00  0.00    +0.000 A 
ATOM     14 BR   UNL     1       7.886   5.105  14.420  0.00  0.00    +0.000 Br
ATOM     15  H   UNL     1       2.484   4.667  17.810  0.00  0.00    +0.000 HD
BRANCH   7  17
ATOM     16  C   UNL     1       7.732   7.202  17.926  0.00  0.00    +0.000 C 
ATOM     17  O   UNL     1       7.186   7.226  16.606  0.00  0.00    +0.000 OA
ENDBRANCH   7  17
ENDBRANCH   1  10
BRANCH   4  18
ATOM     18  C   UNL     1       0.478   9.567  20.839  0.00  0.00    +0.000 C 
ATOM     19  O   UNL     1      -0.251   9.169  21.748  0.00  0.00    +0.000 OA
ATOM     20  N   UNL     1       0.512  10.915  20.472  0.00  0.00    +0.000 N 
ATOM     21  C   UNL     1       1.446  11.567  19.544  0.00  0.00    +0.000 C 
ATOM     22  C   UNL     1       1.881  12.948  20.049  0.00  0.00    +0.000 C 
ATOM     23  O   UNL     1       0.758  13.769  20.393  0.00  0.00    +0.000 OA
ATOM     24  C   UNL     1      -0.020  13.137  21.423  0.00  0.00    +0.000 C 
ATOM     25  C   UNL     1      -0.566  11.791  20.945  0.00  0.00    +0.000 C 
ENDBRANCH   4  18
BRANCH   6  26
ATOM     26  O   UNL     1       2.352   5.138  20.894  0.00  0.00    +0.000 OA
BRANCH  26  27
ATOM     27  C   UNL     1       1.213   4.241  20.895  0.00  0.00    +0.000 C 
ATOM     28  C   UNL     1       0.979   3.539  19.530  0.00  0.00    +0.000 C 
ATOM     29  C   UNL     1       1.406   2.201  20.136  0.00  0.00    +0.000 C 
ATOM     30  C   UNL     1       1.445   2.849  21.521  0.00  0.00    +0.000 C 
ENDBRANCH  26  27
ENDBRANCH   6  26
TORSDOF 5
ENDMDL
MODEL 9
REMARK VINA RESULT:      -7.7      2.774      5.225
REMARK  Name = 
REMARK  6 active torsions:
REMARK  status: ('A' for Active; 'I' for Inactive)
REMARK    1  A    between atoms: C_1  and  O_2
REMARK    2  A    between atoms: O_2  and  C_3
REMARK    3  A    between atoms: N_6  and  C_7
REMARK    4  A    between atoms: C_10  and  C_11
REMARK    5  A    between atoms: C_20  and  O_21
REMARK    6  A    between atoms: O_21  and  C_22
REMARK                            x       y       z     vdW  Elec       q    Type
REMARK                         _______ _______ _______ _____ _____    ______ ____
ROOT
ATOM      1  C   UNL     1      -0.320  10.286  20.141  0.00  0.00    +0.000 A 
ATOM      2  C   UNL     1       0.512   9.489  20.945  0.00  0.00    +0.000 A 
ATOM      3  C   UNL     1       1.440   8.613  20.384  0.00  0.00    +0.000 A 
ATOM      4  C   UNL     1       1.639   8.576  19.006  0.00  0.00    +0.000 A 
ATOM      5  C   UNL     1       0.817   9.369  18.188  0.00  0.00    +0.000 A 
ATOM      6  C   UNL     1      -0.168  10.195  18.748  0.00  0.00    +0.000 A 
ENDROOT
BRANCH   1  10
ATOM      7  C   UNL     1      -0.135  13.890  22.426  0.00  0.00    +0.000 A 
ATOM      8  N   UNL     1      -0.148  12.783  21.663  0.00  0.00    +0.000 NA
ATOM      9  C   UNL     1      -1.246  12.019  21.684  0.00  0.00    +0.000 A 
ATOM     10  N   UNL     1      -1.371  11.009  20.732  0.00  0.00    +0.000 N 
ATOM     11  N   UNL     1      -2.281  12.237  22.505  0.00  0.00    +0.000 NA
ATOM     12  C   UNL     1      -2.217  13.343  23.283  0.00  0.00    +0.000 A 
ATOM     13  C   UNL     1      -1.173  14.238  23.258  0.00  0.00    +0.000 A 
ATOM     14 BR   UNL     1      -1.245  15.839  24.245  0.00  0.00    +0.000 Br
ATOM     15  H   UNL     1      -2.176  10.437  20.955  0.00  0.00    +0.000 HD
BRANCH   7  17
ATOM     16  C   UNL     1       0.971  15.471  21.096  0.00  0.00    +0.000 C 
ATOM     17  O   UNL     1       0.954  14.733  22.318  0.00  0.00    +0.000 OA
ENDBRANCH   7  17
ENDBRANCH   1  10
BRANCH   4  18
ATOM     18  C   UNL     1       2.552   7.594  18.362  0.00  0.00    +0.000 C 
ATOM     19  O   UNL     1       3.292   8.019  17.474  0.00  0.00    +0.000 OA
ATOM     20  N   UNL     1       2.562   6.246  18.733  0.00  0.00    +0.000 N 
ATOM     21  C   UNL     1       1.880   5.627  19.878  0.00  0.00    +0.000 C 
ATOM     22  C   UNL     1       2.754   4.566  20.556  0.00  0.00    +0.000 C 
ATOM     23  O   UNL     1       3.261   3.611  19.615  0.00  0.00    +0.000 OA
ATOM     24  C   UNL     1       4.052   4.274  18.616  0.00  0.00    +0.000 C 
ATOM     25  C   UNL     1       3.210   5.283  17.835  0.00  0.00    +0.000 C 
ENDBRANCH   4  18
BRANCH   6  26
ATOM     26  O   UNL     1      -1.039  10.747  17.834  0.00  0.00    +0.000 OA
BRANCH  26  27
ATOM     27  C   UNL     1      -2.190   9.976  17.407  0.00  0.00    +0.000 C 
ATOM     28  C   UNL     1      -3.541  10.705  17.632  0.00  0.00    +0.000 C 
ATOM     29  C   UNL     1      -3.713  10.870  16.121  0.00  0.00    +0.000 C 
ATOM     30  C   UNL     1      -2.489   9.982  15.892  0.00  0.00    +0.000 C 
ENDBRANCH  26  27
ENDBRANCH   6  26
TORSDOF 5
ENDMDL
