MODEL 1
REMARK VINA RESULT:      -7.2      0.000      0.000
REMARK  Name = 
REMARK  15 active torsions:
REMARK  status: ('A' for Active; 'I' for Inactive)
REMARK    1  A    between atoms: C_1  and  C_2
REMARK    2  A    between atoms: C_2  and  C_3
REMARK    3  A    between atoms: C_3  and  C_4
REMARK    4  A    between atoms: C_3  and  C_5
REMARK    5  A    between atoms: C_5  and  O_7
REMARK    6  A    between atoms: O_7  and  C_8
REMARK    7  A    between atoms: C_15  and  C_16
REMARK    8  A    between atoms: C_17  and  C_18
REMARK    9  A    between atoms: C_18  and  O_19
REMARK   10  A    between atoms: O_19  and  C_20
REMARK   11  A    between atoms: C_20  and  C_22
REMARK   12  A    between atoms: C_22  and  C_23
REMARK   13  A    between atoms: C_23  and  C_24
REMARK   14  A    between atoms: C_24  and  C_25
REMARK   15  A    between atoms: C_25  and  O_27
REMARK                            x       y       z     vdW  Elec       q    Type
REMARK                         _______ _______ _______ _____ _____    ______ ____
ROOT
ATOM      1  C   UNL     1       6.280   4.574  17.866  0.00  0.00    +0.000 C 
ATOM      2  C   UNL     1       7.583   5.288  18.279  0.00  0.00    +0.000 C 
ATOM      3  C   UNL     1       7.576   6.810  18.262  0.00  0.00    +0.000 C 
ATOM      4  C   UNL     1       6.568   7.409  17.358  0.00  0.00    +0.000 C 
ATOM      5  C   UNL     1       5.416   6.789  17.069  0.00  0.00    +0.000 C 
ATOM      6  C   UNL     1       4.303   7.479  16.447  0.00  0.00    +0.000 C 
ATOM      7  C   UNL     1       3.519   7.950  17.432  0.00  0.00    +0.000 C 
ATOM      8  C   UNL     1       2.831   6.893  18.306  0.00  0.00    +0.000 C 
ATOM      9  C   UNL     1       2.195   7.674  19.465  0.00  0.00    +0.000 C 
ATOM     10  C   UNL     1       3.729   5.554  18.569  0.00  0.00    +0.000 C 
ATOM     11  C   UNL     1       5.009   5.434  17.605  0.00  0.00    +0.000 C 
ENDROOT
BRANCH   1  12
ATOM     12  O   UNL     1       6.536   3.983  16.542  0.00  0.00    +0.000 OA
BRANCH  12  13
ATOM     13  C   UNL     1       5.549   3.878  15.616  0.00  0.00    +0.000 C 
ATOM     14  O   UNL     1       4.433   3.420  15.828  0.00  0.00    +0.000 OA
BRANCH  13  15
ATOM     15  C   UNL     1       6.012   4.469  14.297  0.00  0.00    +0.000 C 
ATOM     16  C   UNL     1       7.382   5.105  14.525  0.00  0.00    +0.000 C 
BRANCH  15  18
ATOM     17  C   UNL     1       4.942   3.546  12.161  0.00  0.00    +0.000 C 
ATOM     18  C   UNL     1       6.089   3.438  13.156  0.00  0.00    +0.000 C 
ENDBRANCH  15  18
ENDBRANCH  13  15
ENDBRANCH  12  13
ENDBRANCH   1  12
BRANCH  10  19
ATOM     19  C   UNL     1       3.816   4.993  20.008  0.00  0.00    +0.000 C 
BRANCH  19  20
ATOM     20  O   UNL     1       2.553   5.044  20.739  0.00  0.00    +0.000 OA
BRANCH  20  21
ATOM     21  C   UNL     1       1.934   3.881  21.122  0.00  0.00    +0.000 C 
ATOM     22  O   UNL     1       2.185   3.281  22.169  0.00  0.00    +0.000 OA
BRANCH  21  23
ATOM     23  C   UNL     1       0.902   3.443  20.082  0.00  0.00    +0.000 C 
BRANCH  23  24
ATOM     24  C   UNL     1       1.217   2.096  19.408  0.00  0.00    +0.000 C 
BRANCH  24  25
ATOM     25  C   UNL     1       2.242   2.225  18.268  0.00  0.00    +0.000 C 
BRANCH  25  26
ATOM     26  C   UNL     1       3.605   1.674  18.639  0.00  0.00    +0.000 C 
ATOM     27  O   UNL     1       4.102   1.713  19.754  0.00  0.00    +0.000 OA
BRANCH  26  28
ATOM     28  O   UNL     1       4.248   1.114  17.589  0.00  0.00    +0.000 OA
ATOM     29  H   UNL     1       4.580   1.760  16.934  0.00  0.00    +0.000 HD
ENDBRANCH  26  28
ENDBRANCH  25  26
ENDBRANCH  24  25
ENDBRANCH  23  24
ENDBRANCH  21  23
ENDBRANCH  20  21
ENDBRANCH  19  20
ENDBRANCH  10  19
TORSDOF 12
ENDMDL
MODEL 2
REMARK VINA RESULT:      -7.2      0.835      1.095
REMARK  Name = 
REMARK  15 active torsions:
REMARK  status: ('A' for Active; 'I' for Inactive)
REMARK    1  A    between atoms: C_1  and  C_2
REMARK    2  A    between atoms: C_2  and  C_3
REMARK    3  A    between atoms: C_3  and  C_4
REMARK    4  A    between atoms: C_3  and  C_5
REMARK    5  A    between atoms: C_5  and  O_7
REMARK    6  A    between atoms: O_7  and  C_8
REMARK    7  A    between atoms: C_15  and  C_16
REMARK    8  A    between atoms: C_17  and  C_18
REMARK    9  A    between atoms: C_18  and  O_19
REMARK   10  A    between atoms: O_19  and  C_20
REMARK   11  A    between atoms: C_20  and  C_22
REMARK   12  A    between atoms: C_22  and  C_23
REMARK   13  A    between atoms: C_23  and  C_24
REMARK   14  A    between atoms: C_24  and  C_25
REMARK   15  A    between atoms: C_25  and  O_27
REMARK                            x       y       z     vdW  Elec       q    Type
REMARK                         _______ _______ _______ _____ _____    ______ ____
ROOT
ATOM      1  C   UNL     1       6.684   4.561  17.763  0.00  0.00    +0.000 C 
ATOM      2  C   UNL     1       7.891   5.396  18.239  0.00  0.00    +0.000 C 
ATOM      3  C   UNL     1       7.683   6.897  18.382  0.00  0.00    +0.000 C 
ATOM      4  C   UNL     1       6.585   7.445  17.554  0.00  0.00    +0.000 C 
ATOM      5  C   UNL     1       5.519   6.711  17.210  0.00  0.00    +0.000 C 
ATOM      6  C   UNL     1       4.312   7.306  16.671  0.00  0.00    +0.000 C 
ATOM      7  C   UNL     1       3.494   7.565  17.706  0.00  0.00    +0.000 C 
ATOM      8  C   UNL     1       2.970   6.341  18.470  0.00  0.00    +0.000 C 
ATOM      9  C   UNL     1       2.261   6.907  19.709  0.00  0.00    +0.000 C 
ATOM     10  C   UNL     1       4.042   5.115  18.584  0.00  0.00    +0.000 C 
ATOM     11  C   UNL     1       5.306   5.266  17.604  0.00  0.00    +0.000 C 
ENDROOT
BRANCH   1  12
ATOM     12  O   UNL     1       6.988   4.148  16.383  0.00  0.00    +0.000 OA
BRANCH  12  13
ATOM     13  C   UNL     1       6.022   3.650  15.570  0.00  0.00    +0.000 C 
ATOM     14  O   UNL     1       5.214   2.786  15.886  0.00  0.00    +0.000 OA
BRANCH  13  15
ATOM     15  C   UNL     1       6.051   4.366  14.232  0.00  0.00    +0.000 C 
ATOM     16  C   UNL     1       7.256   5.305  14.231  0.00  0.00    +0.000 C 
BRANCH  15  18
ATOM     17  C   UNL     1       4.888   3.463  12.138  0.00  0.00    +0.000 C 
ATOM     18  C   UNL     1       6.123   3.411  13.026  0.00  0.00    +0.000 C 
ENDBRANCH  15  18
ENDBRANCH  13  15
ENDBRANCH  12  13
ENDBRANCH   1  12
BRANCH  10  19
ATOM     19  C   UNL     1       4.233   4.425  19.956  0.00  0.00    +0.000 C 
BRANCH  19  20
ATOM     20  O   UNL     1       3.268   3.362  20.222  0.00  0.00    +0.000 OA
BRANCH  20  21
ATOM     21  C   UNL     1       2.419   3.459  21.295  0.00  0.00    +0.000 C 
ATOM     22  O   UNL     1       2.788   3.707  22.444  0.00  0.00    +0.000 OA
BRANCH  21  23
ATOM     23  C   UNL     1       0.969   3.222  20.867  0.00  0.00    +0.000 C 
BRANCH  23  24
ATOM     24  C   UNL     1       0.712   3.431  19.364  0.00  0.00    +0.000 C 
BRANCH  24  25
ATOM     25  C   UNL     1       0.985   2.166  18.532  0.00  0.00    +0.000 C 
BRANCH  25  26
ATOM     26  C   UNL     1       2.157   2.330  17.584  0.00  0.00    +0.000 C 
ATOM     27  O   UNL     1       2.202   3.111  16.646  0.00  0.00    +0.000 OA
BRANCH  26  28
ATOM     28  O   UNL     1       3.188   1.504  17.876  0.00  0.00    +0.000 OA
ATOM     29  H   UNL     1       3.881   1.472  17.188  0.00  0.00    +0.000 HD
ENDBRANCH  26  28
ENDBRANCH  25  26
ENDBRANCH  24  25
ENDBRANCH  23  24
ENDBRANCH  21  23
ENDBRANCH  20  21
ENDBRANCH  19  20
ENDBRANCH  10  19
TORSDOF 12
ENDMDL
MODEL 3
REMARK VINA RESULT:      -6.9      2.698      5.946
REMARK  Name = 
REMARK  15 active torsions:
REMARK  status: ('A' for Active; 'I' for Inactive)
REMARK    1  A    between atoms: C_1  and  C_2
REMARK    2  A    between atoms: C_2  and  C_3
REMARK    3  A    between atoms: C_3  and  C_4
REMARK    4  A    between atoms: C_3  and  C_5
REMARK    5  A    between atoms: C_5  and  O_7
REMARK    6  A    between atoms: O_7  and  C_8
REMARK    7  A    between atoms: C_15  and  C_16
REMARK    8  A    between atoms: C_17  and  C_18
REMARK    9  A    between atoms: C_18  and  O_19
REMARK   10  A    between atoms: O_19  and  C_20
REMARK   11  A    between atoms: C_20  and  C_22
REMARK   12  A    between atoms: C_22  and  C_23
REMARK   13  A    between atoms: C_23  and  C_24
REMARK   14  A    between atoms: C_24  and  C_25
REMARK   15  A    between atoms: C_25  and  O_27
REMARK                            x       y       z     vdW  Elec       q    Type
REMARK                         _______ _______ _______ _____ _____    ______ ____
ROOT
ATOM      1  C   UNL     1       4.616   4.755  17.650  0.00  0.00    +0.000 C 
ATOM      2  C   UNL     1       4.037   3.800  16.587  0.00  0.00    +0.000 C 
ATOM      3  C   UNL     1       2.874   2.913  17.010  0.00  0.00    +0.000 C 
ATOM      4  C   UNL     1       2.795   2.659  18.466  0.00  0.00    +0.000 C 
ATOM      5  C   UNL     1       3.252   3.539  19.367  0.00  0.00    +0.000 C 
ATOM      6  C   UNL     1       2.912   3.451  20.774  0.00  0.00    +0.000 C 
ATOM      7  C   UNL     1       1.809   4.194  20.969  0.00  0.00    +0.000 C 
ATOM      8  C   UNL     1       1.967   5.704  20.740  0.00  0.00    +0.000 C 
ATOM      9  C   UNL     1       0.544   6.277  20.806  0.00  0.00    +0.000 C 
ATOM     10  C   UNL     1       2.991   6.093  19.529  0.00  0.00    +0.000 C 
ATOM     11  C   UNL     1       3.895   4.865  19.026  0.00  0.00    +0.000 C 
ENDROOT
BRANCH   1  12
ATOM     12  O   UNL     1       5.929   4.205  18.026  0.00  0.00    +0.000 OA
BRANCH  12  13
ATOM     13  C   UNL     1       7.081   4.812  17.644  0.00  0.00    +0.000 C 
ATOM     14  O   UNL     1       7.898   4.338  16.864  0.00  0.00    +0.000 OA
BRANCH  13  15
ATOM     15  C   UNL     1       7.177   6.188  18.276  0.00  0.00    +0.000 C 
ATOM     16  C   UNL     1       8.161   6.099  19.441  0.00  0.00    +0.000 C 
BRANCH  15  18
ATOM     17  C   UNL     1       8.101   8.557  17.978  0.00  0.00    +0.000 C 
ATOM     18  C   UNL     1       7.620   7.286  17.292  0.00  0.00    +0.000 C 
ENDBRANCH  15  18
ENDBRANCH  13  15
ENDBRANCH  12  13
ENDBRANCH   1  12
BRANCH  10  19
ATOM     19  C   UNL     1       2.553   7.172  18.510  0.00  0.00    +0.000 C 
BRANCH  19  20
ATOM     20  O   UNL     1       2.079   8.408  19.125  0.00  0.00    +0.000 OA
BRANCH  20  21
ATOM     21  C   UNL     1       1.781   9.494  18.341  0.00  0.00    +0.000 C 
ATOM     22  O   UNL     1       2.253   9.683  17.219  0.00  0.00    +0.000 OA
BRANCH  21  23
ATOM     23  C   UNL     1       0.791  10.422  19.047  0.00  0.00    +0.000 C 
BRANCH  23  24
ATOM     24  C   UNL     1      -0.087   9.723  20.102  0.00  0.00    +0.000 C 
BRANCH  24  25
ATOM     25  C   UNL     1      -0.154  10.498  21.429  0.00  0.00    +0.000 C 
BRANCH  25  26
ATOM     26  C   UNL     1       0.303   9.671  22.615  0.00  0.00    +0.000 C 
ATOM     27  O   UNL     1       1.464   9.406  22.885  0.00  0.00    +0.000 OA
BRANCH  26  28
ATOM     28  O   UNL     1      -0.726   9.234  23.376  0.00  0.00    +0.000 OA
ATOM     29  H   UNL     1      -0.964   8.297  23.227  0.00  0.00    +0.000 HD
ENDBRANCH  26  28
ENDBRANCH  25  26
ENDBRANCH  24  25
ENDBRANCH  23  24
ENDBRANCH  21  23
ENDBRANCH  20  21
ENDBRANCH  19  20
ENDBRANCH  10  19
TORSDOF 12
ENDMDL
MODEL 4
REMARK VINA RESULT:      -6.8      2.538      6.837
REMARK  Name = 
REMARK  15 active torsions:
REMARK  status: ('A' for Active; 'I' for Inactive)
REMARK    1  A    between atoms: C_1  and  C_2
REMARK    2  A    between atoms: C_2  and  C_3
REMARK    3  A    between atoms: C_3  and  C_4
REMARK    4  A    between atoms: C_3  and  C_5
REMARK    5  A    between atoms: C_5  and  O_7
REMARK    6  A    between atoms: O_7  and  C_8
REMARK    7  A    between atoms: C_15  and  C_16
REMARK    8  A    between atoms: C_17  and  C_18
REMARK    9  A    between atoms: C_18  and  O_19
REMARK   10  A    between atoms: O_19  and  C_20
REMARK   11  A    between atoms: C_20  and  C_22
REMARK   12  A    between atoms: C_22  and  C_23
REMARK   13  A    between atoms: C_23  and  C_24
REMARK   14  A    between atoms: C_24  and  C_25
REMARK   15  A    between atoms: C_25  and  O_27
REMARK                            x       y       z     vdW  Elec       q    Type
REMARK                         _______ _______ _______ _____ _____    ______ ____
ROOT
ATOM      1  C   UNL     1       2.663   6.599  18.479  0.00  0.00    +0.000 C 
ATOM      2  C   UNL     1       2.706   6.928  19.985  0.00  0.00    +0.000 C 
ATOM      3  C   UNL     1       2.261   5.835  20.947  0.00  0.00    +0.000 C 
ATOM      4  C   UNL     1       1.348   4.832  20.355  0.00  0.00    +0.000 C 
ATOM      5  C   UNL     1       1.379   4.523  19.052  0.00  0.00    +0.000 C 
ATOM      6  C   UNL     1       0.719   3.347  18.521  0.00  0.00    +0.000 C 
ATOM      7  C   UNL     1       1.615   2.344  18.529  0.00  0.00    +0.000 C 
ATOM      8  C   UNL     1       2.825   2.516  17.601  0.00  0.00    +0.000 C 
ATOM      9  C   UNL     1       3.781   1.370  17.962  0.00  0.00    +0.000 C 
ATOM     10  C   UNL     1       3.350   4.056  17.465  0.00  0.00    +0.000 C 
ATOM     11  C   UNL     1       2.319   5.145  18.042  0.00  0.00    +0.000 C 
ENDROOT
BRANCH   1  12
ATOM     12  O   UNL     1       1.540   7.369  17.920  0.00  0.00    +0.000 OA
BRANCH  12  13
ATOM     13  C   UNL     1       1.556   8.726  17.907  0.00  0.00    +0.000 C 
ATOM     14  O   UNL     1       2.399   9.413  17.343  0.00  0.00    +0.000 OA
BRANCH  13  15
ATOM     15  C   UNL     1       0.341   9.266  18.638  0.00  0.00    +0.000 C 
ATOM     16  C   UNL     1       0.827   9.921  19.930  0.00  0.00    +0.000 C 
BRANCH  15  18
ATOM     17  C   UNL     1      -1.930   9.859  17.615  0.00  0.00    +0.000 C 
ATOM     18  C   UNL     1      -0.478  10.273  17.809  0.00  0.00    +0.000 C 
ENDBRANCH  15  18
ENDBRANCH  13  15
ENDBRANCH  12  13
ENDBRANCH   1  12
BRANCH  10  19
ATOM     19  C   UNL     1       4.869   4.332  17.565  0.00  0.00    +0.000 C 
BRANCH  19  20
ATOM     20  O   UNL     1       5.338   5.390  16.676  0.00  0.00    +0.000 OA
BRANCH  20  21
ATOM     21  C   UNL     1       6.499   5.224  15.965  0.00  0.00    +0.000 C 
ATOM     22  O   UNL     1       7.523   5.881  16.158  0.00  0.00    +0.000 OA
BRANCH  21  23
ATOM     23  C   UNL     1       6.344   4.122  14.916  0.00  0.00    +0.000 C 
BRANCH  23  24
ATOM     24  C   UNL     1       6.293   4.633  13.465  0.00  0.00    +0.000 C 
BRANCH  24  25
ATOM     25  C   UNL     1       6.693   3.558  12.440  0.00  0.00    +0.000 C 
BRANCH  25  26
ATOM     26  C   UNL     1       5.501   2.803  11.886  0.00  0.00    +0.000 C 
ATOM     27  O   UNL     1       4.390   3.276  11.700  0.00  0.00    +0.000 OA
BRANCH  26  28
ATOM     28  O   UNL     1       5.783   1.511  11.604  0.00  0.00    +0.000 OA
ATOM     29  H   UNL     1       6.736   1.327  11.485  0.00  0.00    +0.000 HD
ENDBRANCH  26  28
ENDBRANCH  25  26
ENDBRANCH  24  25
ENDBRANCH  23  24
ENDBRANCH  21  23
ENDBRANCH  20  21
ENDBRANCH  19  20
ENDBRANCH  10  19
TORSDOF 12
ENDMDL
MODEL 5
REMARK VINA RESULT:      -6.8      0.837      2.226
REMARK  Name = 
REMARK  15 active torsions:
REMARK  status: ('A' for Active; 'I' for Inactive)
REMARK    1  A    between atoms: C_1  and  C_2
REMARK    2  A    between atoms: C_2  and  C_3
REMARK    3  A    between atoms: C_3  and  C_4
REMARK    4  A    between atoms: C_3  and  C_5
REMARK    5  A    between atoms: C_5  and  O_7
REMARK    6  A    between atoms: O_7  and  C_8
REMARK    7  A    between atoms: C_15  and  C_16
REMARK    8  A    between atoms: C_17  and  C_18
REMARK    9  A    between atoms: C_18  and  O_19
REMARK   10  A    between atoms: O_19  and  C_20
REMARK   11  A    between atoms: C_20  and  C_22
REMARK   12  A    between atoms: C_22  and  C_23
REMARK   13  A    between atoms: C_23  and  C_24
REMARK   14  A    between atoms: C_24  and  C_25
REMARK   15  A    between atoms: C_25  and  O_27
REMARK                            x       y       z     vdW  Elec       q    Type
REMARK                         _______ _______ _______ _____ _____    ______ ____
ROOT
ATOM      1  C   UNL     1       6.815   4.591  17.467  0.00  0.00    +0.000 C 
ATOM      2  C   UNL     1       7.994   5.387  18.063  0.00  0.00    +0.000 C 
ATOM      3  C   UNL     1       7.760   6.864  18.348  0.00  0.00    +0.000 C 
ATOM      4  C   UNL     1       6.681   7.480  17.543  0.00  0.00    +0.000 C 
ATOM      5  C   UNL     1       5.637   6.772  17.093  0.00  0.00    +0.000 C 
ATOM      6  C   UNL     1       4.440   7.405  16.577  0.00  0.00    +0.000 C 
ATOM      7  C   UNL     1       3.586   7.549  17.605  0.00  0.00    +0.000 C 
ATOM      8  C   UNL     1       3.056   6.250  18.225  0.00  0.00    +0.000 C 
ATOM      9  C   UNL     1       2.299   6.681  19.491  0.00  0.00    +0.000 C 
ATOM     10  C   UNL     1       4.141   5.030  18.252  0.00  0.00    +0.000 C 
ATOM     11  C   UNL     1       5.432   5.293  17.334  0.00  0.00    +0.000 C 
ENDROOT
BRANCH   1  12
ATOM     12  O   UNL     1       7.168   4.321  16.063  0.00  0.00    +0.000 OA
BRANCH  12  13
ATOM     13  C   UNL     1       6.290   3.722  15.220  0.00  0.00    +0.000 C 
ATOM     14  O   UNL     1       5.654   2.706  15.474  0.00  0.00    +0.000 OA
BRANCH  13  15
ATOM     15  C   UNL     1       6.166   4.528  13.941  0.00  0.00    +0.000 C 
ATOM     16  C   UNL     1       7.550   5.077  13.598  0.00  0.00    +0.000 C 
BRANCH  15  18
ATOM     17  C   UNL     1       6.692   3.133  11.859  0.00  0.00    +0.000 C 
ATOM     18  C   UNL     1       5.610   3.718  12.755  0.00  0.00    +0.000 C 
ENDBRANCH  15  18
ENDBRANCH  13  15
ENDBRANCH  12  13
ENDBRANCH   1  12
BRANCH  10  19
ATOM     19  C   UNL     1       4.298   4.208  19.553  0.00  0.00    +0.000 C 
BRANCH  19  20
ATOM     20  O   UNL     1       4.452   2.774  19.332  0.00  0.00    +0.000 OA
BRANCH  20  21
ATOM     21  C   UNL     1       3.517   2.088  18.598  0.00  0.00    +0.000 C 
ATOM     22  O   UNL     1       3.669   1.766  17.419  0.00  0.00    +0.000 OA
BRANCH  21  23
ATOM     23  C   UNL     1       2.278   1.781  19.441  0.00  0.00    +0.000 C 
BRANCH  23  24
ATOM     24  C   UNL     1       1.072   2.691  19.146  0.00  0.00    +0.000 C 
BRANCH  24  25
ATOM     25  C   UNL     1       0.680   3.569  20.347  0.00  0.00    +0.000 C 
BRANCH  25  26
ATOM     26  C   UNL     1       1.437   3.206  21.610  0.00  0.00    +0.000 C 
ATOM     27  O   UNL     1       1.225   2.223  22.302  0.00  0.00    +0.000 OA
BRANCH  26  28
ATOM     28  O   UNL     1       2.404   4.101  21.917  0.00  0.00    +0.000 OA
ATOM     29  H   UNL     1       2.757   4.012  22.825  0.00  0.00    +0.000 HD
ENDBRANCH  26  28
ENDBRANCH  25  26
ENDBRANCH  24  25
ENDBRANCH  23  24
ENDBRANCH  21  23
ENDBRANCH  20  21
ENDBRANCH  19  20
ENDBRANCH  10  19
TORSDOF 12
ENDMDL
MODEL 6
REMARK VINA RESULT:      -6.6      2.401      6.731
REMARK  Name = 
REMARK  15 active torsions:
REMARK  status: ('A' for Active; 'I' for Inactive)
REMARK    1  A    between atoms: C_1  and  C_2
REMARK    2  A    between atoms: C_2  and  C_3
REMARK    3  A    between atoms: C_3  and  C_4
REMARK    4  A    between atoms: C_3  and  C_5
REMARK    5  A    between atoms: C_5  and  O_7
REMARK    6  A    between atoms: O_7  and  C_8
REMARK    7  A    between atoms: C_15  and  C_16
REMARK    8  A    between atoms: C_17  and  C_18
REMARK    9  A    between atoms: C_18  and  O_19
REMARK   10  A    between atoms: O_19  and  C_20
REMARK   11  A    between atoms: C_20  and  C_22
REMARK   12  A    between atoms: C_22  and  C_23
REMARK   13  A    between atoms: C_23  and  C_24
REMARK   14  A    between atoms: C_24  and  C_25
REMARK   15  A    between atoms: C_25  and  O_27
REMARK                            x       y       z     vdW  Elec       q    Type
REMARK                         _______ _______ _______ _____ _____    ______ ____
ROOT
ATOM      1  C   UNL     1       2.849   6.486  18.851  0.00  0.00    +0.000 C 
ATOM      2  C   UNL     1       2.414   6.741  20.309  0.00  0.00    +0.000 C 
ATOM      3  C   UNL     1       1.706   5.604  21.031  0.00  0.00    +0.000 C 
ATOM      4  C   UNL     1       1.037   4.632  20.137  0.00  0.00    +0.000 C 
ATOM      5  C   UNL     1       1.478   4.387  18.896  0.00  0.00    +0.000 C 
ATOM      6  C   UNL     1       1.032   3.239  18.131  0.00  0.00    +0.000 C 
ATOM      7  C   UNL     1       1.893   2.236  18.373  0.00  0.00    +0.000 C 
ATOM      8  C   UNL     1       3.331   2.450  17.879  0.00  0.00    +0.000 C 
ATOM      9  C   UNL     1       4.142   1.286  18.466  0.00  0.00    +0.000 C 
ATOM     10  C   UNL     1       3.851   3.994  17.985  0.00  0.00    +0.000 C 
ATOM     11  C   UNL     1       2.677   5.055  18.261  0.00  0.00    +0.000 C 
ENDROOT
BRANCH   1  12
ATOM     12  O   UNL     1       1.946   7.284  18.006  0.00  0.00    +0.000 OA
BRANCH  12  13
ATOM     13  C   UNL     1       1.889   8.636  18.119  0.00  0.00    +0.000 C 
ATOM     14  O   UNL     1       2.739   9.412  17.700  0.00  0.00    +0.000 OA
BRANCH  13  15
ATOM     15  C   UNL     1       0.589   9.045  18.785  0.00  0.00    +0.000 C 
ATOM     16  C   UNL     1       0.937   9.798  20.067  0.00  0.00    +0.000 C 
BRANCH  15  18
ATOM     17  C   UNL     1      -0.411  11.363  18.350  0.00  0.00    +0.000 C 
ATOM     18  C   UNL     1      -0.313   9.915  17.889  0.00  0.00    +0.000 C 
ENDBRANCH  15  18
ENDBRANCH  13  15
ENDBRANCH  12  13
ENDBRANCH   1  12
BRANCH  10  19
ATOM     19  C   UNL     1       5.259   4.261  18.568  0.00  0.00    +0.000 C 
BRANCH  19  20
ATOM     20  O   UNL     1       5.987   5.330  17.890  0.00  0.00    +0.000 OA
BRANCH  20  21
ATOM     21  C   UNL     1       6.921   5.024  16.933  0.00  0.00    +0.000 C 
ATOM     22  O   UNL     1       7.947   4.378  17.155  0.00  0.00    +0.000 OA
BRANCH  21  23
ATOM     23  C   UNL     1       6.512   5.586  15.571  0.00  0.00    +0.000 C 
BRANCH  23  24
ATOM     24  C   UNL     1       6.939   4.717  14.374  0.00  0.00    +0.000 C 
BRANCH  24  25
ATOM     25  C   UNL     1       5.820   3.778  13.891  0.00  0.00    +0.000 C 
BRANCH  25  26
ATOM     26  C   UNL     1       5.904   3.479  12.407  0.00  0.00    +0.000 C 
ATOM     27  O   UNL     1       5.018   2.972  11.738  0.00  0.00    +0.000 OA
BRANCH  26  28
ATOM     28  O   UNL     1       7.092   3.837  11.868  0.00  0.00    +0.000 OA
ATOM     29  H   UNL     1       7.315   3.362  11.042  0.00  0.00    +0.000 HD
ENDBRANCH  26  28
ENDBRANCH  25  26
ENDBRANCH  24  25
ENDBRANCH  23  24
ENDBRANCH  21  23
ENDBRANCH  20  21
ENDBRANCH  19  20
ENDBRANCH  10  19
TORSDOF 12
ENDMDL
MODEL 7
REMARK VINA RESULT:      -6.6      2.660      6.844
REMARK  Name = 
REMARK  15 active torsions:
REMARK  status: ('A' for Active; 'I' for Inactive)
REMARK    1  A    between atoms: C_1  and  C_2
REMARK    2  A    between atoms: C_2  and  C_3
REMARK    3  A    between atoms: C_3  and  C_4
REMARK    4  A    between atoms: C_3  and  C_5
REMARK    5  A    between atoms: C_5  and  O_7
REMARK    6  A    between atoms: O_7  and  C_8
REMARK    7  A    between atoms: C_15  and  C_16
REMARK    8  A    between atoms: C_17  and  C_18
REMARK    9  A    between atoms: C_18  and  O_19
REMARK   10  A    between atoms: O_19  and  C_20
REMARK   11  A    between atoms: C_20  and  C_22
REMARK   12  A    between atoms: C_22  and  C_23
REMARK   13  A    between atoms: C_23  and  C_24
REMARK   14  A    between atoms: C_24  and  C_25
REMARK   15  A    between atoms: C_25  and  O_27
REMARK                            x       y       z     vdW  Elec       q    Type
REMARK                         _______ _______ _______ _____ _____    ______ ____
ROOT
ATOM      1  C   UNL     1       2.510   7.156  18.919  0.00  0.00    +0.000 C 
ATOM      2  C   UNL     1       2.115   7.068  20.408  0.00  0.00    +0.000 C 
ATOM      3  C   UNL     1       1.634   5.718  20.920  0.00  0.00    +0.000 C 
ATOM      4  C   UNL     1       1.082   4.827  19.874  0.00  0.00    +0.000 C 
ATOM      5  C   UNL     1       1.492   4.887  18.600  0.00  0.00    +0.000 C 
ATOM      6  C   UNL     1       1.196   3.839  17.643  0.00  0.00    +0.000 C 
ATOM      7  C   UNL     1       2.217   2.964  17.675  0.00  0.00    +0.000 C 
ATOM      8  C   UNL     1       3.575   3.499  17.200  0.00  0.00    +0.000 C 
ATOM      9  C   UNL     1       4.589   2.398  17.543  0.00  0.00    +0.000 C 
ATOM     10  C   UNL     1       3.849   5.063  17.583  0.00  0.00    +0.000 C 
ATOM     11  C   UNL     1       2.537   5.848  18.076  0.00  0.00    +0.000 C 
ENDROOT
BRANCH   1  12
ATOM     12  O   UNL     1       1.450   7.934  18.257  0.00  0.00    +0.000 OA
BRANCH  12  13
ATOM     13  C   UNL     1       1.457   9.291  18.278  0.00  0.00    +0.000 C 
ATOM     14  O   UNL     1       2.169  10.001  17.578  0.00  0.00    +0.000 OA
BRANCH  13  15
ATOM     15  C   UNL     1       0.408   9.800  19.250  0.00  0.00    +0.000 C 
ATOM     16  C   UNL     1       1.107  10.711  20.257  0.00  0.00    +0.000 C 
BRANCH  15  18
ATOM     17  C   UNL     1      -1.359   9.797  17.397  0.00  0.00    +0.000 C 
ATOM     18  C   UNL     1      -0.748  10.555  18.567  0.00  0.00    +0.000 C 
ENDBRANCH  15  18
ENDBRANCH  13  15
ENDBRANCH  12  13
ENDBRANCH   1  12
BRANCH  10  19
ATOM     19  C   UNL     1       5.224   5.449  18.176  0.00  0.00    +0.000 C 
BRANCH  19  20
ATOM     20  O   UNL     1       6.357   5.076  17.334  0.00  0.00    +0.000 OA
BRANCH  20  21
ATOM     21  C   UNL     1       6.917   6.000  16.489  0.00  0.00    +0.000 C 
ATOM     22  O   UNL     1       7.304   7.113  16.847  0.00  0.00    +0.000 OA
BRANCH  21  23
ATOM     23  C   UNL     1       6.996   5.457  15.061  0.00  0.00    +0.000 C 
BRANCH  23  24
ATOM     24  C   UNL     1       6.487   4.013  14.906  0.00  0.00    +0.000 C 
BRANCH  24  25
ATOM     25  C   UNL     1       5.529   3.844  13.714  0.00  0.00    +0.000 C 
BRANCH  25  26
ATOM     26  C   UNL     1       6.244   3.442  12.439  0.00  0.00    +0.000 C 
ATOM     27  O   UNL     1       7.142   4.073  11.904  0.00  0.00    +0.000 OA
BRANCH  26  28
ATOM     28  O   UNL     1       5.784   2.278  11.925  0.00  0.00    +0.000 OA
ATOM     29  H   UNL     1       5.423   2.357  11.019  0.00  0.00    +0.000 HD
ENDBRANCH  26  28
ENDBRANCH  25  26
ENDBRANCH  24  25
ENDBRANCH  23  24
ENDBRANCH  21  23
ENDBRANCH  20  21
ENDBRANCH  19  20
ENDBRANCH  10  19
TORSDOF 12
ENDMDL
MODEL 8
REMARK VINA RESULT:      -6.6      2.678      6.978
REMARK  Name = 
REMARK  15 active torsions:
REMARK  status: ('A' for Active; 'I' for Inactive)
REMARK    1  A    between atoms: C_1  and  C_2
REMARK    2  A    between atoms: C_2  and  C_3
REMARK    3  A    between atoms: C_3  and  C_4
REMARK    4  A    between atoms: C_3  and  C_5
REMARK    5  A    between atoms: C_5  and  O_7
REMARK    6  A    between atoms: O_7  and  C_8
REMARK    7  A    between atoms: C_15  and  C_16
REMARK    8  A    between atoms: C_17  and  C_18
REMARK    9  A    between atoms: C_18  and  O_19
REMARK   10  A    between atoms: O_19  and  C_20
REMARK   11  A    between atoms: C_20  and  C_22
REMARK   12  A    between atoms: C_22  and  C_23
REMARK   13  A    between atoms: C_23  and  C_24
REMARK   14  A    between atoms: C_24  and  C_25
REMARK   15  A    between atoms: C_25  and  O_27
REMARK                            x       y       z     vdW  Elec       q    Type
REMARK                         _______ _______ _______ _____ _____    ______ ____
ROOT
ATOM      1  C   UNL     1       2.410   7.184  19.169  0.00  0.00    +0.000 C 
ATOM      2  C   UNL     1       2.037   6.909  20.641  0.00  0.00    +0.000 C 
ATOM      3  C   UNL     1       1.663   5.480  21.006  0.00  0.00    +0.000 C 
ATOM      4  C   UNL     1       1.169   4.666  19.872  0.00  0.00    +0.000 C 
ATOM      5  C   UNL     1       1.561   4.892  18.611  0.00  0.00    +0.000 C 
ATOM      6  C   UNL     1       1.334   3.932  17.549  0.00  0.00    +0.000 C 
ATOM      7  C   UNL     1       2.417   3.138  17.485  0.00  0.00    +0.000 C 
ATOM      8  C   UNL     1       3.727   3.820  17.068  0.00  0.00    +0.000 C 
ATOM      9  C   UNL     1       4.824   2.768  17.289  0.00  0.00    +0.000 C 
ATOM     10  C   UNL     1       3.888   5.351  17.614  0.00  0.00    +0.000 C 
ATOM     11  C   UNL     1       2.527   5.978  18.191  0.00  0.00    +0.000 C 
ENDROOT
BRANCH   1  12
ATOM     12  O   UNL     1       1.290   7.947  18.596  0.00  0.00    +0.000 OA
BRANCH  12  13
ATOM     13  C   UNL     1       1.463   9.210  18.131  0.00  0.00    +0.000 C 
ATOM     14  O   UNL     1       2.350   9.559  17.361  0.00  0.00    +0.000 OA
BRANCH  13  15
ATOM     15  C   UNL     1       0.361  10.112  18.655  0.00  0.00    +0.000 C 
ATOM     16  C   UNL     1      -0.859   9.930  17.755  0.00  0.00    +0.000 C 
BRANCH  15  18
ATOM     17  C   UNL     1      -0.161  11.093  20.962  0.00  0.00    +0.000 C 
ATOM     18  C   UNL     1      -0.016   9.832  20.122  0.00  0.00    +0.000 C 
ENDBRANCH  15  18
ENDBRANCH  13  15
ENDBRANCH  12  13
ENDBRANCH   1  12
BRANCH  10  19
ATOM     19  C   UNL     1       5.237   5.773  18.243  0.00  0.00    +0.000 C 
BRANCH  19  20
ATOM     20  O   UNL     1       6.117   6.492  17.327  0.00  0.00    +0.000 OA
BRANCH  20  21
ATOM     21  C   UNL     1       6.040   6.259  15.977  0.00  0.00    +0.000 C 
ATOM     22  O   UNL     1       5.324   6.901  15.208  0.00  0.00    +0.000 OA
BRANCH  21  23
ATOM     23  C   UNL     1       6.960   5.107  15.568  0.00  0.00    +0.000 C 
BRANCH  23  24
ATOM     24  C   UNL     1       6.891   4.742  14.075  0.00  0.00    +0.000 C 
BRANCH  24  25
ATOM     25  C   UNL     1       5.712   3.811  13.743  0.00  0.00    +0.000 C 
BRANCH  25  26
ATOM     26  C   UNL     1       5.733   3.327  12.307  0.00  0.00    +0.000 C 
ATOM     27  O   UNL     1       4.747   3.057  11.639  0.00  0.00    +0.000 OA
BRANCH  26  28
ATOM     28  O   UNL     1       6.986   3.215  11.810  0.00  0.00    +0.000 OA
ATOM     29  H   UNL     1       7.039   2.716  10.970  0.00  0.00    +0.000 HD
ENDBRANCH  26  28
ENDBRANCH  25  26
ENDBRANCH  24  25
ENDBRANCH  23  24
ENDBRANCH  21  23
ENDBRANCH  20  21
ENDBRANCH  19  20
ENDBRANCH  10  19
TORSDOF 12
ENDMDL
MODEL 9
REMARK VINA RESULT:      -6.6      2.543      6.849
REMARK  Name = 
REMARK  15 active torsions:
REMARK  status: ('A' for Active; 'I' for Inactive)
REMARK    1  A    between atoms: C_1  and  C_2
REMARK    2  A    between atoms: C_2  and  C_3
REMARK    3  A    between atoms: C_3  and  C_4
REMARK    4  A    between atoms: C_3  and  C_5
REMARK    5  A    between atoms: C_5  and  O_7
REMARK    6  A    between atoms: O_7  and  C_8
REMARK    7  A    between atoms: C_15  and  C_16
REMARK    8  A    between atoms: C_17  and  C_18
REMARK    9  A    between atoms: C_18  and  O_19
REMARK   10  A    between atoms: O_19  and  C_20
REMARK   11  A    between atoms: C_20  and  C_22
REMARK   12  A    between atoms: C_22  and  C_23
REMARK   13  A    between atoms: C_23  and  C_24
REMARK   14  A    between atoms: C_24  and  C_25
REMARK   15  A    between atoms: C_25  and  O_27
REMARK                            x       y       z     vdW  Elec       q    Type
REMARK                         _______ _______ _______ _____ _____    ______ ____
ROOT
ATOM      1  C   UNL     1       2.628   6.927  19.205  0.00  0.00    +0.000 C 
ATOM      2  C   UNL     1       2.317   6.652  20.690  0.00  0.00    +0.000 C 
ATOM      3  C   UNL     1       1.884   5.240  21.058  0.00  0.00    +0.000 C 
ATOM      4  C   UNL     1       1.287   4.471  19.942  0.00  0.00    +0.000 C 
ATOM      5  C   UNL     1       1.626   4.694  18.665  0.00  0.00    +0.000 C 
ATOM      6  C   UNL     1       1.291   3.763  17.604  0.00  0.00    +0.000 C 
ATOM      7  C   UNL     1       2.324   2.913  17.475  0.00  0.00    +0.000 C 
ATOM      8  C   UNL     1       3.646   3.528  16.997  0.00  0.00    +0.000 C 
ATOM      9  C   UNL     1       4.693   2.415  17.148  0.00  0.00    +0.000 C 
ATOM     10  C   UNL     1       3.919   5.040  17.552  0.00  0.00    +0.000 C 
ATOM     11  C   UNL     1       2.626   5.732  18.208  0.00  0.00    +0.000 C 
ENDROOT
BRANCH   1  12
ATOM     12  O   UNL     1       1.523   7.759  18.700  0.00  0.00    +0.000 OA
BRANCH  12  13
ATOM     13  C   UNL     1       1.758   8.953  18.100  0.00  0.00    +0.000 C 
ATOM     14  O   UNL     1       2.568   9.139  17.201  0.00  0.00    +0.000 OA
BRANCH  13  15
ATOM     15  C   UNL     1       0.826  10.009  18.664  0.00  0.00    +0.000 C 
ATOM     16  C   UNL     1       0.424   9.575  20.072  0.00  0.00    +0.000 C 
BRANCH  15  18
ATOM     17  C   UNL     1       0.413  12.532  18.808  0.00  0.00    +0.000 C 
ATOM     18  C   UNL     1       1.445  11.419  18.701  0.00  0.00    +0.000 C 
ENDBRANCH  15  18
ENDBRANCH  13  15
ENDBRANCH  12  13
ENDBRANCH   1  12
BRANCH  10  19
ATOM     19  C   UNL     1       5.320   5.378  18.114  0.00  0.00    +0.000 C 
BRANCH  19  20
ATOM     20  O   UNL     1       6.233   5.943  17.125  0.00  0.00    +0.000 OA
BRANCH  20  21
ATOM     21  C   UNL     1       7.019   5.113  16.364  0.00  0.00    +0.000 C 
ATOM     22  O   UNL     1       7.863   4.347  16.831  0.00  0.00    +0.000 OA
BRANCH  21  23
ATOM     23  C   UNL     1       6.699   5.271  14.877  0.00  0.00    +0.000 C 
BRANCH  23  24
ATOM     24  C   UNL     1       6.048   4.032  14.236  0.00  0.00    +0.000 C 
BRANCH  24  25
ATOM     25  C   UNL     1       6.543   3.775  12.802  0.00  0.00    +0.000 C 
BRANCH  25  26
ATOM     26  C   UNL     1       5.588   2.914  11.998  0.00  0.00    +0.000 C 
ATOM     27  O   UNL     1       5.866   1.841  11.486  0.00  0.00    +0.000 OA
BRANCH  26  28
ATOM     28  O   UNL     1       4.354   3.458  11.893  0.00  0.00    +0.000 OA
ATOM     29  H   UNL     1       4.336   4.430  12.000  0.00  0.00    +0.000 HD
ENDBRANCH  26  28
ENDBRANCH  25  26
ENDBRANCH  24  25
ENDBRANCH  23  24
ENDBRANCH  21  23
ENDBRANCH  20  21
ENDBRANCH  19  20
ENDBRANCH  10  19
TORSDOF 12
ENDMDL
