MODEL 1
REMARK VINA RESULT:      -6.8      0.000      0.000
REMARK  Name = 
REMARK  17 active torsions:
REMARK  status: ('A' for Active; 'I' for Inactive)
REMARK    1  A    between atoms: C_1  and  C_2
REMARK    2  A    between atoms: C_2  and  N_3
REMARK    3  A    between atoms: N_3  and  C_4
REMARK    4  A    between atoms: N_3  and  C_6
REMARK    5  A    between atoms: C_4  and  C_5
REMARK    6  A    between atoms: C_6  and  C_7
REMARK    7  A    between atoms: C_7  and  C_8
REMARK    8  A    between atoms: C_8  and  C_9
REMARK    9  A    between atoms: C_9  and  C_10
REMARK   10  A    between atoms: C_10  and  C_11
REMARK   11  A    between atoms: C_11  and  O_12
REMARK   12  A    between atoms: O_12  and  C_13
REMARK   13  A    between atoms: C_16  and  C_17
REMARK   14  A    between atoms: C_18  and  C_19
REMARK   15  A    between atoms: N_21  and  C_22
REMARK   16  A    between atoms: C_29  and  O_30
REMARK   17  A    between atoms: O_30  and  C_31
REMARK                            x       y       z     vdW  Elec       q    Type
REMARK                         _______ _______ _______ _____ _____    ______ ____
ROOT
ATOM      1  C   UNL     1       4.454   5.126  17.172  0.00  0.00    +0.000 A 
ATOM      2  C   UNL     1       4.594   6.460  16.764  0.00  0.00    +0.000 A 
ATOM      3  C   UNL     1       3.670   7.439  17.140  0.00  0.00    +0.000 A 
ATOM      4  C   UNL     1       2.572   7.095  17.925  0.00  0.00    +0.000 A 
ATOM      5  C   UNL     1       2.424   5.760  18.321  0.00  0.00    +0.000 A 
ATOM      6  C   UNL     1       3.364   4.773  17.981  0.00  0.00    +0.000 A 
ENDROOT
BRANCH   4   7
ATOM      7  C   UNL     1       1.619   8.069  18.473  0.00  0.00    +0.000 C 
ATOM      8  C   UNL     1       1.789   9.397  18.546  0.00  0.00    +0.000 C 
BRANCH   8   9
ATOM      9  C   UNL     1       0.707  10.198  19.180  0.00  0.00    +0.000 C 
ATOM     10  O   UNL     1      -0.344  10.420  18.592  0.00  0.00    +0.000 OA
ATOM     11  N   UNL     1       1.047  10.649  20.436  0.00  0.00    +0.000 N 
ATOM     12  H   UNL     1       2.004  10.539  20.743  0.00  0.00    +0.000 HD
BRANCH  11  13
ATOM     13  C   UNL     1       0.193  11.359  21.303  0.00  0.00    +0.000 A 
ATOM     14  C   UNL     1       0.091  12.757  21.303  0.00  0.00    +0.000 A 
ATOM     15  C   UNL     1      -0.758  13.408  22.190  0.00  0.00    +0.000 A 
ATOM     16  C   UNL     1      -1.520  12.670  23.089  0.00  0.00    +0.000 A 
ATOM     17  C   UNL     1      -1.442  11.279  23.087  0.00  0.00    +0.000 A 
ATOM     18  C   UNL     1      -0.599  10.624  22.190  0.00  0.00    +0.000 A 
ENDBRANCH  11  13
ENDBRANCH   8   9
ENDBRANCH   4   7
BRANCH   6  19
ATOM     19  O   UNL     1       3.249   3.485  18.436  0.00  0.00    +0.000 OA
ATOM     20  C   UNL     1       4.019   3.148  19.591  0.00  0.00    +0.000 C 
ENDBRANCH   6  19
BRANCH   1  21
ATOM     21  O   UNL     1       5.517   4.341  16.806  0.00  0.00    +0.000 OA
BRANCH  21  22
ATOM     22  C   UNL     1       6.778   4.980  16.606  0.00  0.00    +0.000 C 
BRANCH  22  23
ATOM     23  C   UNL     1       7.639   4.754  17.857  0.00  0.00    +0.000 C 
BRANCH  23  24
ATOM     24  C   UNL     1       7.740   6.033  18.690  0.00  0.00    +0.000 C 
BRANCH  24  25
ATOM     25  C   UNL     1       7.761   7.310  17.843  0.00  0.00    +0.000 C 
BRANCH  25  26
ATOM     26  C   UNL     1       8.629   8.379  18.520  0.00  0.00    +0.000 C 
BRANCH  26  27
ATOM     27  C   UNL     1       8.254   9.823  18.150  0.00  0.00    +0.000 C 
BRANCH  27  28
ATOM     28  N   UNL     1       9.165  10.867  18.656  0.00  0.00    +0.000 NA
BRANCH  28  30
ATOM     29  C   UNL     1       9.171  11.608  21.072  0.00  0.00    +0.000 C 
ATOM     30  C   UNL     1       9.615  10.586  20.029  0.00  0.00    +0.000 C 
ENDBRANCH  28  30
BRANCH  28  31
ATOM     31  C   UNL     1      10.259  11.132  17.705  0.00  0.00    +0.000 C 
ATOM     32  C   UNL     1      10.798  12.560  17.666  0.00  0.00    +0.000 C 
ENDBRANCH  28  31
ENDBRANCH  27  28
ENDBRANCH  26  27
ENDBRANCH  25  26
ENDBRANCH  24  25
ENDBRANCH  23  24
ENDBRANCH  22  23
ENDBRANCH  21  22
ENDBRANCH   1  21
TORSDOF 14
ENDMDL
MODEL 2
REMARK VINA RESULT:      -6.8      4.123      8.915
REMARK  Name = 
REMARK  17 active torsions:
REMARK  status: ('A' for Active; 'I' for Inactive)
REMARK    1  A    between atoms: C_1  and  C_2
REMARK    2  A    between atoms: C_2  and  N_3
REMARK    3  A    between atoms: N_3  and  C_4
REMARK    4  A    between atoms: N_3  and  C_6
REMARK    5  A    between atoms: C_4  and  C_5
REMARK    6  A    between atoms: C_6  and  C_7
REMARK    7  A    between atoms: C_7  and  C_8
REMARK    8  A    between atoms: C_8  and  C_9
REMARK    9  A    between atoms: C_9  and  C_10
REMARK   10  A    between atoms: C_10  and  C_11
REMARK   11  A    between atoms: C_11  and  O_12
REMARK   12  A    between atoms: O_12  and  C_13
REMARK   13  A    between atoms: C_16  and  C_17
REMARK   14  A    between atoms: C_18  and  C_19
REMARK   15  A    between atoms: N_21  and  C_22
REMARK   16  A    between atoms: C_29  and  O_30
REMARK   17  A    between atoms: O_30  and  C_31
REMARK                            x       y       z     vdW  Elec       q    Type
REMARK                         _______ _______ _______ _____ _____    ______ ____
ROOT
ATOM      1  C   UNL     1       6.820   5.255  17.661  0.00  0.00    +0.000 A 
ATOM      2  C   UNL     1       7.439   5.393  18.911  0.00  0.00    +0.000 A 
ATOM      3  C   UNL     1       8.130   6.557  19.259  0.00  0.00    +0.000 A 
ATOM      4  C   UNL     1       8.227   7.607  18.348  0.00  0.00    +0.000 A 
ATOM      5  C   UNL     1       7.621   7.463  17.094  0.00  0.00    +0.000 A 
ATOM      6  C   UNL     1       6.892   6.314  16.745  0.00  0.00    +0.000 A 
ENDROOT
BRANCH   4   7
ATOM      7  C   UNL     1       8.821   8.913  18.663  0.00  0.00    +0.000 C 
ATOM      8  C   UNL     1       8.402  10.106  18.219  0.00  0.00    +0.000 C 
BRANCH   8   9
ATOM      9  C   UNL     1       9.179  11.308  18.630  0.00  0.00    +0.000 C 
ATOM     10  O   UNL     1       9.604  11.426  19.773  0.00  0.00    +0.000 OA
ATOM     11  N   UNL     1       9.319  12.223  17.611  0.00  0.00    +0.000 N 
ATOM     12  H   UNL     1       8.783  12.087  16.766  0.00  0.00    +0.000 HD
BRANCH  11  13
ATOM     13  C   UNL     1      10.073  13.412  17.686  0.00  0.00    +0.000 A 
ATOM     14  C   UNL     1      11.428  13.482  17.337  0.00  0.00    +0.000 A 
ATOM     15  C   UNL     1      12.128  14.679  17.442  0.00  0.00    +0.000 A 
ATOM     16  C   UNL     1      11.481  15.823  17.895  0.00  0.00    +0.000 A 
ATOM     17  C   UNL     1      10.129  15.771  18.229  0.00  0.00    +0.000 A 
ATOM     18  C   UNL     1       9.423  14.573  18.112  0.00  0.00    +0.000 A 
ENDBRANCH  11  13
ENDBRANCH   8   9
ENDBRANCH   4   7
BRANCH   6  19
ATOM     19  O   UNL     1       6.240   6.215  15.543  0.00  0.00    +0.000 OA
ATOM     20  C   UNL     1       4.900   6.707  15.505  0.00  0.00    +0.000 C 
ENDBRANCH   6  19
BRANCH   1  21
ATOM     21  O   UNL     1       6.094   4.097  17.550  0.00  0.00    +0.000 OA
BRANCH  21  22
ATOM     22  C   UNL     1       5.115   3.825  18.554  0.00  0.00    +0.000 C 
BRANCH  22  23
ATOM     23  C   UNL     1       3.832   4.591  18.200  0.00  0.00    +0.000 C 
BRANCH  23  24
ATOM     24  C   UNL     1       3.689   5.846  19.061  0.00  0.00    +0.000 C 
BRANCH  24  25
ATOM     25  C   UNL     1       2.246   6.128  19.490  0.00  0.00    +0.000 C 
BRANCH  25  26
ATOM     26  C   UNL     1       1.897   5.313  20.741  0.00  0.00    +0.000 C 
BRANCH  26  27
ATOM     27  C   UNL     1       0.906   4.164  20.490  0.00  0.00    +0.000 C 
BRANCH  27  28
ATOM     28  N   UNL     1       1.422   2.808  20.758  0.00  0.00    +0.000 NA
BRANCH  28  30
ATOM     29  C   UNL     1       0.769   2.485  18.339  0.00  0.00    +0.000 C 
ATOM     30  C   UNL     1       1.634   2.045  19.517  0.00  0.00    +0.000 C 
ENDBRANCH  28  30
BRANCH  28  31
ATOM     31  C   UNL     1       2.595   2.848  21.650  0.00  0.00    +0.000 C 
ATOM     32  C   UNL     1       3.824   2.067  21.193  0.00  0.00    +0.000 C 
ENDBRANCH  28  31
ENDBRANCH  27  28
ENDBRANCH  26  27
ENDBRANCH  25  26
ENDBRANCH  24  25
ENDBRANCH  23  24
ENDBRANCH  22  23
ENDBRANCH  21  22
ENDBRANCH   1  21
TORSDOF 14
ENDMDL
MODEL 3
REMARK VINA RESULT:      -6.6      2.449      3.239
REMARK  Name = 
REMARK  17 active torsions:
REMARK  status: ('A' for Active; 'I' for Inactive)
REMARK    1  A    between atoms: C_1  and  C_2
REMARK    2  A    between atoms: C_2  and  N_3
REMARK    3  A    between atoms: N_3  and  C_4
REMARK    4  A    between atoms: N_3  and  C_6
REMARK    5  A    between atoms: C_4  and  C_5
REMARK    6  A    between atoms: C_6  and  C_7
REMARK    7  A    between atoms: C_7  and  C_8
REMARK    8  A    between atoms: C_8  and  C_9
REMARK    9  A    between atoms: C_9  and  C_10
REMARK   10  A    between atoms: C_10  and  C_11
REMARK   11  A    between atoms: C_11  and  O_12
REMARK   12  A    between atoms: O_12  and  C_13
REMARK   13  A    between atoms: C_16  and  C_17
REMARK   14  A    between atoms: C_18  and  C_19
REMARK   15  A    between atoms: N_21  and  C_22
REMARK   16  A    between atoms: C_29  and  O_30
REMARK   17  A    between atoms: O_30  and  C_31
REMARK                            x       y       z     vdW  Elec       q    Type
REMARK                         _______ _______ _______ _____ _____    ______ ____
ROOT
ATOM      1  C   UNL     1       4.822   5.917  18.235  0.00  0.00    +0.000 A 
ATOM      2  C   UNL     1       4.837   6.864  17.202  0.00  0.00    +0.000 A 
ATOM      3  C   UNL     1       3.775   7.752  17.009  0.00  0.00    +0.000 A 
ATOM      4  C   UNL     1       2.661   7.697  17.845  0.00  0.00    +0.000 A 
ATOM      5  C   UNL     1       2.639   6.741  18.868  0.00  0.00    +0.000 A 
ATOM      6  C   UNL     1       3.715   5.867  19.096  0.00  0.00    +0.000 A 
ENDROOT
BRANCH   4   7
ATOM      7  C   UNL     1       1.555   8.663  17.802  0.00  0.00    +0.000 C 
ATOM      8  C   UNL     1       1.536   9.876  18.370  0.00  0.00    +0.000 C 
BRANCH   8   9
ATOM      9  C   UNL     1       0.290  10.681  18.238  0.00  0.00    +0.000 C 
ATOM     10  O   UNL     1       0.244  11.844  18.620  0.00  0.00    +0.000 OA
ATOM     11  N   UNL     1      -0.747   9.965  17.684  0.00  0.00    +0.000 N 
ATOM     12  H   UNL     1      -0.633   8.968  17.564  0.00  0.00    +0.000 HD
BRANCH  11  13
ATOM     13  C   UNL     1      -2.016  10.488  17.364  0.00  0.00    +0.000 A 
ATOM     14  C   UNL     1      -2.517  10.536  16.056  0.00  0.00    +0.000 A 
ATOM     15  C   UNL     1      -3.771  11.077  15.794  0.00  0.00    +0.000 A 
ATOM     16  C   UNL     1      -4.543  11.575  16.838  0.00  0.00    +0.000 A 
ATOM     17  C   UNL     1      -4.064  11.517  18.146  0.00  0.00    +0.000 A 
ATOM     18  C   UNL     1      -2.811  10.964  18.410  0.00  0.00    +0.000 A 
ENDBRANCH  11  13
ENDBRANCH   8   9
ENDBRANCH   4   7
BRANCH   6  19
ATOM     19  O   UNL     1       3.715   4.986  20.147  0.00  0.00    +0.000 OA
ATOM     20  C   UNL     1       3.301   3.651  19.856  0.00  0.00    +0.000 C 
ENDBRANCH   6  19
BRANCH   1  21
ATOM     21  O   UNL     1       5.998   5.220  18.339  0.00  0.00    +0.000 OA
BRANCH  21  22
ATOM     22  C   UNL     1       7.130   5.714  17.623  0.00  0.00    +0.000 C 
BRANCH  22  23
ATOM     23  C   UNL     1       7.769   6.842  18.446  0.00  0.00    +0.000 C 
BRANCH  23  24
ATOM     24  C   UNL     1       8.239   7.981  17.540  0.00  0.00    +0.000 C 
BRANCH  24  25
ATOM     25  C   UNL     1       7.820   9.367  18.039  0.00  0.00    +0.000 C 
BRANCH  25  26
ATOM     26  C   UNL     1       8.948   9.993  18.870  0.00  0.00    +0.000 C 
BRANCH  26  27
ATOM     27  C   UNL     1       9.814  11.003  18.098  0.00  0.00    +0.000 C 
BRANCH  27  28
ATOM     28  N   UNL     1      11.057  11.423  18.773  0.00  0.00    +0.000 NA
BRANCH  28  30
ATOM     29  C   UNL     1      10.863  13.183  16.972  0.00  0.00    +0.000 C 
ATOM     30  C   UNL     1      11.688  12.569  18.100  0.00  0.00    +0.000 C 
ENDBRANCH  28  30
BRANCH  28  31
ATOM     31  C   UNL     1      10.843  11.615  20.219  0.00  0.00    +0.000 C 
ATOM     32  C   UNL     1      10.517  13.035  20.676  0.00  0.00    +0.000 C 
ENDBRANCH  28  31
ENDBRANCH  27  28
ENDBRANCH  26  27
ENDBRANCH  25  26
ENDBRANCH  24  25
ENDBRANCH  23  24
ENDBRANCH  22  23
ENDBRANCH  21  22
ENDBRANCH   1  21
TORSDOF 14
ENDMDL
MODEL 4
REMARK VINA RESULT:      -6.6      2.359      8.384
REMARK  Name = 
REMARK  17 active torsions:
REMARK  status: ('A' for Active; 'I' for Inactive)
REMARK    1  A    between atoms: C_1  and  C_2
REMARK    2  A    between atoms: C_2  and  N_3
REMARK    3  A    between atoms: N_3  and  C_4
REMARK    4  A    between atoms: N_3  and  C_6
REMARK    5  A    between atoms: C_4  and  C_5
REMARK    6  A    between atoms: C_6  and  C_7
REMARK    7  A    between atoms: C_7  and  C_8
REMARK    8  A    between atoms: C_8  and  C_9
REMARK    9  A    between atoms: C_9  and  C_10
REMARK   10  A    between atoms: C_10  and  C_11
REMARK   11  A    between atoms: C_11  and  O_12
REMARK   12  A    between atoms: O_12  and  C_13
REMARK   13  A    between atoms: C_16  and  C_17
REMARK   14  A    between atoms: C_18  and  C_19
REMARK   15  A    between atoms: N_21  and  C_22
REMARK   16  A    between atoms: C_29  and  O_30
REMARK   17  A    between atoms: O_30  and  C_31
REMARK                            x       y       z     vdW  Elec       q    Type
REMARK                         _______ _______ _______ _____ _____    ______ ____
ROOT
ATOM      1  C   UNL     1       6.413   5.456  17.800  0.00  0.00    +0.000 A 
ATOM      2  C   UNL     1       7.264   5.617  18.902  0.00  0.00    +0.000 A 
ATOM      3  C   UNL     1       8.026   6.776  19.073  0.00  0.00    +0.000 A 
ATOM      4  C   UNL     1       7.964   7.796  18.126  0.00  0.00    +0.000 A 
ATOM      5  C   UNL     1       7.126   7.629  17.016  0.00  0.00    +0.000 A 
ATOM      6  C   UNL     1       6.325   6.487  16.852  0.00  0.00    +0.000 A 
ENDROOT
BRANCH   4   7
ATOM      7  C   UNL     1       8.628   9.098  18.278  0.00  0.00    +0.000 C 
ATOM      8  C   UNL     1       9.097   9.624  19.418  0.00  0.00    +0.000 C 
BRANCH   8   9
ATOM      9  C   UNL     1       9.701  10.983  19.353  0.00  0.00    +0.000 C 
ATOM     10  O   UNL     1      10.373  11.422  20.279  0.00  0.00    +0.000 OA
ATOM     11  N   UNL     1       9.393  11.646  18.186  0.00  0.00    +0.000 N 
ATOM     12  H   UNL     1       8.696  11.244  17.575  0.00  0.00    +0.000 HD
BRANCH  11  13
ATOM     13  C   UNL     1       9.892  12.911  17.815  0.00  0.00    +0.000 A 
ATOM     14  C   UNL     1       9.279  14.115  18.186  0.00  0.00    +0.000 A 
ATOM     15  C   UNL     1       9.805  15.336  17.780  0.00  0.00    +0.000 A 
ATOM     16  C   UNL     1      10.955  15.369  16.999  0.00  0.00    +0.000 A 
ATOM     17  C   UNL     1      11.584  14.180  16.637  0.00  0.00    +0.000 A 
ATOM     18  C   UNL     1      11.063  12.955  17.054  0.00  0.00    +0.000 A 
ENDBRANCH  11  13
ENDBRANCH   8   9
ENDBRANCH   4   7
BRANCH   6  19
ATOM     19  O   UNL     1       5.452   6.367  15.801  0.00  0.00    +0.000 OA
ATOM     20  C   UNL     1       5.785   5.398  14.806  0.00  0.00    +0.000 C 
ENDBRANCH   6  19
BRANCH   1  21
ATOM     21  O   UNL     1       5.661   4.312  17.868  0.00  0.00    +0.000 OA
BRANCH  21  22
ATOM     22  C   UNL     1       4.240   4.449  17.889  0.00  0.00    +0.000 C 
BRANCH  22  23
ATOM     23  C   UNL     1       3.861   5.389  19.042  0.00  0.00    +0.000 C 
BRANCH  23  24
ATOM     24  C   UNL     1       2.590   6.173  18.715  0.00  0.00    +0.000 C 
BRANCH  24  25
ATOM     25  C   UNL     1       2.863   7.592  18.207  0.00  0.00    +0.000 C 
BRANCH  25  26
ATOM     26  C   UNL     1       1.541   8.310  17.907  0.00  0.00    +0.000 C 
BRANCH  26  27
ATOM     27  C   UNL     1       1.522   9.793  18.312  0.00  0.00    +0.000 C 
BRANCH  27  28
ATOM     28  N   UNL     1       0.716  10.117  19.505  0.00  0.00    +0.000 NA
BRANCH  28  30
ATOM     29  C   UNL     1      -1.151  10.478  17.841  0.00  0.00    +0.000 C 
ATOM     30  C   UNL     1      -0.728  10.021  19.235  0.00  0.00    +0.000 C 
ENDBRANCH  28  30
BRANCH  28  31
ATOM     31  C   UNL     1       1.163   9.348  20.680  0.00  0.00    +0.000 C 
ATOM     32  C   UNL     1       0.077   8.624  21.472  0.00  0.00    +0.000 C 
ENDBRANCH  28  31
ENDBRANCH  27  28
ENDBRANCH  26  27
ENDBRANCH  25  26
ENDBRANCH  24  25
ENDBRANCH  23  24
ENDBRANCH  22  23
ENDBRANCH  21  22
ENDBRANCH   1  21
TORSDOF 14
ENDMDL
MODEL 5
REMARK VINA RESULT:      -6.6      2.376      7.874
REMARK  Name = 
REMARK  17 active torsions:
REMARK  status: ('A' for Active; 'I' for Inactive)
REMARK    1  A    between atoms: C_1  and  C_2
REMARK    2  A    between atoms: C_2  and  N_3
REMARK    3  A    between atoms: N_3  and  C_4
REMARK    4  A    between atoms: N_3  and  C_6
REMARK    5  A    between atoms: C_4  and  C_5
REMARK    6  A    between atoms: C_6  and  C_7
REMARK    7  A    between atoms: C_7  and  C_8
REMARK    8  A    between atoms: C_8  and  C_9
REMARK    9  A    between atoms: C_9  and  C_10
REMARK   10  A    between atoms: C_10  and  C_11
REMARK   11  A    between atoms: C_11  and  O_12
REMARK   12  A    between atoms: O_12  and  C_13
REMARK   13  A    between atoms: C_16  and  C_17
REMARK   14  A    between atoms: C_18  and  C_19
REMARK   15  A    between atoms: N_21  and  C_22
REMARK   16  A    between atoms: C_29  and  O_30
REMARK   17  A    between atoms: O_30  and  C_31
REMARK                            x       y       z     vdW  Elec       q    Type
REMARK                         _______ _______ _______ _____ _____    ______ ____
ROOT
ATOM      1  C   UNL     1       5.954   4.678  17.367  0.00  0.00    +0.000 A 
ATOM      2  C   UNL     1       6.568   5.025  18.579  0.00  0.00    +0.000 A 
ATOM      3  C   UNL     1       7.238   6.241  18.736  0.00  0.00    +0.000 A 
ATOM      4  C   UNL     1       7.321   7.133  17.669  0.00  0.00    +0.000 A 
ATOM      5  C   UNL     1       6.721   6.781  16.453  0.00  0.00    +0.000 A 
ATOM      6  C   UNL     1       6.012   5.578  16.293  0.00  0.00    +0.000 A 
ENDROOT
BRANCH   4   7
ATOM      7  C   UNL     1       7.893   8.483  17.770  0.00  0.00    +0.000 C 
ATOM      8  C   UNL     1       8.708   8.931  18.735  0.00  0.00    +0.000 C 
BRANCH   8   9
ATOM      9  C   UNL     1       9.140  10.354  18.667  0.00  0.00    +0.000 C 
ATOM     10  O   UNL     1       8.896  11.043  17.683  0.00  0.00    +0.000 OA
ATOM     11  N   UNL     1       9.833  10.753  19.788  0.00  0.00    +0.000 N 
ATOM     12  H   UNL     1      10.112  10.048  20.456  0.00  0.00    +0.000 HD
BRANCH  11  13
ATOM     13  C   UNL     1      10.291  12.062  20.037  0.00  0.00    +0.000 A 
ATOM     14  C   UNL     1      11.448  12.593  19.451  0.00  0.00    +0.000 A 
ATOM     15  C   UNL     1      11.863  13.888  19.743  0.00  0.00    +0.000 A 
ATOM     16  C   UNL     1      11.124  14.671  20.623  0.00  0.00    +0.000 A 
ATOM     17  C   UNL     1       9.961  14.161  21.198  0.00  0.00    +0.000 A 
ATOM     18  C   UNL     1       9.538  12.866  20.897  0.00  0.00    +0.000 A 
ENDBRANCH  11  13
ENDBRANCH   8   9
ENDBRANCH   4   7
BRANCH   6  19
ATOM     19  O   UNL     1       5.364   5.277  15.123  0.00  0.00    +0.000 OA
ATOM     20  C   UNL     1       6.047   4.401  14.226  0.00  0.00    +0.000 C 
ENDBRANCH   6  19
BRANCH   1  21
ATOM     21  O   UNL     1       5.248   3.505  17.443  0.00  0.00    +0.000 OA
BRANCH  21  22
ATOM     22  C   UNL     1       3.823   3.580  17.372  0.00  0.00    +0.000 C 
BRANCH  22  23
ATOM     23  C   UNL     1       3.324   4.432  18.547  0.00  0.00    +0.000 C 
BRANCH  23  24
ATOM     24  C   UNL     1       2.438   5.577  18.055  0.00  0.00    +0.000 C 
BRANCH  24  25
ATOM     25  C   UNL     1       2.724   6.910  18.754  0.00  0.00    +0.000 C 
BRANCH  25  26
ATOM     26  C   UNL     1       2.621   8.066  17.750  0.00  0.00    +0.000 C 
BRANCH  26  27
ATOM     27  C   UNL     1       2.095   9.380  18.352  0.00  0.00    +0.000 C 
BRANCH  27  28
ATOM     28  N   UNL     1       0.807   9.283  19.065  0.00  0.00    +0.000 NA
BRANCH  28  30
ATOM     29  C   UNL     1      -0.139   8.875  21.371  0.00  0.00    +0.000 C 
ATOM     30  C   UNL     1       0.963   9.491  20.514  0.00  0.00    +0.000 C 
ENDBRANCH  28  30
BRANCH  28  31
ATOM     31  C   UNL     1      -0.218  10.138  18.439  0.00  0.00    +0.000 C 
ATOM     32  C   UNL     1      -0.116  11.636  18.716  0.00  0.00    +0.000 C 
ENDBRANCH  28  31
ENDBRANCH  27  28
ENDBRANCH  26  27
ENDBRANCH  25  26
ENDBRANCH  24  25
ENDBRANCH  23  24
ENDBRANCH  22  23
ENDBRANCH  21  22
ENDBRANCH   1  21
TORSDOF 14
ENDMDL
MODEL 6
REMARK VINA RESULT:      -6.6      3.824      8.327
REMARK  Name = 
REMARK  17 active torsions:
REMARK  status: ('A' for Active; 'I' for Inactive)
REMARK    1  A    between atoms: C_1  and  C_2
REMARK    2  A    between atoms: C_2  and  N_3
REMARK    3  A    between atoms: N_3  and  C_4
REMARK    4  A    between atoms: N_3  and  C_6
REMARK    5  A    between atoms: C_4  and  C_5
REMARK    6  A    between atoms: C_6  and  C_7
REMARK    7  A    between atoms: C_7  and  C_8
REMARK    8  A    between atoms: C_8  and  C_9
REMARK    9  A    between atoms: C_9  and  C_10
REMARK   10  A    between atoms: C_10  and  C_11
REMARK   11  A    between atoms: C_11  and  O_12
REMARK   12  A    between atoms: O_12  and  C_13
REMARK   13  A    between atoms: C_16  and  C_17
REMARK   14  A    between atoms: C_18  and  C_19
REMARK   15  A    between atoms: N_21  and  C_22
REMARK   16  A    between atoms: C_29  and  O_30
REMARK   17  A    between atoms: O_30  and  C_31
REMARK                            x       y       z     vdW  Elec       q    Type
REMARK                         _______ _______ _______ _____ _____    ______ ____
ROOT
ATOM      1  C   UNL     1       6.344   4.505  17.928  0.00  0.00    +0.000 A 
ATOM      2  C   UNL     1       6.550   5.212  19.121  0.00  0.00    +0.000 A 
ATOM      3  C   UNL     1       7.155   6.472  19.128  0.00  0.00    +0.000 A 
ATOM      4  C   UNL     1       7.583   7.045  17.932  0.00  0.00    +0.000 A 
ATOM      5  C   UNL     1       7.391   6.332  16.741  0.00  0.00    +0.000 A 
ATOM      6  C   UNL     1       6.750   5.082  16.716  0.00  0.00    +0.000 A 
ENDROOT
BRANCH   4   7
ATOM      7  C   UNL     1       8.114   8.410  17.820  0.00  0.00    +0.000 C 
ATOM      8  C   UNL     1       8.711   9.114  18.792  0.00  0.00    +0.000 C 
BRANCH   8   9
ATOM      9  C   UNL     1       9.139  10.504  18.474  0.00  0.00    +0.000 C 
ATOM     10  O   UNL     1       8.496  11.203  17.700  0.00  0.00    +0.000 OA
ATOM     11  N   UNL     1      10.306  10.859  19.114  0.00  0.00    +0.000 N 
ATOM     12  H   UNL     1      10.829  10.140  19.594  0.00  0.00    +0.000 HD
BRANCH  11  13
ATOM     13  C   UNL     1      10.902  12.136  19.066  0.00  0.00    +0.000 A 
ATOM     14  C   UNL     1      10.707  13.109  20.055  0.00  0.00    +0.000 A 
ATOM     15  C   UNL     1      11.309  14.358  19.951  0.00  0.00    +0.000 A 
ATOM     16  C   UNL     1      12.117  14.650  18.858  0.00  0.00    +0.000 A 
ATOM     17  C   UNL     1      12.333  13.684  17.877  0.00  0.00    +0.000 A 
ATOM     18  C   UNL     1      11.739  12.427  17.986  0.00  0.00    +0.000 A 
ENDBRANCH  11  13
ENDBRANCH   8   9
ENDBRANCH   4   7
BRANCH   6  19
ATOM     19  O   UNL     1       6.500   4.427  15.538  0.00  0.00    +0.000 OA
ATOM     20  C   UNL     1       5.342   4.845  14.813  0.00  0.00    +0.000 C 
ENDBRANCH   6  19
BRANCH   1  21
ATOM     21  O   UNL     1       5.632   3.347  18.110  0.00  0.00    +0.000 OA
BRANCH  21  22
ATOM     22  C   UNL     1       4.845   3.229  19.295  0.00  0.00    +0.000 C 
BRANCH  22  23
ATOM     23  C   UNL     1       4.070   1.905  19.233  0.00  0.00    +0.000 C 
BRANCH  23  24
ATOM     24  C   UNL     1       2.701   2.103  18.582  0.00  0.00    +0.000 C 
BRANCH  24  25
ATOM     25  C   UNL     1       2.701   3.158  17.472  0.00  0.00    +0.000 C 
BRANCH  25  26
ATOM     26  C   UNL     1       1.379   3.936  17.481  0.00  0.00    +0.000 C 
BRANCH  26  27
ATOM     27  C   UNL     1       1.503   5.385  17.980  0.00  0.00    +0.000 C 
BRANCH  27  28
ATOM     28  N   UNL     1       2.809   5.749  18.562  0.00  0.00    +0.000 NA
BRANCH  28  30
ATOM     29  C   UNL     1       2.721   8.134  17.734  0.00  0.00    +0.000 C 
ATOM     30  C   UNL     1       3.479   6.810  17.792  0.00  0.00    +0.000 C 
ENDBRANCH  28  30
BRANCH  28  31
ATOM     31  C   UNL     1       2.693   6.031  20.004  0.00  0.00    +0.000 C 
ATOM     32  C   UNL     1       1.938   5.001  20.841  0.00  0.00    +0.000 C 
ENDBRANCH  28  31
ENDBRANCH  27  28
ENDBRANCH  26  27
ENDBRANCH  25  26
ENDBRANCH  24  25
ENDBRANCH  23  24
ENDBRANCH  22  23
ENDBRANCH  21  22
ENDBRANCH   1  21
TORSDOF 14
ENDMDL
MODEL 7
REMARK VINA RESULT:      -6.4      4.243      8.710
REMARK  Name = 
REMARK  17 active torsions:
REMARK  status: ('A' for Active; 'I' for Inactive)
REMARK    1  A    between atoms: C_1  and  C_2
REMARK    2  A    between atoms: C_2  and  N_3
REMARK    3  A    between atoms: N_3  and  C_4
REMARK    4  A    between atoms: N_3  and  C_6
REMARK    5  A    between atoms: C_4  and  C_5
REMARK    6  A    between atoms: C_6  and  C_7
REMARK    7  A    between atoms: C_7  and  C_8
REMARK    8  A    between atoms: C_8  and  C_9
REMARK    9  A    between atoms: C_9  and  C_10
REMARK   10  A    between atoms: C_10  and  C_11
REMARK   11  A    between atoms: C_11  and  O_12
REMARK   12  A    between atoms: O_12  and  C_13
REMARK   13  A    between atoms: C_16  and  C_17
REMARK   14  A    between atoms: C_18  and  C_19
REMARK   15  A    between atoms: N_21  and  C_22
REMARK   16  A    between atoms: C_29  and  O_30
REMARK   17  A    between atoms: O_30  and  C_31
REMARK                            x       y       z     vdW  Elec       q    Type
REMARK                         _______ _______ _______ _____ _____    ______ ____
ROOT
ATOM      1  C   UNL     1       6.738   6.121  17.891  0.00  0.00    +0.000 A 
ATOM      2  C   UNL     1       7.826   6.256  18.766  0.00  0.00    +0.000 A 
ATOM      3  C   UNL     1       8.506   7.469  18.903  0.00  0.00    +0.000 A 
ATOM      4  C   UNL     1       8.119   8.574  18.148  0.00  0.00    +0.000 A 
ATOM      5  C   UNL     1       7.042   8.436  17.262  0.00  0.00    +0.000 A 
ATOM      6  C   UNL     1       6.325   7.234  17.143  0.00  0.00    +0.000 A 
ENDROOT
BRANCH   4   7
ATOM      7  C   UNL     1       8.688   9.919  18.310  0.00  0.00    +0.000 C 
ATOM      8  C   UNL     1       9.501  10.326  19.294  0.00  0.00    +0.000 C 
BRANCH   8   9
ATOM      9  C   UNL     1       9.931  11.751  19.290  0.00  0.00    +0.000 C 
ATOM     10  O   UNL     1      10.398  12.274  20.294  0.00  0.00    +0.000 OA
ATOM     11  N   UNL     1       9.714  12.367  18.077  0.00  0.00    +0.000 N 
ATOM     12  H   UNL     1       9.171  11.877  17.380  0.00  0.00    +0.000 HD
BRANCH  11  13
ATOM     13  C   UNL     1      10.097  13.685  17.756  0.00  0.00    +0.000 A 
ATOM     14  C   UNL     1      11.317  14.001  17.144  0.00  0.00    +0.000 A 
ATOM     15  C   UNL     1      11.650  15.321  16.861  0.00  0.00    +0.000 A 
ATOM     16  C   UNL     1      10.765  16.343  17.185  0.00  0.00    +0.000 A 
ATOM     17  C   UNL     1       9.541  16.041  17.778  0.00  0.00    +0.000 A 
ATOM     18  C   UNL     1       9.201  14.716  18.051  0.00  0.00    +0.000 A 
ENDBRANCH  11  13
ENDBRANCH   8   9
ENDBRANCH   4   7
BRANCH   6  19
ATOM     19  O   UNL     1       5.227   7.131  16.329  0.00  0.00    +0.000 OA
ATOM     20  C   UNL     1       3.962   7.413  16.930  0.00  0.00    +0.000 C 
ENDBRANCH   6  19
BRANCH   1  21
ATOM     21  O   UNL     1       6.128   4.897  17.983  0.00  0.00    +0.000 OA
BRANCH  21  22
ATOM     22  C   UNL     1       6.404   3.937  16.963  0.00  0.00    +0.000 C 
BRANCH  22  23
ATOM     23  C   UNL     1       5.238   3.939  15.966  0.00  0.00    +0.000 C 
BRANCH  23  24
ATOM     24  C   UNL     1       3.901   3.756  16.686  0.00  0.00    +0.000 C 
BRANCH  24  25
ATOM     25  C   UNL     1       3.871   2.534  17.610  0.00  0.00    +0.000 C 
BRANCH  25  26
ATOM     26  C   UNL     1       2.421   2.113  17.881  0.00  0.00    +0.000 C 
BRANCH  26  27
ATOM     27  C   UNL     1       1.462   3.286  18.143  0.00  0.00    +0.000 C 
BRANCH  27  28
ATOM     28  N   UNL     1       1.483   3.833  19.513  0.00  0.00    +0.000 NA
BRANCH  28  30
ATOM     29  C   UNL     1       1.407   2.681  21.761  0.00  0.00    +0.000 C 
ATOM     30  C   UNL     1       2.160   2.927  20.456  0.00  0.00    +0.000 C 
ENDBRANCH  28  30
BRANCH  28  31
ATOM     31  C   UNL     1       1.995   5.215  19.531  0.00  0.00    +0.000 C 
ATOM     32  C   UNL     1       3.431   5.403  20.015  0.00  0.00    +0.000 C 
ENDBRANCH  28  31
ENDBRANCH  27  28
ENDBRANCH  26  27
ENDBRANCH  25  26
ENDBRANCH  24  25
ENDBRANCH  23  24
ENDBRANCH  22  23
ENDBRANCH  21  22
ENDBRANCH   1  21
TORSDOF 14
ENDMDL
MODEL 8
REMARK VINA RESULT:      -6.3      2.750      8.093
REMARK  Name = 
REMARK  17 active torsions:
REMARK  status: ('A' for Active; 'I' for Inactive)
REMARK    1  A    between atoms: C_1  and  C_2
REMARK    2  A    between atoms: C_2  and  N_3
REMARK    3  A    between atoms: N_3  and  C_4
REMARK    4  A    between atoms: N_3  and  C_6
REMARK    5  A    between atoms: C_4  and  C_5
REMARK    6  A    between atoms: C_6  and  C_7
REMARK    7  A    between atoms: C_7  and  C_8
REMARK    8  A    between atoms: C_8  and  C_9
REMARK    9  A    between atoms: C_9  and  C_10
REMARK   10  A    between atoms: C_10  and  C_11
REMARK   11  A    between atoms: C_11  and  O_12
REMARK   12  A    between atoms: O_12  and  C_13
REMARK   13  A    between atoms: C_16  and  C_17
REMARK   14  A    between atoms: C_18  and  C_19
REMARK   15  A    between atoms: N_21  and  C_22
REMARK   16  A    between atoms: C_29  and  O_30
REMARK   17  A    between atoms: O_30  and  C_31
REMARK                            x       y       z     vdW  Elec       q    Type
REMARK                         _______ _______ _______ _____ _____    ______ ____
ROOT
ATOM      1  C   UNL     1       7.019   5.521  18.015  0.00  0.00    +0.000 A 
ATOM      2  C   UNL     1       7.748   5.819  19.175  0.00  0.00    +0.000 A 
ATOM      3  C   UNL     1       8.400   7.045  19.332  0.00  0.00    +0.000 A 
ATOM      4  C   UNL     1       8.348   7.997  18.316  0.00  0.00    +0.000 A 
ATOM      5  C   UNL     1       7.633   7.693  17.150  0.00  0.00    +0.000 A 
ATOM      6  C   UNL     1       6.941   6.480  16.995  0.00  0.00    +0.000 A 
ENDROOT
BRANCH   4   7
ATOM      7  C   UNL     1       8.893   9.356  18.435  0.00  0.00    +0.000 C 
ATOM      8  C   UNL     1       9.121  10.024  19.574  0.00  0.00    +0.000 C 
BRANCH   8   9
ATOM      9  C   UNL     1       9.642  11.415  19.465  0.00  0.00    +0.000 C 
ATOM     10  O   UNL     1      10.378  11.884  20.325  0.00  0.00    +0.000 OA
ATOM     11  N   UNL     1       9.184  12.067  18.343  0.00  0.00    +0.000 N 
ATOM     12  H   UNL     1       8.452  11.631  17.799  0.00  0.00    +0.000 HD
BRANCH  11  13
ATOM     13  C   UNL     1       9.574  13.360  17.938  0.00  0.00    +0.000 A 
ATOM     14  C   UNL     1      10.795  13.628  17.305  0.00  0.00    +0.000 A 
ATOM     15  C   UNL     1      11.136  14.925  16.939  0.00  0.00    +0.000 A 
ATOM     16  C   UNL     1      10.259  15.972  17.199  0.00  0.00    +0.000 A 
ATOM     17  C   UNL     1       9.034  15.716  17.811  0.00  0.00    +0.000 A 
ATOM     18  C   UNL     1       8.685  14.413  18.169  0.00  0.00    +0.000 A 
ENDBRANCH  11  13
ENDBRANCH   8   9
ENDBRANCH   4   7
BRANCH   6  19
ATOM     19  O   UNL     1       6.182   6.224  15.882  0.00  0.00    +0.000 OA
ATOM     20  C   UNL     1       4.852   6.743  15.887  0.00  0.00    +0.000 C 
ENDBRANCH   6  19
BRANCH   1  21
ATOM     21  O   UNL     1       6.354   4.324  18.096  0.00  0.00    +0.000 OA
BRANCH  21  22
ATOM     22  C   UNL     1       5.253   4.234  19.001  0.00  0.00    +0.000 C 
BRANCH  22  23
ATOM     23  C   UNL     1       4.725   2.793  18.978  0.00  0.00    +0.000 C 
BRANCH  23  24
ATOM     24  C   UNL     1       3.350   2.724  18.311  0.00  0.00    +0.000 C 
BRANCH  24  25
ATOM     25  C   UNL     1       2.982   3.998  17.545  0.00  0.00    +0.000 C 
BRANCH  25  26
ATOM     26  C   UNL     1       1.770   4.676  18.197  0.00  0.00    +0.000 C 
BRANCH  26  27
ATOM     27  C   UNL     1       2.083   5.384  19.526  0.00  0.00    +0.000 C 
BRANCH  27  28
ATOM     28  N   UNL     1       1.719   6.813  19.587  0.00  0.00    +0.000 NA
BRANCH  28  30
ATOM     29  C   UNL     1       1.026   8.710  21.105  0.00  0.00    +0.000 C 
ATOM     30  C   UNL     1       1.502   7.266  20.971  0.00  0.00    +0.000 C 
ENDBRANCH  28  30
BRANCH  28  31
ATOM     31  C   UNL     1       2.669   7.641  18.823  0.00  0.00    +0.000 C 
ATOM     32  C   UNL     1       2.079   8.500  17.707  0.00  0.00    +0.000 C 
ENDBRANCH  28  31
ENDBRANCH  27  28
ENDBRANCH  26  27
ENDBRANCH  25  26
ENDBRANCH  24  25
ENDBRANCH  23  24
ENDBRANCH  22  23
ENDBRANCH  21  22
ENDBRANCH   1  21
TORSDOF 14
ENDMDL
MODEL 9
REMARK VINA RESULT:      -6.3      5.070     10.811
REMARK  Name = 
REMARK  17 active torsions:
REMARK  status: ('A' for Active; 'I' for Inactive)
REMARK    1  A    between atoms: C_1  and  C_2
REMARK    2  A    between atoms: C_2  and  N_3
REMARK    3  A    between atoms: N_3  and  C_4
REMARK    4  A    between atoms: N_3  and  C_6
REMARK    5  A    between atoms: C_4  and  C_5
REMARK    6  A    between atoms: C_6  and  C_7
REMARK    7  A    between atoms: C_7  and  C_8
REMARK    8  A    between atoms: C_8  and  C_9
REMARK    9  A    between atoms: C_9  and  C_10
REMARK   10  A    between atoms: C_10  and  C_11
REMARK   11  A    between atoms: C_11  and  O_12
REMARK   12  A    between atoms: O_12  and  C_13
REMARK   13  A    between atoms: C_16  and  C_17
REMARK   14  A    between atoms: C_18  and  C_19
REMARK   15  A    between atoms: N_21  and  C_22
REMARK   16  A    between atoms: C_29  and  O_30
REMARK   17  A    between atoms: O_30  and  C_31
REMARK                            x       y       z     vdW  Elec       q    Type
REMARK                         _______ _______ _______ _____ _____    ______ ____
ROOT
ATOM      1  C   UNL     1      -0.705  11.753  22.582  0.00  0.00    +0.000 A 
ATOM      2  C   UNL     1      -0.837  10.457  23.101  0.00  0.00    +0.000 A 
ATOM      3  C   UNL     1      -0.276   9.352  22.455  0.00  0.00    +0.000 A 
ATOM      4  C   UNL     1       0.419   9.523  21.260  0.00  0.00    +0.000 A 
ATOM      5  C   UNL     1       0.538  10.816  20.733  0.00  0.00    +0.000 A 
ATOM      6  C   UNL     1       0.012  11.940  21.391  0.00  0.00    +0.000 A 
ENDROOT
BRANCH   4   7
ATOM      7  C   UNL     1       1.147   8.447  20.573  0.00  0.00    +0.000 C 
ATOM      8  C   UNL     1       1.260   7.176  20.981  0.00  0.00    +0.000 C 
BRANCH   8   9
ATOM      9  C   UNL     1       2.083   6.255  20.151  0.00  0.00    +0.000 C 
ATOM     10  O   UNL     1       3.016   6.674  19.476  0.00  0.00    +0.000 OA
ATOM     11  N   UNL     1       1.655   4.948  20.225  0.00  0.00    +0.000 N 
ATOM     12  H   UNL     1       0.776   4.755  20.683  0.00  0.00    +0.000 HD
BRANCH  11  13
ATOM     13  C   UNL     1       2.291   3.849  19.612  0.00  0.00    +0.000 A 
ATOM     14  C   UNL     1       3.363   3.162  20.196  0.00  0.00    +0.000 A 
ATOM     15  C   UNL     1       3.964   2.092  19.541  0.00  0.00    +0.000 A 
ATOM     16  C   UNL     1       3.497   1.693  18.294  0.00  0.00    +0.000 A 
ATOM     17  C   UNL     1       2.420   2.357  17.710  0.00  0.00    +0.000 A 
ATOM     18  C   UNL     1       1.810   3.423  18.371  0.00  0.00    +0.000 A 
ENDBRANCH  11  13
ENDBRANCH   8   9
ENDBRANCH   4   7
BRANCH   6  19
ATOM     19  O   UNL     1       0.200  13.209  20.906  0.00  0.00    +0.000 OA
ATOM     20  C   UNL     1       1.316  13.398  20.036  0.00  0.00    +0.000 C 
ENDBRANCH   6  19
BRANCH   1  21
ATOM     21  O   UNL     1      -1.217  12.716  23.414  0.00  0.00    +0.000 OA
BRANCH  21  22
ATOM     22  C   UNL     1      -2.637  12.812  23.527  0.00  0.00    +0.000 C 
BRANCH  22  23
ATOM     23  C   UNL     1      -3.178  13.500  22.265  0.00  0.00    +0.000 C 
BRANCH  23  24
ATOM     24  C   UNL     1      -3.956  12.513  21.395  0.00  0.00    +0.000 C 
BRANCH  24  25
ATOM     25  C   UNL     1      -4.870  13.194  20.371  0.00  0.00    +0.000 C 
BRANCH  25  26
ATOM     26  C   UNL     1      -5.472  12.149  19.423  0.00  0.00    +0.000 C 
BRANCH  26  27
ATOM     27  C   UNL     1      -5.015  12.287  17.961  0.00  0.00    +0.000 C 
BRANCH  27  28
ATOM     28  N   UNL     1      -4.100  11.236  17.478  0.00  0.00    +0.000 NA
BRANCH  28  30
ATOM     29  C   UNL     1      -2.943  10.768  15.281  0.00  0.00    +0.000 C 
ATOM     30  C   UNL     1      -4.252  10.996  16.033  0.00  0.00    +0.000 C 
ENDBRANCH  28  30
BRANCH  28  31
ATOM     31  C   UNL     1      -2.713  11.495  17.904  0.00  0.00    +0.000 C 
ATOM     32  C   UNL     1      -1.881  10.275  18.290  0.00  0.00    +0.000 C 
ENDBRANCH  28  31
ENDBRANCH  27  28
ENDBRANCH  26  27
ENDBRANCH  25  26
ENDBRANCH  24  25
ENDBRANCH  23  24
ENDBRANCH  22  23
ENDBRANCH  21  22
ENDBRANCH   1  21
TORSDOF 14
ENDMDL
