MODEL 1
REMARK VINA RESULT:      -8.6      0.000      0.000
REMARK  Name = 
REMARK  12 active torsions:
REMARK  status: ('A' for Active; 'I' for Inactive)
REMARK    1  A    between atoms: N_1  and  C_2
REMARK    2  A    between atoms: N_5  and  C_6
REMARK    3  A    between atoms: C_6  and  C_7
REMARK    4  A    between atoms: C_7  and  C_8
REMARK    5  A    between atoms: C_11  and  C_12
REMARK    6  A    between atoms: C_12  and  C_13
REMARK    7  A    between atoms: C_13  and  C_14
REMARK    8  A    between atoms: N_27  and  C1*_28
REMARK    9  A    between atoms: C4*_30  and  C5*_31
REMARK   10  A    between atoms: C5*_31  and  O5*_32
REMARK   11  A    between atoms: C3*_33  and  O3*_34
REMARK   12  A    between atoms: C2*_35  and  O2*_36
REMARK                            x       y       z     vdW  Elec       q    Type
REMARK                         _______ _______ _______ _____ _____    ______ ____
ROOT
ATOM      1  C   UNL     1       1.535   4.073  20.310  0.00  0.00    +0.000 A 
ATOM      2  N   UNL     1       1.335   5.334  20.755  0.00  0.00    +0.000 NA
ATOM      3  C   UNL     1       2.163   6.323  20.361  0.00  0.00    +0.000 A 
ATOM      4  N   UNL     1       1.991   7.606  20.865  0.00  0.00    +0.000 N 
ATOM      5  N   UNL     1       3.200   6.191  19.513  0.00  0.00    +0.000 NA
ATOM      6  C   UNL     1       3.384   4.924  19.115  0.00  0.00    +0.000 A 
ATOM      7  C   UNL     1       2.627   3.825  19.467  0.00  0.00    +0.000 A 
ATOM      8  N   UNL     1       3.121   2.673  18.892  0.00  0.00    +0.000 NA
ATOM      9  C   UNL     1       4.148   3.076  18.169  0.00  0.00    +0.000 A 
ATOM     10  N   UNL     1       4.330   4.434  18.252  0.00  0.00    +0.000 N 
ATOM     11  H   UNL     1       2.512   8.235  20.265  0.00  0.00    +0.000 HD
ENDROOT
BRANCH  10  12
ATOM     12  C1* UNL     1       5.299   5.188  17.483  0.00  0.00    +0.000 C 
ATOM     13  O4* UNL     1       4.740   5.531  16.199  0.00  0.00    +0.000 OA
ATOM     14  C4* UNL     1       5.759   5.332  15.186  0.00  0.00    +0.000 C 
ATOM     15  C3* UNL     1       7.069   5.069  15.926  0.00  0.00    +0.000 C 
ATOM     16  C2* UNL     1       6.617   4.453  17.240  0.00  0.00    +0.000 C 
BRANCH  15  17
ATOM     17  O3* UNL     1       7.770   6.287  16.236  0.00  0.00    +0.000 OA
ATOM     18  H3* UNL     1       7.712   6.457  17.196  0.00  0.00    +0.000 HD
ENDBRANCH  15  17
BRANCH  16  19
ATOM     19  O2* UNL     1       7.568   4.680  18.280  0.00  0.00    +0.000 OA
ATOM     20  H2* UNL     1       7.982   5.549  18.086  0.00  0.00    +0.000 HD
ENDBRANCH  16  19
BRANCH  14  21
ATOM     21  C5* UNL     1       5.347   4.176  14.274  0.00  0.00    +0.000 C 
BRANCH  21  22
ATOM     22  O5* UNL     1       6.508   3.507  13.786  0.00  0.00    +0.000 OA
ATOM     23  H5* UNL     1       7.229   3.728  14.407  0.00  0.00    +0.000 HD
ENDBRANCH  21  22
ENDBRANCH  14  21
ENDBRANCH  10  12
BRANCH   1  24
ATOM     24  N   UNL     1       0.655   3.077  20.718  0.00  0.00    +0.000 N 
ATOM     25  H   UNL     1       0.339   3.222  21.668  0.00  0.00    +0.000 HD
ATOM     26  H   UNL     1       0.958   2.146  20.458  0.00  0.00    +0.000 HD
ENDBRANCH   1  24
BRANCH   4  27
ATOM     27  C   UNL     1       0.620   8.001  21.171  0.00  0.00    +0.000 C 
BRANCH  27  28
ATOM     28  C   UNL     1       0.627   9.061  22.284  0.00  0.00    +0.000 C 
BRANCH  28  29
ATOM     29  C   UNL     1      -0.309  10.221  22.026  0.00  0.00    +0.000 A 
ATOM     30  C   UNL     1      -0.486  10.721  20.729  0.00  0.00    +0.000 A 
ATOM     31  C   UNL     1      -1.374  11.778  20.482  0.00  0.00    +0.000 A 
ATOM     32  C   UNL     1      -2.098  12.366  21.526  0.00  0.00    +0.000 A 
ATOM     33  C   UNL     1      -1.908  11.874  22.825  0.00  0.00    +0.000 A 
ATOM     34  C   UNL     1      -1.026  10.813  23.072  0.00  0.00    +0.000 A 
BRANCH  32  35
ATOM     35  C   UNL     1      -3.050  13.516  21.265  0.00  0.00    +0.000 C 
BRANCH  35  36
ATOM     36  C   UNL     1      -3.900  13.973  22.474  0.00  0.00    +0.000 C 
BRANCH  36  37
ATOM     37  C   UNL     1      -3.471  15.313  23.118  0.00  0.00    +0.000 C 
ATOM     38  C   UNL     1      -3.828  15.413  24.613  0.00  0.00    +0.000 C 
ATOM     39  C   UNL     1      -2.746  14.898  25.556  0.00  0.00    +0.000 C 
ATOM     40  C   UNL     1      -1.434  15.615  25.291  0.00  0.00    +0.000 C 
ATOM     41  C   UNL     1      -0.958  15.309  23.881  0.00  0.00    +0.000 C 
ATOM     42  C   UNL     1      -1.995  15.666  22.816  0.00  0.00    +0.000 C 
ENDBRANCH  36  37
ENDBRANCH  35  36
ENDBRANCH  32  35
ENDBRANCH  28  29
ENDBRANCH  27  28
ENDBRANCH   4  27
TORSDOF 12
ENDMDL
MODEL 2
REMARK VINA RESULT:      -8.6      1.203      2.109
REMARK  Name = 
REMARK  12 active torsions:
REMARK  status: ('A' for Active; 'I' for Inactive)
REMARK    1  A    between atoms: N_1  and  C_2
REMARK    2  A    between atoms: N_5  and  C_6
REMARK    3  A    between atoms: C_6  and  C_7
REMARK    4  A    between atoms: C_7  and  C_8
REMARK    5  A    between atoms: C_11  and  C_12
REMARK    6  A    between atoms: C_12  and  C_13
REMARK    7  A    between atoms: C_13  and  C_14
REMARK    8  A    between atoms: N_27  and  C1*_28
REMARK    9  A    between atoms: C4*_30  and  C5*_31
REMARK   10  A    between atoms: C5*_31  and  O5*_32
REMARK   11  A    between atoms: C3*_33  and  O3*_34
REMARK   12  A    between atoms: C2*_35  and  O2*_36
REMARK                            x       y       z     vdW  Elec       q    Type
REMARK                         _______ _______ _______ _____ _____    ______ ____
ROOT
ATOM      1  C   UNL     1       1.372   4.028  19.936  0.00  0.00    +0.000 A 
ATOM      2  N   UNL     1       1.302   5.263  20.483  0.00  0.00    +0.000 NA
ATOM      3  C   UNL     1       2.219   6.195  20.153  0.00  0.00    +0.000 A 
ATOM      4  N   UNL     1       2.180   7.445  20.759  0.00  0.00    +0.000 N 
ATOM      5  N   UNL     1       3.229   6.031  19.278  0.00  0.00    +0.000 NA
ATOM      6  C   UNL     1       3.283   4.789  18.779  0.00  0.00    +0.000 A 
ATOM      7  C   UNL     1       2.426   3.744  19.057  0.00  0.00    +0.000 A 
ATOM      8  N   UNL     1       2.797   2.600  18.384  0.00  0.00    +0.000 NA
ATOM      9  C   UNL     1       3.851   2.957  17.676  0.00  0.00    +0.000 A 
ATOM     10  N   UNL     1       4.168   4.279  17.862  0.00  0.00    +0.000 N 
ATOM     11  H   UNL     1       2.753   8.066  20.201  0.00  0.00    +0.000 HD
ENDROOT
BRANCH  10  12
ATOM     12  C1* UNL     1       5.198   4.994  17.137  0.00  0.00    +0.000 C 
ATOM     13  O4* UNL     1       4.708   5.360  15.831  0.00  0.00    +0.000 OA
ATOM     14  C4* UNL     1       5.762   5.121  14.863  0.00  0.00    +0.000 C 
ATOM     15  C3* UNL     1       7.027   4.806  15.657  0.00  0.00    +0.000 C 
ATOM     16  C2* UNL     1       6.494   4.208  16.950  0.00  0.00    +0.000 C 
BRANCH  15  17
ATOM     17  O3* UNL     1       7.761   5.996  16.000  0.00  0.00    +0.000 OA
ATOM     18  H3* UNL     1       7.169   6.618  16.463  0.00  0.00    +0.000 HD
ENDBRANCH  15  17
BRANCH  16  19
ATOM     19  O2* UNL     1       7.408   4.397  18.030  0.00  0.00    +0.000 OA
ATOM     20  H2* UNL     1       8.186   3.832  17.831  0.00  0.00    +0.000 HD
ENDBRANCH  16  19
BRANCH  14  21
ATOM     21  C5* UNL     1       5.344   3.983  13.931  0.00  0.00    +0.000 C 
BRANCH  21  22
ATOM     22  O5* UNL     1       6.499   3.393  13.340  0.00  0.00    +0.000 OA
ATOM     23  H5* UNL     1       7.168   3.336  14.051  0.00  0.00    +0.000 HD
ENDBRANCH  21  22
ENDBRANCH  14  21
ENDBRANCH  10  12
BRANCH   1  24
ATOM     24  N   UNL     1       0.402   3.094  20.281  0.00  0.00    +0.000 N 
ATOM     25  H   UNL     1       0.489   2.246  19.736  0.00  0.00    +0.000 HD
ATOM     26  H   UNL     1      -0.521   3.497  20.385  0.00  0.00    +0.000 HD
ENDBRANCH   1  24
BRANCH   4  27
ATOM     27  C   UNL     1       0.858   7.946  21.120  0.00  0.00    +0.000 C 
BRANCH  27  28
ATOM     28  C   UNL     1       0.555   9.222  20.319  0.00  0.00    +0.000 C 
BRANCH  28  29
ATOM     29  C   UNL     1      -0.051  10.332  21.148  0.00  0.00    +0.000 A 
ATOM     30  C   UNL     1      -0.096  11.645  20.659  0.00  0.00    +0.000 A 
ATOM     31  C   UNL     1      -0.681  12.672  21.413  0.00  0.00    +0.000 A 
ATOM     32  C   UNL     1      -1.226  12.414  22.677  0.00  0.00    +0.000 A 
ATOM     33  C   UNL     1      -1.167  11.103  23.170  0.00  0.00    +0.000 A 
ATOM     34  C   UNL     1      -0.588  10.074  22.414  0.00  0.00    +0.000 A 
BRANCH  32  35
ATOM     35  C   UNL     1      -1.850  13.524  23.500  0.00  0.00    +0.000 C 
BRANCH  35  36
ATOM     36  C   UNL     1      -3.235  14.019  23.020  0.00  0.00    +0.000 C 
BRANCH  36  37
ATOM     37  C   UNL     1      -4.306  12.917  22.839  0.00  0.00    +0.000 C 
ATOM     38  C   UNL     1      -5.330  12.867  23.990  0.00  0.00    +0.000 C 
ATOM     39  C   UNL     1      -6.557  13.748  23.782  0.00  0.00    +0.000 C 
ATOM     40  C   UNL     1      -7.239  13.398  22.471  0.00  0.00    +0.000 C 
ATOM     41  C   UNL     1      -6.300  13.685  21.312  0.00  0.00    +0.000 C 
ATOM     42  C   UNL     1      -4.963  12.956  21.439  0.00  0.00    +0.000 C 
ENDBRANCH  36  37
ENDBRANCH  35  36
ENDBRANCH  32  35
ENDBRANCH  28  29
ENDBRANCH  27  28
ENDBRANCH   4  27
TORSDOF 12
ENDMDL
MODEL 3
REMARK VINA RESULT:      -8.4      1.449      2.792
REMARK  Name = 
REMARK  12 active torsions:
REMARK  status: ('A' for Active; 'I' for Inactive)
REMARK    1  A    between atoms: N_1  and  C_2
REMARK    2  A    between atoms: N_5  and  C_6
REMARK    3  A    between atoms: C_6  and  C_7
REMARK    4  A    between atoms: C_7  and  C_8
REMARK    5  A    between atoms: C_11  and  C_12
REMARK    6  A    between atoms: C_12  and  C_13
REMARK    7  A    between atoms: C_13  and  C_14
REMARK    8  A    between atoms: N_27  and  C1*_28
REMARK    9  A    between atoms: C4*_30  and  C5*_31
REMARK   10  A    between atoms: C5*_31  and  O5*_32
REMARK   11  A    between atoms: C3*_33  and  O3*_34
REMARK   12  A    between atoms: C2*_35  and  O2*_36
REMARK                            x       y       z     vdW  Elec       q    Type
REMARK                         _______ _______ _______ _____ _____    ______ ____
ROOT
ATOM      1  C   UNL     1       1.361   3.861  19.827  0.00  0.00    +0.000 A 
ATOM      2  N   UNL     1       1.331   5.111  20.341  0.00  0.00    +0.000 NA
ATOM      3  C   UNL     1       2.352   5.960  20.101  0.00  0.00    +0.000 A 
ATOM      4  N   UNL     1       2.348   7.224  20.678  0.00  0.00    +0.000 N 
ATOM      5  N   UNL     1       3.436   5.694  19.349  0.00  0.00    +0.000 NA
ATOM      6  C   UNL     1       3.445   4.439  18.880  0.00  0.00    +0.000 A 
ATOM      7  C   UNL     1       2.480   3.472  19.077  0.00  0.00    +0.000 A 
ATOM      8  N   UNL     1       2.830   2.285  18.470  0.00  0.00    +0.000 NA
ATOM      9  C   UNL     1       3.982   2.540  17.879  0.00  0.00    +0.000 A 
ATOM     10  N   UNL     1       4.382   3.838  18.078  0.00  0.00    +0.000 N 
ATOM     11  H   UNL     1       3.028   7.783  20.178  0.00  0.00    +0.000 HD
ENDROOT
BRANCH  10  12
ATOM     12  C1* UNL     1       5.541   4.450  17.462  0.00  0.00    +0.000 C 
ATOM     13  O4* UNL     1       6.712   4.187  18.261  0.00  0.00    +0.000 OA
ATOM     14  C4* UNL     1       7.503   5.401  18.332  0.00  0.00    +0.000 C 
ATOM     15  C3* UNL     1       6.888   6.384  17.339  0.00  0.00    +0.000 C 
ATOM     16  C2* UNL     1       5.428   5.963  17.279  0.00  0.00    +0.000 C 
BRANCH  15  17
ATOM     17  O3* UNL     1       7.437   6.234  16.016  0.00  0.00    +0.000 OA
ATOM     18  H3* UNL     1       8.382   6.478  16.030  0.00  0.00    +0.000 HD
ENDBRANCH  15  17
BRANCH  16  19
ATOM     19  O2* UNL     1       4.831   6.319  16.032  0.00  0.00    +0.000 OA
ATOM     20  H2* UNL     1       3.863   6.356  16.194  0.00  0.00    +0.000 HD
ENDBRANCH  16  19
BRANCH  14  21
ATOM     21  C5* UNL     1       7.499   5.924  19.769  0.00  0.00    +0.000 C 
BRANCH  21  22
ATOM     22  O5* UNL     1       8.388   5.148  20.568  0.00  0.00    +0.000 OA
ATOM     23  H5* UNL     1       8.725   5.750  21.261  0.00  0.00    +0.000 HD
ENDBRANCH  21  22
ENDBRANCH  14  21
ENDBRANCH  10  12
BRANCH   1  24
ATOM     24  N   UNL     1       0.287   3.015  20.075  0.00  0.00    +0.000 N 
ATOM     25  H   UNL     1       0.371   2.144  19.568  0.00  0.00    +0.000 HD
ATOM     26  H   UNL     1      -0.608   3.490  20.053  0.00  0.00    +0.000 HD
ENDBRANCH   1  24
BRANCH   4  27
ATOM     27  C   UNL     1       1.038   7.836  20.879  0.00  0.00    +0.000 C 
BRANCH  27  28
ATOM     28  C   UNL     1       1.007   9.216  20.203  0.00  0.00    +0.000 C 
BRANCH  28  29
ATOM     29  C   UNL     1       0.385  10.299  21.056  0.00  0.00    +0.000 A 
ATOM     30  C   UNL     1       0.570  11.652  20.739  0.00  0.00    +0.000 A 
ATOM     31  C   UNL     1      -0.028  12.658  21.512  0.00  0.00    +0.000 A 
ATOM     32  C   UNL     1      -0.814  12.336  22.625  0.00  0.00    +0.000 A 
ATOM     33  C   UNL     1      -0.985  10.983  22.949  0.00  0.00    +0.000 A 
ATOM     34  C   UNL     1      -0.394   9.976  22.173  0.00  0.00    +0.000 A 
BRANCH  32  35
ATOM     35  C   UNL     1      -1.452  13.421  23.470  0.00  0.00    +0.000 C 
BRANCH  35  36
ATOM     36  C   UNL     1      -1.756  14.750  22.738  0.00  0.00    +0.000 C 
BRANCH  36  37
ATOM     37  C   UNL     1      -3.214  14.918  22.247  0.00  0.00    +0.000 C 
ATOM     38  C   UNL     1      -3.429  14.440  20.799  0.00  0.00    +0.000 C 
ATOM     39  C   UNL     1      -3.815  12.971  20.669  0.00  0.00    +0.000 C 
ATOM     40  C   UNL     1      -5.056  12.679  21.495  0.00  0.00    +0.000 C 
ATOM     41  C   UNL     1      -4.759  12.919  22.966  0.00  0.00    +0.000 C 
ATOM     42  C   UNL     1      -4.243  14.331  23.243  0.00  0.00    +0.000 C 
ENDBRANCH  36  37
ENDBRANCH  35  36
ENDBRANCH  32  35
ENDBRANCH  28  29
ENDBRANCH  27  28
ENDBRANCH   4  27
TORSDOF 12
ENDMDL
MODEL 4
REMARK VINA RESULT:      -8.4      2.718      4.003
REMARK  Name = 
REMARK  12 active torsions:
REMARK  status: ('A' for Active; 'I' for Inactive)
REMARK    1  A    between atoms: N_1  and  C_2
REMARK    2  A    between atoms: N_5  and  C_6
REMARK    3  A    between atoms: C_6  and  C_7
REMARK    4  A    between atoms: C_7  and  C_8
REMARK    5  A    between atoms: C_11  and  C_12
REMARK    6  A    between atoms: C_12  and  C_13
REMARK    7  A    between atoms: C_13  and  C_14
REMARK    8  A    between atoms: N_27  and  C1*_28
REMARK    9  A    between atoms: C4*_30  and  C5*_31
REMARK   10  A    between atoms: C5*_31  and  O5*_32
REMARK   11  A    between atoms: C3*_33  and  O3*_34
REMARK   12  A    between atoms: C2*_35  and  O2*_36
REMARK                            x       y       z     vdW  Elec       q    Type
REMARK                         _______ _______ _______ _____ _____    ______ ____
ROOT
ATOM      1  C   UNL     1       1.355   3.788  19.390  0.00  0.00    +0.000 A 
ATOM      2  N   UNL     1       1.368   4.982  20.024  0.00  0.00    +0.000 NA
ATOM      3  C   UNL     1       2.436   5.796  19.898  0.00  0.00    +0.000 A 
ATOM      4  N   UNL     1       2.473   6.997  20.596  0.00  0.00    +0.000 N 
ATOM      5  N   UNL     1       3.531   5.550  19.155  0.00  0.00    +0.000 NA
ATOM      6  C   UNL     1       3.495   4.347  18.565  0.00  0.00    +0.000 A 
ATOM      7  C   UNL     1       2.479   3.417  18.638  0.00  0.00    +0.000 A 
ATOM      8  N   UNL     1       2.792   2.278  17.927  0.00  0.00    +0.000 NA
ATOM      9  C   UNL     1       3.973   2.530  17.398  0.00  0.00    +0.000 A 
ATOM     10  N   UNL     1       4.428   3.780  17.735  0.00  0.00    +0.000 N 
ATOM     11  H   UNL     1       3.195   7.567  20.173  0.00  0.00    +0.000 HD
ENDROOT
BRANCH  10  12
ATOM     12  C1* UNL     1       5.636   4.390  17.215  0.00  0.00    +0.000 C 
ATOM     13  O4* UNL     1       6.731   4.147  18.121  0.00  0.00    +0.000 OA
ATOM     14  C4* UNL     1       7.505   5.367  18.242  0.00  0.00    +0.000 C 
ATOM     15  C3* UNL     1       6.978   6.330  17.180  0.00  0.00    +0.000 C 
ATOM     16  C2* UNL     1       5.532   5.898  16.996  0.00  0.00    +0.000 C 
BRANCH  15  17
ATOM     17  O3* UNL     1       7.646   6.160  15.916  0.00  0.00    +0.000 OA
ATOM     18  H3* UNL     1       6.982   5.997  15.220  0.00  0.00    +0.000 HD
ENDBRANCH  15  17
BRANCH  16  19
ATOM     19  O2* UNL     1       5.048   6.229  15.694  0.00  0.00    +0.000 OA
ATOM     20  H2* UNL     1       5.122   7.204  15.616  0.00  0.00    +0.000 HD
ENDBRANCH  16  19
BRANCH  14  21
ATOM     21  C5* UNL     1       7.370   5.915  19.663  0.00  0.00    +0.000 C 
BRANCH  21  22
ATOM     22  O5* UNL     1       8.253   5.218  20.537  0.00  0.00    +0.000 OA
ATOM     23  H5* UNL     1       9.035   4.982  20.000  0.00  0.00    +0.000 HD
ENDBRANCH  21  22
ENDBRANCH  14  21
ENDBRANCH  10  12
BRANCH   1  24
ATOM     24  N   UNL     1       0.234   2.977  19.523  0.00  0.00    +0.000 N 
ATOM     25  H   UNL     1       0.105   2.670  20.478  0.00  0.00    +0.000 HD
ATOM     26  H   UNL     1       0.154   2.284  18.788  0.00  0.00    +0.000 HD
ENDBRANCH   1  24
BRANCH   4  27
ATOM     27  C   UNL     1       1.188   7.653  20.819  0.00  0.00    +0.000 C 
BRANCH  27  28
ATOM     28  C   UNL     1       1.371   9.178  20.754  0.00  0.00    +0.000 C 
BRANCH  28  29
ATOM     29  C   UNL     1       0.224   9.901  20.085  0.00  0.00    +0.000 A 
ATOM     30  C   UNL     1      -0.598  10.768  20.818  0.00  0.00    +0.000 A 
ATOM     31  C   UNL     1      -1.646  11.462  20.196  0.00  0.00    +0.000 A 
ATOM     32  C   UNL     1      -1.903  11.299  18.829  0.00  0.00    +0.000 A 
ATOM     33  C   UNL     1      -1.087  10.420  18.101  0.00  0.00    +0.000 A 
ATOM     34  C   UNL     1      -0.036   9.732  18.720  0.00  0.00    +0.000 A 
BRANCH  32  35
ATOM     35  C   UNL     1      -3.041  12.038  18.155  0.00  0.00    +0.000 C 
BRANCH  35  36
ATOM     36  C   UNL     1      -4.286  11.186  17.812  0.00  0.00    +0.000 C 
BRANCH  36  37
ATOM     37  C   UNL     1      -5.648  11.835  18.156  0.00  0.00    +0.000 C 
ATOM     38  C   UNL     1      -6.785  10.810  18.329  0.00  0.00    +0.000 C 
ATOM     39  C   UNL     1      -6.954  10.288  19.751  0.00  0.00    +0.000 C 
ATOM     40  C   UNL     1      -7.153  11.445  20.715  0.00  0.00    +0.000 C 
ATOM     41  C   UNL     1      -5.915  12.325  20.722  0.00  0.00    +0.000 C 
ATOM     42  C   UNL     1      -5.544  12.836  19.331  0.00  0.00    +0.000 C 
ENDBRANCH  36  37
ENDBRANCH  35  36
ENDBRANCH  32  35
ENDBRANCH  28  29
ENDBRANCH  27  28
ENDBRANCH   4  27
TORSDOF 12
ENDMDL
MODEL 5
REMARK VINA RESULT:      -8.3      6.820      9.410
REMARK  Name = 
REMARK  12 active torsions:
REMARK  status: ('A' for Active; 'I' for Inactive)
REMARK    1  A    between atoms: N_1  and  C_2
REMARK    2  A    between atoms: N_5  and  C_6
REMARK    3  A    between atoms: C_6  and  C_7
REMARK    4  A    between atoms: C_7  and  C_8
REMARK    5  A    between atoms: C_11  and  C_12
REMARK    6  A    between atoms: C_12  and  C_13
REMARK    7  A    between atoms: C_13  and  C_14
REMARK    8  A    between atoms: N_27  and  C1*_28
REMARK    9  A    between atoms: C4*_30  and  C5*_31
REMARK   10  A    between atoms: C5*_31  and  O5*_32
REMARK   11  A    between atoms: C3*_33  and  O3*_34
REMARK   12  A    between atoms: C2*_35  and  O2*_36
REMARK                            x       y       z     vdW  Elec       q    Type
REMARK                         _______ _______ _______ _____ _____    ______ ____
ROOT
ATOM      1  C   UNL     1       7.027   5.540  15.725  0.00  0.00    +0.000 A 
ATOM      2  N   UNL     1       7.325   6.739  16.274  0.00  0.00    +0.000 NA
ATOM      3  C   UNL     1       6.702   7.131  17.405  0.00  0.00    +0.000 A 
ATOM      4  N   UNL     1       6.967   8.387  17.937  0.00  0.00    +0.000 N 
ATOM      5  N   UNL     1       5.794   6.414  18.093  0.00  0.00    +0.000 NA
ATOM      6  C   UNL     1       5.504   5.246  17.504  0.00  0.00    +0.000 A 
ATOM      7  C   UNL     1       6.048   4.746  16.338  0.00  0.00    +0.000 A 
ATOM      8  N   UNL     1       5.496   3.525  16.012  0.00  0.00    +0.000 NA
ATOM      9  C   UNL     1       4.650   3.270  16.991  0.00  0.00    +0.000 A 
ATOM     10  N   UNL     1       4.639   4.271  17.930  0.00  0.00    +0.000 N 
ATOM     11  H   UNL     1       6.629   8.384  18.891  0.00  0.00    +0.000 HD
ENDROOT
BRANCH  10  12
ATOM     12  C1* UNL     1       3.903   4.227  19.177  0.00  0.00    +0.000 C 
ATOM     13  O4* UNL     1       3.359   2.906  19.375  0.00  0.00    +0.000 OA
ATOM     14  C4* UNL     1       2.004   3.038  19.876  0.00  0.00    +0.000 C 
ATOM     15  C3* UNL     1       1.800   4.514  20.210  0.00  0.00    +0.000 C 
ATOM     16  C2* UNL     1       2.751   5.227  19.261  0.00  0.00    +0.000 C 
BRANCH  15  17
ATOM     17  O3* UNL     1       2.211   4.828  21.553  0.00  0.00    +0.000 OA
ATOM     18  H3* UNL     1       1.668   5.564  21.893  0.00  0.00    +0.000 HD
ENDBRANCH  15  17
BRANCH  16  19
ATOM     19  O2* UNL     1       3.161   6.491  19.783  0.00  0.00    +0.000 OA
ATOM     20  H2* UNL     1       3.732   6.294  20.557  0.00  0.00    +0.000 HD
ENDBRANCH  16  19
BRANCH  14  21
ATOM     21  C5* UNL     1       1.022   2.523  18.823  0.00  0.00    +0.000 C 
BRANCH  21  22
ATOM     22  O5* UNL     1       1.724   1.785  17.827  0.00  0.00    +0.000 OA
ATOM     23  H5* UNL     1       2.280   2.432  17.351  0.00  0.00    +0.000 HD
ENDBRANCH  21  22
ENDBRANCH  14  21
ENDBRANCH  10  12
BRANCH   1  24
ATOM     24  N   UNL     1       7.698   5.154  14.569  0.00  0.00    +0.000 N 
ATOM     25  H   UNL     1       8.369   5.851  14.275  0.00  0.00    +0.000 HD
ATOM     26  H   UNL     1       7.084   4.761  13.865  0.00  0.00    +0.000 HD
ENDBRANCH   1  24
BRANCH   4  27
ATOM     27  C   UNL     1       8.318   8.901  17.737  0.00  0.00    +0.000 C 
BRANCH  27  28
ATOM     28  C   UNL     1       8.914   9.321  19.090  0.00  0.00    +0.000 C 
BRANCH  28  29
ATOM     29  C   UNL     1       9.766  10.568  19.019  0.00  0.00    +0.000 A 
ATOM     30  C   UNL     1      10.229  11.048  17.786  0.00  0.00    +0.000 A 
ATOM     31  C   UNL     1      10.996  12.219  17.714  0.00  0.00    +0.000 A 
ATOM     32  C   UNL     1      11.327  12.934  18.872  0.00  0.00    +0.000 A 
ATOM     33  C   UNL     1      10.874  12.444  20.106  0.00  0.00    +0.000 A 
ATOM     34  C   UNL     1      10.102  11.277  20.178  0.00  0.00    +0.000 A 
BRANCH  32  35
ATOM     35  C   UNL     1      12.165  14.194  18.799  0.00  0.00    +0.000 C 
BRANCH  35  36
ATOM     36  C   UNL     1      11.407  15.520  19.046  0.00  0.00    +0.000 C 
BRANCH  36  37
ATOM     37  C   UNL     1      10.345  15.885  17.982  0.00  0.00    +0.000 C 
ATOM     38  C   UNL     1       8.959  15.275  18.268  0.00  0.00    +0.000 C 
ATOM     39  C   UNL     1       8.047  16.150  19.120  0.00  0.00    +0.000 C 
ATOM     40  C   UNL     1       7.884  17.518  18.480  0.00  0.00    +0.000 C 
ATOM     41  C   UNL     1       9.230  18.221  18.425  0.00  0.00    +0.000 C 
ATOM     42  C   UNL     1      10.295  17.405  17.695  0.00  0.00    +0.000 C 
ENDBRANCH  36  37
ENDBRANCH  35  36
ENDBRANCH  32  35
ENDBRANCH  28  29
ENDBRANCH  27  28
ENDBRANCH   4  27
TORSDOF 12
ENDMDL
MODEL 6
REMARK VINA RESULT:      -8.3      1.640      2.874
REMARK  Name = 
REMARK  12 active torsions:
REMARK  status: ('A' for Active; 'I' for Inactive)
REMARK    1  A    between atoms: N_1  and  C_2
REMARK    2  A    between atoms: N_5  and  C_6
REMARK    3  A    between atoms: C_6  and  C_7
REMARK    4  A    between atoms: C_7  and  C_8
REMARK    5  A    between atoms: C_11  and  C_12
REMARK    6  A    between atoms: C_12  and  C_13
REMARK    7  A    between atoms: C_13  and  C_14
REMARK    8  A    between atoms: N_27  and  C1*_28
REMARK    9  A    between atoms: C4*_30  and  C5*_31
REMARK   10  A    between atoms: C5*_31  and  O5*_32
REMARK   11  A    between atoms: C3*_33  and  O3*_34
REMARK   12  A    between atoms: C2*_35  and  O2*_36
REMARK                            x       y       z     vdW  Elec       q    Type
REMARK                         _______ _______ _______ _____ _____    ______ ____
ROOT
ATOM      1  C   UNL     1       1.391   3.617  19.495  0.00  0.00    +0.000 A 
ATOM      2  N   UNL     1       1.377   4.799  20.152  0.00  0.00    +0.000 NA
ATOM      3  C   UNL     1       2.420   5.646  20.030  0.00  0.00    +0.000 A 
ATOM      4  N   UNL     1       2.430   6.834  20.750  0.00  0.00    +0.000 N 
ATOM      5  N   UNL     1       3.512   5.446  19.268  0.00  0.00    +0.000 NA
ATOM      6  C   UNL     1       3.503   4.255  18.655  0.00  0.00    +0.000 A 
ATOM      7  C   UNL     1       2.515   3.294  18.723  0.00  0.00    +0.000 A 
ATOM      8  N   UNL     1       2.852   2.178  17.986  0.00  0.00    +0.000 NA
ATOM      9  C   UNL     1       4.019   2.475  17.447  0.00  0.00    +0.000 A 
ATOM     10  N   UNL     1       4.442   3.730  17.804  0.00  0.00    +0.000 N 
ATOM     11  H   UNL     1       3.131   7.432  20.330  0.00  0.00    +0.000 HD
ENDROOT
BRANCH  10  12
ATOM     12  C1* UNL     1       5.624   4.385  17.282  0.00  0.00    +0.000 C 
ATOM     13  O4* UNL     1       6.742   4.139  18.159  0.00  0.00    +0.000 OA
ATOM     14  C4* UNL     1       7.491   5.373  18.304  0.00  0.00    +0.000 C 
ATOM     15  C3* UNL     1       6.921   6.356  17.284  0.00  0.00    +0.000 C 
ATOM     16  C2* UNL     1       5.482   5.896  17.113  0.00  0.00    +0.000 C 
BRANCH  15  17
ATOM     17  O3* UNL     1       7.568   6.243  16.003  0.00  0.00    +0.000 OA
ATOM     18  H3* UNL     1       8.352   6.824  15.985  0.00  0.00    +0.000 HD
ENDBRANCH  15  17
BRANCH  16  19
ATOM     19  O2* UNL     1       4.966   6.257  15.832  0.00  0.00    +0.000 OA
ATOM     20  H2* UNL     1       4.517   5.456  15.484  0.00  0.00    +0.000 HD
ENDBRANCH  16  19
BRANCH  14  21
ATOM     21  C5* UNL     1       7.370   5.872  19.745  0.00  0.00    +0.000 C 
BRANCH  21  22
ATOM     22  O5* UNL     1       8.350   5.236  20.561  0.00  0.00    +0.000 OA
ATOM     23  H5* UNL     1       8.734   5.939  21.121  0.00  0.00    +0.000 HD
ENDBRANCH  21  22
ENDBRANCH  14  21
ENDBRANCH  10  12
BRANCH   1  24
ATOM     24  N   UNL     1       0.295   2.772  19.626  0.00  0.00    +0.000 N 
ATOM     25  H   UNL     1       0.449   1.884  19.166  0.00  0.00    +0.000 HD
ATOM     26  H   UNL     1      -0.590   3.239  19.466  0.00  0.00    +0.000 HD
ENDBRANCH   1  24
BRANCH   4  27
ATOM     27  C   UNL     1       1.130   7.448  21.001  0.00  0.00    +0.000 C 
BRANCH  27  28
ATOM     28  C   UNL     1       1.041   8.788  20.252  0.00  0.00    +0.000 C 
BRANCH  28  29
ATOM     29  C   UNL     1       0.393   9.892  21.056  0.00  0.00    +0.000 A 
ATOM     30  C   UNL     1       0.336  11.201  20.555  0.00  0.00    +0.000 A 
ATOM     31  C   UNL     1      -0.289  12.222  21.284  0.00  0.00    +0.000 A 
ATOM     32  C   UNL     1      -0.862  11.963  22.536  0.00  0.00    +0.000 A 
ATOM     33  C   UNL     1      -0.791  10.657  23.041  0.00  0.00    +0.000 A 
ATOM     34  C   UNL     1      -0.173   9.634  22.310  0.00  0.00    +0.000 A 
BRANCH  32  35
ATOM     35  C   UNL     1      -1.528  13.067  23.332  0.00  0.00    +0.000 C 
BRANCH  35  36
ATOM     36  C   UNL     1      -2.800  13.679  22.698  0.00  0.00    +0.000 C 
BRANCH  36  37
ATOM     37  C   UNL     1      -4.030  12.742  22.643  0.00  0.00    +0.000 C 
ATOM     38  C   UNL     1      -5.012  12.954  23.811  0.00  0.00    +0.000 C 
ATOM     39  C   UNL     1      -6.098  13.989  23.543  0.00  0.00    +0.000 C 
ATOM     40  C   UNL     1      -6.868  13.629  22.284  0.00  0.00    +0.000 C 
ATOM     41  C   UNL     1      -5.934  13.663  21.086  0.00  0.00    +0.000 C 
ATOM     42  C   UNL     1      -4.718  12.753  21.257  0.00  0.00    +0.000 C 
ENDBRANCH  36  37
ENDBRANCH  35  36
ENDBRANCH  32  35
ENDBRANCH  28  29
ENDBRANCH  27  28
ENDBRANCH   4  27
TORSDOF 12
ENDMDL
MODEL 7
REMARK VINA RESULT:      -8.3      1.321      2.637
REMARK  Name = 
REMARK  12 active torsions:
REMARK  status: ('A' for Active; 'I' for Inactive)
REMARK    1  A    between atoms: N_1  and  C_2
REMARK    2  A    between atoms: N_5  and  C_6
REMARK    3  A    between atoms: C_6  and  C_7
REMARK    4  A    between atoms: C_7  and  C_8
REMARK    5  A    between atoms: C_11  and  C_12
REMARK    6  A    between atoms: C_12  and  C_13
REMARK    7  A    between atoms: C_13  and  C_14
REMARK    8  A    between atoms: N_27  and  C1*_28
REMARK    9  A    between atoms: C4*_30  and  C5*_31
REMARK   10  A    between atoms: C5*_31  and  O5*_32
REMARK   11  A    between atoms: C3*_33  and  O3*_34
REMARK   12  A    between atoms: C2*_35  and  O2*_36
REMARK                            x       y       z     vdW  Elec       q    Type
REMARK                         _______ _______ _______ _____ _____    ______ ____
ROOT
ATOM      1  C   UNL     1       1.546   3.942  19.610  0.00  0.00    +0.000 A 
ATOM      2  N   UNL     1       1.600   5.248  19.956  0.00  0.00    +0.000 NA
ATOM      3  C   UNL     1       2.657   5.997  19.580  0.00  0.00    +0.000 A 
ATOM      4  N   UNL     1       2.738   7.324  19.985  0.00  0.00    +0.000 N 
ATOM      5  N   UNL     1       3.699   5.575  18.842  0.00  0.00    +0.000 NA
ATOM      6  C   UNL     1       3.625   4.271  18.542  0.00  0.00    +0.000 A 
ATOM      7  C   UNL     1       2.617   3.395  18.890  0.00  0.00    +0.000 A 
ATOM      8  N   UNL     1       2.883   2.120  18.435  0.00  0.00    +0.000 NA
ATOM      9  C   UNL     1       4.027   2.231  17.787  0.00  0.00    +0.000 A 
ATOM     10  N   UNL     1       4.502   3.518  17.803  0.00  0.00    +0.000 N 
ATOM     11  H   UNL     1       3.430   7.773  19.399  0.00  0.00    +0.000 HD
ENDROOT
BRANCH  10  12
ATOM     12  C1* UNL     1       5.671   3.978  17.082  0.00  0.00    +0.000 C 
ATOM     13  O4* UNL     1       6.811   3.996  17.966  0.00  0.00    +0.000 OA
ATOM     14  C4* UNL     1       7.563   5.212  17.719  0.00  0.00    +0.000 C 
ATOM     15  C3* UNL     1       6.968   5.851  16.466  0.00  0.00    +0.000 C 
ATOM     16  C2* UNL     1       5.525   5.371  16.474  0.00  0.00    +0.000 C 
BRANCH  15  17
ATOM     17  O3* UNL     1       7.583   5.355  15.262  0.00  0.00    +0.000 OA
ATOM     18  H3* UNL     1       6.982   4.718  14.832  0.00  0.00    +0.000 HD
ENDBRANCH  15  17
BRANCH  16  19
ATOM     19  O2* UNL     1       4.977   5.337  15.156  0.00  0.00    +0.000 OA
ATOM     20  H2* UNL     1       4.003   5.285  15.267  0.00  0.00    +0.000 HD
ENDBRANCH  16  19
BRANCH  14  21
ATOM     21  C5* UNL     1       7.478   6.119  18.947  0.00  0.00    +0.000 C 
BRANCH  21  22
ATOM     22  O5* UNL     1       6.830   5.429  20.014  0.00  0.00    +0.000 OA
ATOM     23  H5* UNL     1       6.274   4.744  19.595  0.00  0.00    +0.000 HD
ENDBRANCH  21  22
ENDBRANCH  14  21
ENDBRANCH  10  12
BRANCH   1  24
ATOM     24  N   UNL     1       0.437   3.197  19.995  0.00  0.00    +0.000 N 
ATOM     25  H   UNL     1       0.632   2.205  19.993  0.00  0.00    +0.000 HD
ATOM     26  H   UNL     1      -0.424   3.511  19.561  0.00  0.00    +0.000 HD
ENDBRANCH   1  24
BRANCH   4  27
ATOM     27  C   UNL     1       1.471   8.031  20.137  0.00  0.00    +0.000 C 
BRANCH  27  28
ATOM     28  C   UNL     1       1.279   8.431  21.609  0.00  0.00    +0.000 C 
BRANCH  28  29
ATOM     29  C   UNL     1       0.325   9.588  21.807  0.00  0.00    +0.000 A 
ATOM     30  C   UNL     1      -0.302   9.793  23.044  0.00  0.00    +0.000 A 
ATOM     31  C   UNL     1      -1.165  10.881  23.240  0.00  0.00    +0.000 A 
ATOM     32  C   UNL     1      -1.431  11.782  22.201  0.00  0.00    +0.000 A 
ATOM     33  C   UNL     1      -0.814  11.566  20.960  0.00  0.00    +0.000 A 
ATOM     34  C   UNL     1       0.054  10.483  20.766  0.00  0.00    +0.000 A 
BRANCH  32  35
ATOM     35  C   UNL     1      -2.372  12.952  22.405  0.00  0.00    +0.000 C 
BRANCH  35  36
ATOM     36  C   UNL     1      -2.141  13.785  23.688  0.00  0.00    +0.000 C 
BRANCH  36  37
ATOM     37  C   UNL     1      -3.386  13.978  24.586  0.00  0.00    +0.000 C 
ATOM     38  C   UNL     1      -4.104  15.321  24.353  0.00  0.00    +0.000 C 
ATOM     39  C   UNL     1      -5.188  15.281  23.282  0.00  0.00    +0.000 C 
ATOM     40  C   UNL     1      -6.208  14.203  23.607  0.00  0.00    +0.000 C 
ATOM     41  C   UNL     1      -5.535  12.841  23.594  0.00  0.00    +0.000 C 
ATOM     42  C   UNL     1      -4.340  12.761  24.543  0.00  0.00    +0.000 C 
ENDBRANCH  36  37
ENDBRANCH  35  36
ENDBRANCH  32  35
ENDBRANCH  28  29
ENDBRANCH  27  28
ENDBRANCH   4  27
TORSDOF 12
ENDMDL
MODEL 8
REMARK VINA RESULT:      -8.3      1.925      2.681
REMARK  Name = 
REMARK  12 active torsions:
REMARK  status: ('A' for Active; 'I' for Inactive)
REMARK    1  A    between atoms: N_1  and  C_2
REMARK    2  A    between atoms: N_5  and  C_6
REMARK    3  A    between atoms: C_6  and  C_7
REMARK    4  A    between atoms: C_7  and  C_8
REMARK    5  A    between atoms: C_11  and  C_12
REMARK    6  A    between atoms: C_12  and  C_13
REMARK    7  A    between atoms: C_13  and  C_14
REMARK    8  A    between atoms: N_27  and  C1*_28
REMARK    9  A    between atoms: C4*_30  and  C5*_31
REMARK   10  A    between atoms: C5*_31  and  O5*_32
REMARK   11  A    between atoms: C3*_33  and  O3*_34
REMARK   12  A    between atoms: C2*_35  and  O2*_36
REMARK                            x       y       z     vdW  Elec       q    Type
REMARK                         _______ _______ _______ _____ _____    ______ ____
ROOT
ATOM      1  C   UNL     1       1.340   3.871  19.988  0.00  0.00    +0.000 A 
ATOM      2  N   UNL     1       1.216   5.090  20.559  0.00  0.00    +0.000 NA
ATOM      3  C   UNL     1       2.113   6.057  20.276  0.00  0.00    +0.000 A 
ATOM      4  N   UNL     1       2.018   7.291  20.908  0.00  0.00    +0.000 N 
ATOM      5  N   UNL     1       3.151   5.944  19.427  0.00  0.00    +0.000 NA
ATOM      6  C   UNL     1       3.258   4.716  18.902  0.00  0.00    +0.000 A 
ATOM      7  C   UNL     1       2.426   3.639  19.133  0.00  0.00    +0.000 A 
ATOM      8  N   UNL     1       2.851   2.522  18.445  0.00  0.00    +0.000 NA
ATOM      9  C   UNL     1       3.913   2.928  17.775  0.00  0.00    +0.000 A 
ATOM     10  N   UNL     1       4.183   4.254  18.000  0.00  0.00    +0.000 N 
ATOM     11  H   UNL     1       2.587   7.942  20.380  0.00  0.00    +0.000 HD
ENDROOT
BRANCH  10  12
ATOM     12  C1* UNL     1       5.210   5.017  17.320  0.00  0.00    +0.000 C 
ATOM     13  O4* UNL     1       4.717   5.466  16.042  0.00  0.00    +0.000 OA
ATOM     14  C4* UNL     1       5.768   5.292  15.058  0.00  0.00    +0.000 C 
ATOM     15  C3* UNL     1       7.035   4.928  15.827  0.00  0.00    +0.000 C 
ATOM     16  C2* UNL     1       6.507   4.247  17.080  0.00  0.00    +0.000 C 
BRANCH  15  17
ATOM     17  O3* UNL     1       7.769   6.095  16.245  0.00  0.00    +0.000 OA
ATOM     18  H3* UNL     1       7.151   6.742  16.635  0.00  0.00    +0.000 HD
ENDBRANCH  15  17
BRANCH  16  19
ATOM     19  O2* UNL     1       7.424   4.367  18.168  0.00  0.00    +0.000 OA
ATOM     20  H2* UNL     1       8.073   5.054  17.903  0.00  0.00    +0.000 HD
ENDBRANCH  16  19
BRANCH  14  21
ATOM     21  C5* UNL     1       5.350   4.216  14.055  0.00  0.00    +0.000 C 
BRANCH  21  22
ATOM     22  O5* UNL     1       6.478   3.421  13.700  0.00  0.00    +0.000 OA
ATOM     23  H5* UNL     1       6.567   3.495  12.729  0.00  0.00    +0.000 HD
ENDBRANCH  21  22
ENDBRANCH  14  21
ENDBRANCH  10  12
BRANCH   1  24
ATOM     24  N   UNL     1       0.391   2.899  20.284  0.00  0.00    +0.000 N 
ATOM     25  H   UNL     1       0.791   1.971  20.281  0.00  0.00    +0.000 HD
ATOM     26  H   UNL     1      -0.487   3.037  19.796  0.00  0.00    +0.000 HD
ENDBRANCH   1  24
BRANCH   4  27
ATOM     27  C   UNL     1       0.671   7.743  21.243  0.00  0.00    +0.000 C 
BRANCH  27  28
ATOM     28  C   UNL     1       0.754   8.935  22.209  0.00  0.00    +0.000 C 
BRANCH  28  29
ATOM     29  C   UNL     1       0.276  10.239  21.610  0.00  0.00    +0.000 A 
ATOM     30  C   UNL     1      -0.425  11.169  22.391  0.00  0.00    +0.000 A 
ATOM     31  C   UNL     1      -0.846  12.390  21.847  0.00  0.00    +0.000 A 
ATOM     32  C   UNL     1      -0.587  12.707  20.508  0.00  0.00    +0.000 A 
ATOM     33  C   UNL     1       0.101  11.769  19.725  0.00  0.00    +0.000 A 
ATOM     34  C   UNL     1       0.529  10.551  20.269  0.00  0.00    +0.000 A 
BRANCH  32  35
ATOM     35  C   UNL     1      -1.051  14.022  19.913  0.00  0.00    +0.000 C 
BRANCH  35  36
ATOM     36  C   UNL     1      -0.157  14.605  18.792  0.00  0.00    +0.000 C 
BRANCH  36  37
ATOM     37  C   UNL     1       1.032  15.469  19.275  0.00  0.00    +0.000 C 
ATOM     38  C   UNL     1       0.747  16.220  20.589  0.00  0.00    +0.000 C 
ATOM     39  C   UNL     1       1.116  15.448  21.851  0.00  0.00    +0.000 C 
ATOM     40  C   UNL     1       2.576  15.031  21.803  0.00  0.00    +0.000 C 
ATOM     41  C   UNL     1       2.801  14.085  20.636  0.00  0.00    +0.000 C 
ATOM     42  C   UNL     1       2.363  14.680  19.299  0.00  0.00    +0.000 C 
ENDBRANCH  36  37
ENDBRANCH  35  36
ENDBRANCH  32  35
ENDBRANCH  28  29
ENDBRANCH  27  28
ENDBRANCH   4  27
TORSDOF 12
ENDMDL
MODEL 9
REMARK VINA RESULT:      -8.3      0.903      1.620
REMARK  Name = 
REMARK  12 active torsions:
REMARK  status: ('A' for Active; 'I' for Inactive)
REMARK    1  A    between atoms: N_1  and  C_2
REMARK    2  A    between atoms: N_5  and  C_6
REMARK    3  A    between atoms: C_6  and  C_7
REMARK    4  A    between atoms: C_7  and  C_8
REMARK    5  A    between atoms: C_11  and  C_12
REMARK    6  A    between atoms: C_12  and  C_13
REMARK    7  A    between atoms: C_13  and  C_14
REMARK    8  A    between atoms: N_27  and  C1*_28
REMARK    9  A    between atoms: C4*_30  and  C5*_31
REMARK   10  A    between atoms: C5*_31  and  O5*_32
REMARK   11  A    between atoms: C3*_33  and  O3*_34
REMARK   12  A    between atoms: C2*_35  and  O2*_36
REMARK                            x       y       z     vdW  Elec       q    Type
REMARK                         _______ _______ _______ _____ _____    ______ ____
ROOT
ATOM      1  C   UNL     1       1.387   4.136  20.111  0.00  0.00    +0.000 A 
ATOM      2  N   UNL     1       1.299   5.387  20.617  0.00  0.00    +0.000 NA
ATOM      3  C   UNL     1       2.207   6.319  20.259  0.00  0.00    +0.000 A 
ATOM      4  N   UNL     1       2.150   7.587  20.824  0.00  0.00    +0.000 N 
ATOM      5  N   UNL     1       3.222   6.139  19.394  0.00  0.00    +0.000 NA
ATOM      6  C   UNL     1       3.293   4.881  18.936  0.00  0.00    +0.000 A 
ATOM      7  C   UNL     1       2.448   3.836  19.246  0.00  0.00    +0.000 A 
ATOM      8  N   UNL     1       2.836   2.674  18.612  0.00  0.00    +0.000 NA
ATOM      9  C   UNL     1       3.888   3.022  17.896  0.00  0.00    +0.000 A 
ATOM     10  N   UNL     1       4.188   4.353  18.040  0.00  0.00    +0.000 N 
ATOM     11  H   UNL     1       2.718   8.196  20.247  0.00  0.00    +0.000 HD
ENDROOT
BRANCH  10  12
ATOM     12  C1* UNL     1       5.212   5.056  17.296  0.00  0.00    +0.000 C 
ATOM     13  O4* UNL     1       4.703   5.426  15.998  0.00  0.00    +0.000 OA
ATOM     14  C4* UNL     1       5.736   5.175  15.012  0.00  0.00    +0.000 C 
ATOM     15  C3* UNL     1       7.012   4.847  15.783  0.00  0.00    +0.000 C 
ATOM     16  C2* UNL     1       6.497   4.257  17.086  0.00  0.00    +0.000 C 
BRANCH  15  17
ATOM     17  O3* UNL     1       7.765   6.030  16.112  0.00  0.00    +0.000 OA
ATOM     18  H3* UNL     1       7.153   6.783  16.216  0.00  0.00    +0.000 HD
ENDBRANCH  15  17
BRANCH  16  19
ATOM     19  O2* UNL     1       7.432   4.437  18.150  0.00  0.00    +0.000 OA
ATOM     20  H2* UNL     1       7.477   5.404  18.312  0.00  0.00    +0.000 HD
ENDBRANCH  16  19
BRANCH  14  21
ATOM     21  C5* UNL     1       5.290   4.040  14.088  0.00  0.00    +0.000 C 
BRANCH  21  22
ATOM     22  O5* UNL     1       6.430   3.415  13.504  0.00  0.00    +0.000 OA
ATOM     23  H5* UNL     1       7.071   4.132  13.326  0.00  0.00    +0.000 HD
ENDBRANCH  21  22
ENDBRANCH  14  21
ENDBRANCH  10  12
BRANCH   1  24
ATOM     24  N   UNL     1       0.428   3.201  20.483  0.00  0.00    +0.000 N 
ATOM     25  H   UNL     1       0.842   2.305  20.701  0.00  0.00    +0.000 HD
ATOM     26  H   UNL     1      -0.391   3.210  19.885  0.00  0.00    +0.000 HD
ENDBRANCH   1  24
BRANCH   4  27
ATOM     27  C   UNL     1       0.820   8.083  21.163  0.00  0.00    +0.000 C 
BRANCH  27  28
ATOM     28  C   UNL     1       0.489   9.306  20.293  0.00  0.00    +0.000 C 
BRANCH  28  29
ATOM     29  C   UNL     1      -0.375  10.333  20.988  0.00  0.00    +0.000 A 
ATOM     30  C   UNL     1      -1.120  11.260  20.246  0.00  0.00    +0.000 A 
ATOM     31  C   UNL     1      -1.944  12.196  20.887  0.00  0.00    +0.000 A 
ATOM     32  C   UNL     1      -2.035  12.236  22.284  0.00  0.00    +0.000 A 
ATOM     33  C   UNL     1      -1.277  11.318  23.024  0.00  0.00    +0.000 A 
ATOM     34  C   UNL     1      -0.459  10.377  22.385  0.00  0.00    +0.000 A 
BRANCH  32  35
ATOM     35  C   UNL     1      -2.916  13.254  22.980  0.00  0.00    +0.000 C 
BRANCH  35  36
ATOM     36  C   UNL     1      -2.203  14.174  24.000  0.00  0.00    +0.000 C 
BRANCH  36  37
ATOM     37  C   UNL     1      -1.719  15.533  23.441  0.00  0.00    +0.000 C 
ATOM     38  C   UNL     1      -0.223  15.543  23.071  0.00  0.00    +0.000 C 
ATOM     39  C   UNL     1       0.075  15.127  21.636  0.00  0.00    +0.000 C 
ATOM     40  C   UNL     1      -0.701  15.999  20.664  0.00  0.00    +0.000 C 
ATOM     41  C   UNL     1      -2.192  15.796  20.871  0.00  0.00    +0.000 C 
ATOM     42  C   UNL     1      -2.631  16.064  22.310  0.00  0.00    +0.000 C 
ENDBRANCH  36  37
ENDBRANCH  35  36
ENDBRANCH  32  35
ENDBRANCH  28  29
ENDBRANCH  27  28
ENDBRANCH   4  27
TORSDOF 12
ENDMDL
