MODEL 1
REMARK VINA RESULT:      -7.2      0.000      0.000
REMARK  Name = 
REMARK  4 active torsions:
REMARK  status: ('A' for Active; 'I' for Inactive)
REMARK    1  A    between atoms: C_2  and  C_9
REMARK    2  A    between atoms: C_12  and  C_13
REMARK    3  A    between atoms: C_13  and  O_14
REMARK    4  A    between atoms: O_14  and  C_15
REMARK                            x       y       z     vdW  Elec       q    Type
REMARK                         _______ _______ _______ _____ _____    ______ ____
ROOT
ATOM      1  C   UNL     1       3.616   7.181  17.855  0.00  0.00    +0.000 A 
ATOM      2  C   UNL     1       4.300   6.966  16.676  0.00  0.00    +0.000 A 
ATOM      3  C   UNL     1       5.140   5.856  16.879  0.00  0.00    +0.000 A 
ATOM      4  C   UNL     1       4.917   5.429  18.174  0.00  0.00    +0.000 A 
ATOM      5  O   UNL     1       4.014   6.256  18.797  0.00  0.00    +0.000 OA
ENDROOT
BRANCH   1   7
ATOM      6  O   UNL     1       2.285   8.977  17.267  0.00  0.00    +0.000 OA
ATOM      7  C   UNL     1       2.582   8.159  18.129  0.00  0.00    +0.000 C 
ATOM      8  N   UNL     1       2.053   8.108  19.401  0.00  0.00    +0.000 N 
ATOM      9  C   UNL     1       1.102   9.006  19.798  0.00  0.00    +0.000 A 
ATOM     10  N   UNL     1       0.399   9.829  19.058  0.00  0.00    +0.000 NA
ATOM     11  C   UNL     1      -0.384  10.626  19.863  0.00  0.00    +0.000 A 
ATOM     12  C   UNL     1      -0.268  10.393  21.215  0.00  0.00    +0.000 A 
ATOM     13  S   UNL     1       0.816   9.084  21.479  0.00  0.00    +0.000 S 
ATOM     14  H   UNL     1       2.464   7.492  20.090  0.00  0.00    +0.000 HD
ENDBRANCH   1   7
BRANCH   4  15
ATOM     15  C   UNL     1       5.393   4.213  18.893  0.00  0.00    +0.000 C 
BRANCH  15  16
ATOM     16  O   UNL     1       4.417   3.194  18.694  0.00  0.00    +0.000 OA
BRANCH  16  17
ATOM     17  C   UNL     1       3.316   3.199  19.514  0.00  0.00    +0.000 A 
ATOM     18  C   UNL     1       3.564   2.638  20.779  0.00  0.00    +0.000 A 
ATOM     19  C   UNL     1       2.537   2.447  21.708  0.00  0.00    +0.000 A 
ATOM     20  C   UNL     1       1.237   2.816  21.388  0.00  0.00    +0.000 A 
ATOM     21  C   UNL     1       0.971   3.370  20.138  0.00  0.00    +0.000 A 
ATOM     22  C   UNL     1       1.995   3.551  19.192  0.00  0.00    +0.000 A 
ATOM     23 BR   UNL     1       1.391   4.155  17.495  0.00  0.00    +0.000 Br
ENDBRANCH  16  17
ENDBRANCH  15  16
ENDBRANCH   4  15
TORSDOF 4
ENDMDL
MODEL 2
REMARK VINA RESULT:      -6.9      3.831      7.855
REMARK  Name = 
REMARK  4 active torsions:
REMARK  status: ('A' for Active; 'I' for Inactive)
REMARK    1  A    between atoms: C_2  and  C_9
REMARK    2  A    between atoms: C_12  and  C_13
REMARK    3  A    between atoms: C_13  and  O_14
REMARK    4  A    between atoms: O_14  and  C_15
REMARK                            x       y       z     vdW  Elec       q    Type
REMARK                         _______ _______ _______ _____ _____    ______ ____
ROOT
ATOM      1  C   UNL     1       1.503   8.370  20.231  0.00  0.00    +0.000 A 
ATOM      2  C   UNL     1       1.128   8.804  21.486  0.00  0.00    +0.000 A 
ATOM      3  C   UNL     1       0.369   9.977  21.312  0.00  0.00    +0.000 A 
ATOM      4  C   UNL     1       0.299  10.197  19.949  0.00  0.00    +0.000 A 
ATOM      5  O   UNL     1       1.023   9.242  19.276  0.00  0.00    +0.000 OA
ENDROOT
BRANCH   1   7
ATOM      6  O   UNL     1       2.895   7.151  18.846  0.00  0.00    +0.000 OA
ATOM      7  C   UNL     1       2.231   7.168  19.876  0.00  0.00    +0.000 C 
ATOM      8  N   UNL     1       2.053   6.104  20.733  0.00  0.00    +0.000 N 
ATOM      9  C   UNL     1       2.651   4.900  20.483  0.00  0.00    +0.000 A 
ATOM     10  N   UNL     1       3.605   4.626  19.627  0.00  0.00    +0.000 NA
ATOM     11  C   UNL     1       3.856   3.272  19.627  0.00  0.00    +0.000 A 
ATOM     12  C   UNL     1       3.085   2.529  20.493  0.00  0.00    +0.000 A 
ATOM     13  S   UNL     1       2.053   3.579  21.385  0.00  0.00    +0.000 S 
ATOM     14  H   UNL     1       1.370   6.168  21.476  0.00  0.00    +0.000 HD
ENDBRANCH   1   7
BRANCH   4  15
ATOM     15  C   UNL     1      -0.496  11.183  19.163  0.00  0.00    +0.000 C 
BRANCH  15  16
ATOM     16  O   UNL     1      -1.870  10.841  19.320  0.00  0.00    +0.000 OA
BRANCH  16  17
ATOM     17  C   UNL     1      -2.649  10.794  18.190  0.00  0.00    +0.000 A 
ATOM     18  C   UNL     1      -1.992  10.219  17.089  0.00  0.00    +0.000 A 
ATOM     19  C   UNL     1      -2.578  10.192  15.821  0.00  0.00    +0.000 A 
ATOM     20  C   UNL     1      -3.840  10.741  15.629  0.00  0.00    +0.000 A 
ATOM     21  C   UNL     1      -4.504  11.319  16.709  0.00  0.00    +0.000 A 
ATOM     22  C   UNL     1      -3.915  11.364  17.984  0.00  0.00    +0.000 A 
ATOM     23 BR   UNL     1      -4.911  12.348  19.268  0.00  0.00    +0.000 Br
ENDBRANCH  16  17
ENDBRANCH  15  16
ENDBRANCH   4  15
TORSDOF 4
ENDMDL
MODEL 3
REMARK VINA RESULT:      -6.9      4.017      6.110
REMARK  Name = 
REMARK  4 active torsions:
REMARK  status: ('A' for Active; 'I' for Inactive)
REMARK    1  A    between atoms: C_2  and  C_9
REMARK    2  A    between atoms: C_12  and  C_13
REMARK    3  A    between atoms: C_13  and  O_14
REMARK    4  A    between atoms: O_14  and  C_15
REMARK                            x       y       z     vdW  Elec       q    Type
REMARK                         _______ _______ _______ _____ _____    ______ ____
ROOT
ATOM      1  C   UNL     1       5.787   5.738  17.684  0.00  0.00    +0.000 A 
ATOM      2  C   UNL     1       6.024   4.978  18.811  0.00  0.00    +0.000 A 
ATOM      3  C   UNL     1       4.964   5.219  19.705  0.00  0.00    +0.000 A 
ATOM      4  C   UNL     1       4.114   6.106  19.073  0.00  0.00    +0.000 A 
ATOM      5  O   UNL     1       4.626   6.463  17.849  0.00  0.00    +0.000 OA
ENDROOT
BRANCH   1   7
ATOM      6  O   UNL     1       7.388   6.660  16.295  0.00  0.00    +0.000 OA
ATOM      7  C   UNL     1       6.550   5.780  16.452  0.00  0.00    +0.000 C 
ATOM      8  N   UNL     1       6.205   4.826  15.520  0.00  0.00    +0.000 N 
ATOM      9  C   UNL     1       6.821   4.789  14.299  0.00  0.00    +0.000 A 
ATOM     10  N   UNL     1       7.910   5.411  13.917  0.00  0.00    +0.000 NA
ATOM     11  C   UNL     1       8.137   5.172  12.579  0.00  0.00    +0.000 A 
ATOM     12  C   UNL     1       7.213   4.362  11.960  0.00  0.00    +0.000 A 
ATOM     13  S   UNL     1       6.052   3.830  13.114  0.00  0.00    +0.000 S 
ATOM     14  H   UNL     1       5.401   4.234  15.681  0.00  0.00    +0.000 HD
ENDBRANCH   1   7
BRANCH   4  15
ATOM     15  C   UNL     1       2.759   6.596  19.456  0.00  0.00    +0.000 C 
BRANCH  15  16
ATOM     16  O   UNL     1       1.806   5.742  18.829  0.00  0.00    +0.000 OA
BRANCH  16  17
ATOM     17  C   UNL     1       1.723   4.446  19.275  0.00  0.00    +0.000 A 
ATOM     18  C   UNL     1       1.280   4.346  20.605  0.00  0.00    +0.000 A 
ATOM     19  C   UNL     1       1.244   3.118  21.273  0.00  0.00    +0.000 A 
ATOM     20  C   UNL     1       1.651   1.963  20.619  0.00  0.00    +0.000 A 
ATOM     21  C   UNL     1       2.096   2.043  19.302  0.00  0.00    +0.000 A 
ATOM     22  C   UNL     1       2.150   3.276  18.627  0.00  0.00    +0.000 A 
ATOM     23 BR   UNL     1       2.950   3.189  16.907  0.00  0.00    +0.000 Br
ENDBRANCH  16  17
ENDBRANCH  15  16
ENDBRANCH   4  15
TORSDOF 4
ENDMDL
MODEL 4
REMARK VINA RESULT:      -6.8      5.761      8.214
REMARK  Name = 
REMARK  4 active torsions:
REMARK  status: ('A' for Active; 'I' for Inactive)
REMARK    1  A    between atoms: C_2  and  C_9
REMARK    2  A    between atoms: C_12  and  C_13
REMARK    3  A    between atoms: C_13  and  O_14
REMARK    4  A    between atoms: O_14  and  C_15
REMARK                            x       y       z     vdW  Elec       q    Type
REMARK                         _______ _______ _______ _____ _____    ______ ____
ROOT
ATOM      1  C   UNL     1       6.301   6.321  17.977  0.00  0.00    +0.000 A 
ATOM      2  C   UNL     1       7.395   5.880  18.694  0.00  0.00    +0.000 A 
ATOM      3  C   UNL     1       8.342   6.921  18.692  0.00  0.00    +0.000 A 
ATOM      4  C   UNL     1       7.773   7.964  17.985  0.00  0.00    +0.000 A 
ATOM      5  O   UNL     1       6.539   7.596  17.507  0.00  0.00    +0.000 OA
ENDROOT
BRANCH   1   7
ATOM      6  O   UNL     1       4.539   5.656  16.637  0.00  0.00    +0.000 OA
ATOM      7  C   UNL     1       5.039   5.644  17.756  0.00  0.00    +0.000 C 
ATOM      8  N   UNL     1       4.475   5.079  18.879  0.00  0.00    +0.000 N 
ATOM      9  C   UNL     1       3.263   4.450  18.811  0.00  0.00    +0.000 A 
ATOM     10  N   UNL     1       2.600   4.075  17.745  0.00  0.00    +0.000 NA
ATOM     11  C   UNL     1       1.378   3.558  18.115  0.00  0.00    +0.000 A 
ATOM     12  C   UNL     1       1.130   3.543  19.469  0.00  0.00    +0.000 A 
ATOM     13  S   UNL     1       2.507   4.142  20.310  0.00  0.00    +0.000 S 
ATOM     14  H   UNL     1       4.891   5.246  19.787  0.00  0.00    +0.000 HD
ENDBRANCH   1   7
BRANCH   4  15
ATOM     15  C   UNL     1       8.230   9.370  17.790  0.00  0.00    +0.000 C 
BRANCH  15  16
ATOM     16  O   UNL     1       8.945   9.750  18.962  0.00  0.00    +0.000 OA
BRANCH  16  17
ATOM     17  C   UNL     1       9.579  10.968  18.954  0.00  0.00    +0.000 A 
ATOM     18  C   UNL     1      10.347  11.184  17.797  0.00  0.00    +0.000 A 
ATOM     19  C   UNL     1      11.159  12.314  17.661  0.00  0.00    +0.000 A 
ATOM     20  C   UNL     1      11.217  13.253  18.683  0.00  0.00    +0.000 A 
ATOM     21  C   UNL     1      10.465  13.053  19.838  0.00  0.00    +0.000 A 
ATOM     22  C   UNL     1       9.658  11.912  19.991  0.00  0.00    +0.000 A 
ATOM     23 BR   UNL     1       8.857  11.746  21.705  0.00  0.00    +0.000 Br
ENDBRANCH  16  17
ENDBRANCH  15  16
ENDBRANCH   4  15
TORSDOF 4
ENDMDL
MODEL 5
REMARK VINA RESULT:      -6.8      2.351      4.302
REMARK  Name = 
REMARK  4 active torsions:
REMARK  status: ('A' for Active; 'I' for Inactive)
REMARK    1  A    between atoms: C_2  and  C_9
REMARK    2  A    between atoms: C_12  and  C_13
REMARK    3  A    between atoms: C_13  and  O_14
REMARK    4  A    between atoms: O_14  and  C_15
REMARK                            x       y       z     vdW  Elec       q    Type
REMARK                         _______ _______ _______ _____ _____    ______ ____
ROOT
ATOM      1  C   UNL     1       2.183   6.188  20.095  0.00  0.00    +0.000 A 
ATOM      2  C   UNL     1       1.690   5.121  20.819  0.00  0.00    +0.000 A 
ATOM      3  C   UNL     1       2.513   4.014  20.541  0.00  0.00    +0.000 A 
ATOM      4  C   UNL     1       3.487   4.461  19.669  0.00  0.00    +0.000 A 
ATOM      5  O   UNL     1       3.274   5.781  19.356  0.00  0.00    +0.000 OA
ENDROOT
BRANCH   1   7
ATOM      6  O   UNL     1       2.114   8.326  19.221  0.00  0.00    +0.000 OA
ATOM      7  C   UNL     1       1.727   7.563  20.098  0.00  0.00    +0.000 C 
ATOM      8  N   UNL     1       0.918   7.907  21.160  0.00  0.00    +0.000 N 
ATOM      9  C   UNL     1       0.458   9.187  21.301  0.00  0.00    +0.000 A 
ATOM     10  N   UNL     1       0.477  10.160  20.423  0.00  0.00    +0.000 NA
ATOM     11  C   UNL     1      -0.003  11.316  21.000  0.00  0.00    +0.000 A 
ATOM     12  C   UNL     1      -0.387  11.203  22.317  0.00  0.00    +0.000 A 
ATOM     13  S   UNL     1      -0.197   9.571  22.830  0.00  0.00    +0.000 S 
ATOM     14  H   UNL     1       0.772   7.248  21.913  0.00  0.00    +0.000 HD
ENDBRANCH   1   7
BRANCH   4  15
ATOM     15  C   UNL     1       4.717   3.790  19.157  0.00  0.00    +0.000 C 
BRANCH  15  16
ATOM     16  O   UNL     1       5.621   4.814  18.751  0.00  0.00    +0.000 OA
BRANCH  16  17
ATOM     17  C   UNL     1       5.920   4.907  17.414  0.00  0.00    +0.000 A 
ATOM     18  C   UNL     1       5.475   3.801  16.670  0.00  0.00    +0.000 A 
ATOM     19  C   UNL     1       5.790   3.657  15.315  0.00  0.00    +0.000 A 
ATOM     20  C   UNL     1       6.558   4.623  14.677  0.00  0.00    +0.000 A 
ATOM     21  C   UNL     1       7.010   5.724  15.400  0.00  0.00    +0.000 A 
ATOM     22  C   UNL     1       6.711   5.869  16.766  0.00  0.00    +0.000 A 
ATOM     23 BR   UNL     1       7.568   7.344  17.600  0.00  0.00    +0.000 Br
ENDBRANCH  16  17
ENDBRANCH  15  16
ENDBRANCH   4  15
TORSDOF 4
ENDMDL
MODEL 6
REMARK VINA RESULT:      -6.8      5.294      6.153
REMARK  Name = 
REMARK  4 active torsions:
REMARK  status: ('A' for Active; 'I' for Inactive)
REMARK    1  A    between atoms: C_2  and  C_9
REMARK    2  A    between atoms: C_12  and  C_13
REMARK    3  A    between atoms: C_13  and  O_14
REMARK    4  A    between atoms: O_14  and  C_15
REMARK                            x       y       z     vdW  Elec       q    Type
REMARK                         _______ _______ _______ _____ _____    ______ ____
ROOT
ATOM      1  C   UNL     1       7.929   8.227  17.979  0.00  0.00    +0.000 A 
ATOM      2  C   UNL     1       8.276   7.222  18.859  0.00  0.00    +0.000 A 
ATOM      3  C   UNL     1       7.780   6.016  18.329  0.00  0.00    +0.000 A 
ATOM      4  C   UNL     1       7.166   6.338  17.134  0.00  0.00    +0.000 A 
ATOM      5  O   UNL     1       7.215   7.694  16.925  0.00  0.00    +0.000 OA
ENDROOT
BRANCH   1   7
ATOM      6  O   UNL     1       7.795  10.405  17.216  0.00  0.00    +0.000 OA
ATOM      7  C   UNL     1       8.273   9.633  18.040  0.00  0.00    +0.000 C 
ATOM      8  N   UNL     1       9.181   9.970  19.021  0.00  0.00    +0.000 N 
ATOM      9  C   UNL     1       9.619  11.258  19.153  0.00  0.00    +0.000 A 
ATOM     10  N   UNL     1       9.127  12.346  18.611  0.00  0.00    +0.000 NA
ATOM     11  C   UNL     1       9.922  13.425  18.930  0.00  0.00    +0.000 A 
ATOM     12  C   UNL     1      11.013  13.141  19.720  0.00  0.00    +0.000 A 
ATOM     13  S   UNL     1      11.004  11.469  20.129  0.00  0.00    +0.000 S 
ATOM     14  H   UNL     1       9.630   9.241  19.559  0.00  0.00    +0.000 HD
ENDBRANCH   1   7
BRANCH   4  15
ATOM     15  C   UNL     1       6.608   5.465  16.061  0.00  0.00    +0.000 C 
BRANCH  15  16
ATOM     16  O   UNL     1       5.212   5.736  15.977  0.00  0.00    +0.000 OA
BRANCH  16  17
ATOM     17  C   UNL     1       4.392   5.147  16.908  0.00  0.00    +0.000 A 
ATOM     18  C   UNL     1       4.430   3.742  16.868  0.00  0.00    +0.000 A 
ATOM     19  C   UNL     1       3.576   2.966  17.657  0.00  0.00    +0.000 A 
ATOM     20  C   UNL     1       2.666   3.582  18.505  0.00  0.00    +0.000 A 
ATOM     21  C   UNL     1       2.612   4.973  18.555  0.00  0.00    +0.000 A 
ATOM     22  C   UNL     1       3.456   5.762  17.755  0.00  0.00    +0.000 A 
ATOM     23 BR   UNL     1       3.100   7.625  17.846  0.00  0.00    +0.000 Br
ENDBRANCH  16  17
ENDBRANCH  15  16
ENDBRANCH   4  15
TORSDOF 4
ENDMDL
MODEL 7
REMARK VINA RESULT:      -6.7      2.607      3.829
REMARK  Name = 
REMARK  4 active torsions:
REMARK  status: ('A' for Active; 'I' for Inactive)
REMARK    1  A    between atoms: C_2  and  C_9
REMARK    2  A    between atoms: C_12  and  C_13
REMARK    3  A    between atoms: C_13  and  O_14
REMARK    4  A    between atoms: O_14  and  C_15
REMARK                            x       y       z     vdW  Elec       q    Type
REMARK                         _______ _______ _______ _____ _____    ______ ____
ROOT
ATOM      1  C   UNL     1       0.899   9.678  19.786  0.00  0.00    +0.000 A 
ATOM      2  C   UNL     1       1.145  10.339  18.600  0.00  0.00    +0.000 A 
ATOM      3  C   UNL     1       1.947   9.494  17.810  0.00  0.00    +0.000 A 
ATOM      4  C   UNL     1       2.141   8.341  18.547  0.00  0.00    +0.000 A 
ATOM      5  O   UNL     1       1.537   8.455  19.775  0.00  0.00    +0.000 OA
ENDROOT
BRANCH   1   7
ATOM      6  O   UNL     1       0.012   9.406  21.903  0.00  0.00    +0.000 OA
ATOM      7  C   UNL     1       0.065  10.099  20.893  0.00  0.00    +0.000 C 
ATOM      8  N   UNL     1      -0.660  11.250  20.673  0.00  0.00    +0.000 N 
ATOM      9  C   UNL     1      -1.518  11.727  21.625  0.00  0.00    +0.000 A 
ATOM     10  N   UNL     1      -1.616  11.375  22.883  0.00  0.00    +0.000 NA
ATOM     11  C   UNL     1      -2.672  12.036  23.471  0.00  0.00    +0.000 A 
ATOM     12  C   UNL     1      -3.364  12.893  22.645  0.00  0.00    +0.000 A 
ATOM     13  S   UNL     1      -2.623  12.915  21.092  0.00  0.00    +0.000 S 
ATOM     14  H   UNL     1      -0.662  11.673  19.754  0.00  0.00    +0.000 HD
ENDBRANCH   1   7
BRANCH   4  15
ATOM     15  C   UNL     1       2.764   7.039  18.170  0.00  0.00    +0.000 C 
BRANCH  15  16
ATOM     16  O   UNL     1       3.001   6.318  19.377  0.00  0.00    +0.000 OA
BRANCH  16  17
ATOM     17  C   UNL     1       2.549   5.024  19.443  0.00  0.00    +0.000 A 
ATOM     18  C   UNL     1       1.618   4.815  20.476  0.00  0.00    +0.000 A 
ATOM     19  C   UNL     1       1.135   3.538  20.776  0.00  0.00    +0.000 A 
ATOM     20  C   UNL     1       1.575   2.441  20.046  0.00  0.00    +0.000 A 
ATOM     21  C   UNL     1       2.500   2.629  19.021  0.00  0.00    +0.000 A 
ATOM     22  C   UNL     1       3.002   3.907  18.722  0.00  0.00    +0.000 A 
ATOM     23 BR   UNL     1       4.378   3.917  17.413  0.00  0.00    +0.000 Br
ENDBRANCH  16  17
ENDBRANCH  15  16
ENDBRANCH   4  15
TORSDOF 4
ENDMDL
MODEL 8
REMARK VINA RESULT:      -6.7      3.951      5.073
REMARK  Name = 
REMARK  4 active torsions:
REMARK  status: ('A' for Active; 'I' for Inactive)
REMARK    1  A    between atoms: C_2  and  C_9
REMARK    2  A    between atoms: C_12  and  C_13
REMARK    3  A    between atoms: C_13  and  O_14
REMARK    4  A    between atoms: O_14  and  C_15
REMARK                            x       y       z     vdW  Elec       q    Type
REMARK                         _______ _______ _______ _____ _____    ______ ____
ROOT
ATOM      1  C   UNL     1       6.676   6.117  17.104  0.00  0.00    +0.000 A 
ATOM      2  C   UNL     1       6.281   6.247  15.789  0.00  0.00    +0.000 A 
ATOM      3  C   UNL     1       5.434   5.161  15.499  0.00  0.00    +0.000 A 
ATOM      4  C   UNL     1       5.334   4.423  16.663  0.00  0.00    +0.000 A 
ATOM      5  O   UNL     1       6.122   4.975  17.644  0.00  0.00    +0.000 OA
ENDROOT
BRANCH   1   7
ATOM      6  O   UNL     1       7.982   6.625  18.942  0.00  0.00    +0.000 OA
ATOM      7  C   UNL     1       7.491   7.020  17.892  0.00  0.00    +0.000 C 
ATOM      8  N   UNL     1       7.590   8.301  17.393  0.00  0.00    +0.000 N 
ATOM      9  C   UNL     1       8.294   9.260  18.068  0.00  0.00    +0.000 A 
ATOM     10  N   UNL     1       9.129   9.106  19.066  0.00  0.00    +0.000 NA
ATOM     11  C   UNL     1       9.552  10.338  19.513  0.00  0.00    +0.000 A 
ATOM     12  C   UNL     1       9.031  11.420  18.841  0.00  0.00    +0.000 A 
ATOM     13  S   UNL     1       8.023  10.867  17.560  0.00  0.00    +0.000 S 
ATOM     14  H   UNL     1       7.030   8.573  16.596  0.00  0.00    +0.000 HD
ENDBRANCH   1   7
BRANCH   4  15
ATOM     15  C   UNL     1       4.458   3.267  17.009  0.00  0.00    +0.000 C 
BRANCH  15  16
ATOM     16  O   UNL     1       3.121   3.754  17.076  0.00  0.00    +0.000 OA
BRANCH  16  17
ATOM     17  C   UNL     1       2.571   3.935  18.321  0.00  0.00    +0.000 A 
ATOM     18  C   UNL     1       2.009   2.763  18.854  0.00  0.00    +0.000 A 
ATOM     19  C   UNL     1       1.298   2.775  20.058  0.00  0.00    +0.000 A 
ATOM     20  C   UNL     1       1.137   3.966  20.754  0.00  0.00    +0.000 A 
ATOM     21  C   UNL     1       1.684   5.139  20.239  0.00  0.00    +0.000 A 
ATOM     22  C   UNL     1       2.387   5.138  19.022  0.00  0.00    +0.000 A 
ATOM     23 BR   UNL     1       2.896   6.864  18.414  0.00  0.00    +0.000 Br
ENDBRANCH  16  17
ENDBRANCH  15  16
ENDBRANCH   4  15
TORSDOF 4
ENDMDL
MODEL 9
REMARK VINA RESULT:      -6.7      2.675      4.079
REMARK  Name = 
REMARK  4 active torsions:
REMARK  status: ('A' for Active; 'I' for Inactive)
REMARK    1  A    between atoms: C_2  and  C_9
REMARK    2  A    between atoms: C_12  and  C_13
REMARK    3  A    between atoms: C_13  and  O_14
REMARK    4  A    between atoms: O_14  and  C_15
REMARK                            x       y       z     vdW  Elec       q    Type
REMARK                         _______ _______ _______ _____ _____    ______ ____
ROOT
ATOM      1  C   UNL     1       1.785   8.788  18.923  0.00  0.00    +0.000 A 
ATOM      2  C   UNL     1       2.288   8.711  17.640  0.00  0.00    +0.000 A 
ATOM      3  C   UNL     1       3.066   7.541  17.568  0.00  0.00    +0.000 A 
ATOM      4  C   UNL     1       2.987   6.942  18.811  0.00  0.00    +0.000 A 
ATOM      5  O   UNL     1       2.238   7.716  19.663  0.00  0.00    +0.000 OA
ENDROOT
BRANCH   1   7
ATOM      6  O   UNL     1       0.618  10.781  18.831  0.00  0.00    +0.000 OA
ATOM      7  C   UNL     1       0.870   9.769  19.473  0.00  0.00    +0.000 C 
ATOM      8  N   UNL     1       0.399   9.483  20.736  0.00  0.00    +0.000 N 
ATOM      9  C   UNL     1      -0.437  10.351  21.382  0.00  0.00    +0.000 A 
ATOM     10  N   UNL     1      -1.085  11.377  20.887  0.00  0.00    +0.000 NA
ATOM     11  C   UNL     1      -1.745  12.042  21.898  0.00  0.00    +0.000 A 
ATOM     12  C   UNL     1      -1.591  11.504  23.156  0.00  0.00    +0.000 A 
ATOM     13  S   UNL     1      -0.634  10.077  23.055  0.00  0.00    +0.000 S 
ATOM     14  H   UNL     1       0.776   8.695  21.245  0.00  0.00    +0.000 HD
ENDBRANCH   1   7
BRANCH   4  15
ATOM     15  C   UNL     1       3.466   5.611  19.282  0.00  0.00    +0.000 C 
BRANCH  15  16
ATOM     16  O   UNL     1       4.880   5.583  19.105  0.00  0.00    +0.000 OA
BRANCH  16  17
ATOM     17  C   UNL     1       5.359   5.262  17.859  0.00  0.00    +0.000 A 
ATOM     18  C   UNL     1       4.735   4.134  17.299  0.00  0.00    +0.000 A 
ATOM     19  C   UNL     1       5.169   3.584  16.090  0.00  0.00    +0.000 A 
ATOM     20  C   UNL     1       6.240   4.156  15.414  0.00  0.00    +0.000 A 
ATOM     21  C   UNL     1       6.873   5.272  15.956  0.00  0.00    +0.000 A 
ATOM     22  C   UNL     1       6.453   5.822  17.179  0.00  0.00    +0.000 A 
ATOM     23 BR   UNL     1       7.558   7.227  17.822  0.00  0.00    +0.000 Br
ENDBRANCH  16  17
ENDBRANCH  15  16
ENDBRANCH   4  15
TORSDOF 4
ENDMDL
