MODEL 1
REMARK VINA RESULT:      -7.0      0.000      0.000
REMARK  Name = 
REMARK  10 active torsions:
REMARK  status: ('A' for Active; 'I' for Inactive)
REMARK    1  A    between atoms: C_1  and  C_2
REMARK    2  A    between atoms: C_2  and  C_3
REMARK    3  A    between atoms: C_3  and  N_4
REMARK    4  A    between atoms: C_5  and  O_6
REMARK    5  A    between atoms: C_9  and  S_10
REMARK    6  A    between atoms: S_10  and  C_11
REMARK    7  A    between atoms: C_11  and  C_12
REMARK    8  A    between atoms: N_14  and  C_15
REMARK    9  A    between atoms: C_21  and  O_22
REMARK   10  A    between atoms: O_22  and  C_23
REMARK                            x       y       z     vdW  Elec       q    Type
REMARK                         _______ _______ _______ _____ _____    ______ ____
ROOT
ATOM      1  C   UNL     1       5.972   4.917  18.524  0.00  0.00    +0.000 C 
ATOM      2  O   UNL     1       6.439   5.150  19.637  0.00  0.00    +0.000 OA
ATOM      3  N   UNL     1       4.619   4.893  18.198  0.00  0.00    +0.000 N 
ATOM      4  H   UNL     1       4.379   4.580  17.269  0.00  0.00    +0.000 HD
ENDROOT
BRANCH   3   5
ATOM      5  C   UNL     1       3.537   5.130  19.082  0.00  0.00    +0.000 A 
ATOM      6  C   UNL     1       3.131   6.439  19.384  0.00  0.00    +0.000 A 
ATOM      7  C   UNL     1       2.055   6.689  20.237  0.00  0.00    +0.000 A 
ATOM      8 CL   UNL     1       1.560   8.310  20.535  0.00  0.00    +0.000 Cl
ATOM      9  C   UNL     1       1.363   5.639  20.822  0.00  0.00    +0.000 A 
ATOM     10  C   UNL     1       1.729   4.330  20.514  0.00  0.00    +0.000 A 
ATOM     11  C   UNL     1       2.799   4.062  19.641  0.00  0.00    +0.000 A 
BRANCH  11  12
ATOM     12  O   UNL     1       2.922   2.731  19.333  0.00  0.00    +0.000 OA
ATOM     13  C   UNL     1       1.735   1.983  19.119  0.00  0.00    +0.000 C 
ENDBRANCH  11  12
ENDBRANCH   3   5
BRANCH   1  14
ATOM     14  C   UNL     1       6.890   4.542  17.372  0.00  0.00    +0.000 C 
BRANCH  14  15
ATOM     15  S   UNL     1       5.864   3.969  15.984  0.00  0.00    +0.000 S 
BRANCH  15  20
ATOM     16  N   UNL     1       6.597   4.192  13.338  0.00  0.00    +0.000 N 
ATOM     17  C   UNL     1       7.473   4.967  12.624  0.00  0.00    +0.000 A 
ATOM     18  N   UNL     1       8.199   5.692  13.443  0.00  0.00    +0.000 NA
ATOM     19  N   UNL     1       7.762   5.434  14.725  0.00  0.00    +0.000 NA
ATOM     20  C   UNL     1       6.797   4.541  14.649  0.00  0.00    +0.000 A 
BRANCH  17  21
ATOM     21  O   UNL     1       7.615   5.008  11.307  0.00  0.00    +0.000 OA
ATOM     22  H   UNL     1       7.322   4.174  10.919  0.00  0.00    +0.000 HD
ENDBRANCH  17  21
BRANCH  16  23
ATOM     23  C   UNL     1       5.655   3.235  12.790  0.00  0.00    +0.000 C 
BRANCH  23  25
ATOM     24  C   UNL     1       3.704   3.005  11.203  0.00  0.00    +0.000 C 
ATOM     25  C   UNL     1       5.045   3.678  11.454  0.00  0.00    +0.000 C 
ENDBRANCH  23  25
ENDBRANCH  16  23
ENDBRANCH  15  20
ENDBRANCH  14  15
ENDBRANCH   1  14
TORSDOF 8
ENDMDL
MODEL 2
REMARK VINA RESULT:      -6.9      4.985      6.925
REMARK  Name = 
REMARK  10 active torsions:
REMARK  status: ('A' for Active; 'I' for Inactive)
REMARK    1  A    between atoms: C_1  and  C_2
REMARK    2  A    between atoms: C_2  and  C_3
REMARK    3  A    between atoms: C_3  and  N_4
REMARK    4  A    between atoms: C_5  and  O_6
REMARK    5  A    between atoms: C_9  and  S_10
REMARK    6  A    between atoms: S_10  and  C_11
REMARK    7  A    between atoms: C_11  and  C_12
REMARK    8  A    between atoms: N_14  and  C_15
REMARK    9  A    between atoms: C_21  and  O_22
REMARK   10  A    between atoms: O_22  and  C_23
REMARK                            x       y       z     vdW  Elec       q    Type
REMARK                         _______ _______ _______ _____ _____    ______ ____
ROOT
ATOM      1  C   UNL     1       2.025   8.622  18.303  0.00  0.00    +0.000 C 
ATOM      2  O   UNL     1       2.013   9.355  17.317  0.00  0.00    +0.000 OA
ATOM      3  N   UNL     1       1.272   8.801  19.459  0.00  0.00    +0.000 N 
ATOM      4  H   UNL     1       1.466   8.180  20.231  0.00  0.00    +0.000 HD
ENDROOT
BRANCH   3   5
ATOM      5  C   UNL     1       0.359   9.855  19.714  0.00  0.00    +0.000 A 
ATOM      6  C   UNL     1      -0.567  10.252  18.737  0.00  0.00    +0.000 A 
ATOM      7  C   UNL     1      -1.486  11.275  18.978  0.00  0.00    +0.000 A 
ATOM      8 CL   UNL     1      -2.638  11.691  17.768  0.00  0.00    +0.000 Cl
ATOM      9  C   UNL     1      -1.496  11.937  20.196  0.00  0.00    +0.000 A 
ATOM     10  C   UNL     1      -0.606  11.540  21.192  0.00  0.00    +0.000 A 
ATOM     11  C   UNL     1       0.313  10.498  20.971  0.00  0.00    +0.000 A 
BRANCH  11  12
ATOM     12  O   UNL     1       1.003  10.140  22.101  0.00  0.00    +0.000 OA
ATOM     13  C   UNL     1       0.286   9.499  23.145  0.00  0.00    +0.000 C 
ENDBRANCH  11  12
ENDBRANCH   3   5
BRANCH   1  14
ATOM     14  C   UNL     1       2.976   7.437  18.365  0.00  0.00    +0.000 C 
BRANCH  14  15
ATOM     15  S   UNL     1       2.403   6.309  19.670  0.00  0.00    +0.000 S 
BRANCH  15  20
ATOM     16  N   UNL     1       3.504   3.804  19.994  0.00  0.00    +0.000 N 
ATOM     17  C   UNL     1       4.696   3.207  19.677  0.00  0.00    +0.000 A 
ATOM     18  N   UNL     1       5.532   4.101  19.200  0.00  0.00    +0.000 NA
ATOM     19  N   UNL     1       4.865   5.307  19.151  0.00  0.00    +0.000 NA
ATOM     20  C   UNL     1       3.650   5.115  19.621  0.00  0.00    +0.000 A 
BRANCH  17  21
ATOM     21  O   UNL     1       5.014   1.928  19.819  0.00  0.00    +0.000 OA
ATOM     22  H   UNL     1       5.103   1.715  20.757  0.00  0.00    +0.000 HD
ENDBRANCH  17  21
BRANCH  16  23
ATOM     23  C   UNL     1       2.347   3.153  20.577  0.00  0.00    +0.000 C 
BRANCH  23  25
ATOM     24  C   UNL     1       1.250   2.941  18.311  0.00  0.00    +0.000 C 
ATOM     25  C   UNL     1       1.617   2.222  19.601  0.00  0.00    +0.000 C 
ENDBRANCH  23  25
ENDBRANCH  16  23
ENDBRANCH  15  20
ENDBRANCH  14  15
ENDBRANCH   1  14
TORSDOF 8
ENDMDL
MODEL 3
REMARK VINA RESULT:      -6.9      1.740      2.282
REMARK  Name = 
REMARK  10 active torsions:
REMARK  status: ('A' for Active; 'I' for Inactive)
REMARK    1  A    between atoms: C_1  and  C_2
REMARK    2  A    between atoms: C_2  and  C_3
REMARK    3  A    between atoms: C_3  and  N_4
REMARK    4  A    between atoms: C_5  and  O_6
REMARK    5  A    between atoms: C_9  and  S_10
REMARK    6  A    between atoms: S_10  and  C_11
REMARK    7  A    between atoms: C_11  and  C_12
REMARK    8  A    between atoms: N_14  and  C_15
REMARK    9  A    between atoms: C_21  and  O_22
REMARK   10  A    between atoms: O_22  and  C_23
REMARK                            x       y       z     vdW  Elec       q    Type
REMARK                         _______ _______ _______ _____ _____    ______ ____
ROOT
ATOM      1  C   UNL     1       5.963   4.542  18.257  0.00  0.00    +0.000 C 
ATOM      2  O   UNL     1       6.404   4.607  19.402  0.00  0.00    +0.000 OA
ATOM      3  N   UNL     1       4.618   4.468  17.906  0.00  0.00    +0.000 N 
ATOM      4  H   UNL     1       4.409   4.308  16.932  0.00  0.00    +0.000 HD
ENDROOT
BRANCH   3   5
ATOM      5  C   UNL     1       3.516   4.453  18.798  0.00  0.00    +0.000 A 
ATOM      6  C   UNL     1       3.433   3.494  19.818  0.00  0.00    +0.000 A 
ATOM      7  C   UNL     1       2.364   3.477  20.716  0.00  0.00    +0.000 A 
ATOM      8 CL   UNL     1       2.333   2.314  21.985  0.00  0.00    +0.000 Cl
ATOM      9  C   UNL     1       1.344   4.410  20.612  0.00  0.00    +0.000 A 
ATOM     10  C   UNL     1       1.420   5.391  19.624  0.00  0.00    +0.000 A 
ATOM     11  C   UNL     1       2.500   5.433  18.724  0.00  0.00    +0.000 A 
BRANCH  11  12
ATOM     12  O   UNL     1       2.491   6.546  17.924  0.00  0.00    +0.000 OA
ATOM     13  C   UNL     1       2.490   7.820  18.552  0.00  0.00    +0.000 C 
ENDBRANCH  11  12
ENDBRANCH   3   5
BRANCH   1  14
ATOM     14  C   UNL     1       6.913   4.456  17.073  0.00  0.00    +0.000 C 
BRANCH  14  15
ATOM     15  S   UNL     1       6.003   3.774  15.654  0.00  0.00    +0.000 S 
BRANCH  15  20
ATOM     16  N   UNL     1       6.724   4.160  13.023  0.00  0.00    +0.000 N 
ATOM     17  C   UNL     1       7.544   5.024  12.347  0.00  0.00    +0.000 A 
ATOM     18  N   UNL     1       8.215   5.764  13.199  0.00  0.00    +0.000 NA
ATOM     19  N   UNL     1       7.794   5.423  14.467  0.00  0.00    +0.000 NA
ATOM     20  C   UNL     1       6.896   4.467  14.349  0.00  0.00    +0.000 A 
BRANCH  17  21
ATOM     21  O   UNL     1       7.686   5.130  11.033  0.00  0.00    +0.000 OA
ATOM     22  H   UNL     1       7.485   4.285  10.612  0.00  0.00    +0.000 HD
ENDBRANCH  17  21
BRANCH  16  23
ATOM     23  C   UNL     1       5.854   3.162  12.431  0.00  0.00    +0.000 C 
BRANCH  23  25
ATOM     24  C   UNL     1       3.864   3.132  10.875  0.00  0.00    +0.000 C 
ATOM     25  C   UNL     1       4.428   3.668  12.183  0.00  0.00    +0.000 C 
ENDBRANCH  23  25
ENDBRANCH  16  23
ENDBRANCH  15  20
ENDBRANCH  14  15
ENDBRANCH   1  14
TORSDOF 8
ENDMDL
MODEL 4
REMARK VINA RESULT:      -6.8      2.812      4.532
REMARK  Name = 
REMARK  10 active torsions:
REMARK  status: ('A' for Active; 'I' for Inactive)
REMARK    1  A    between atoms: C_1  and  C_2
REMARK    2  A    between atoms: C_2  and  C_3
REMARK    3  A    between atoms: C_3  and  N_4
REMARK    4  A    between atoms: C_5  and  O_6
REMARK    5  A    between atoms: C_9  and  S_10
REMARK    6  A    between atoms: S_10  and  C_11
REMARK    7  A    between atoms: C_11  and  C_12
REMARK    8  A    between atoms: N_14  and  C_15
REMARK    9  A    between atoms: C_21  and  O_22
REMARK   10  A    between atoms: O_22  and  C_23
REMARK                            x       y       z     vdW  Elec       q    Type
REMARK                         _______ _______ _______ _____ _____    ______ ____
ROOT
ATOM      1  C   UNL     1       2.160   4.467  19.885  0.00  0.00    +0.000 C 
ATOM      2  O   UNL     1       1.146   4.305  19.209  0.00  0.00    +0.000 OA
ATOM      3  N   UNL     1       2.663   5.691  20.315  0.00  0.00    +0.000 N 
ATOM      4  H   UNL     1       3.565   5.680  20.770  0.00  0.00    +0.000 HD
ENDROOT
BRANCH   3   5
ATOM      5  C   UNL     1       2.106   6.968  20.055  0.00  0.00    +0.000 A 
ATOM      6  C   UNL     1       1.466   7.692  21.074  0.00  0.00    +0.000 A 
ATOM      7  C   UNL     1       0.928   8.959  20.840  0.00  0.00    +0.000 A 
ATOM      8 CL   UNL     1       0.201   9.830  22.133  0.00  0.00    +0.000 Cl
ATOM      9  C   UNL     1       1.003   9.531  19.579  0.00  0.00    +0.000 A 
ATOM     10  C   UNL     1       1.660   8.844  18.559  0.00  0.00    +0.000 A 
ATOM     11  C   UNL     1       2.224   7.575  18.785  0.00  0.00    +0.000 A 
BRANCH  11  12
ATOM     12  O   UNL     1       2.957   7.116  17.721  0.00  0.00    +0.000 OA
ATOM     13  C   UNL     1       4.000   7.941  17.223  0.00  0.00    +0.000 C 
ENDBRANCH  11  12
ENDBRANCH   3   5
BRANCH   1  14
ATOM     14  C   UNL     1       3.031   3.278  20.258  0.00  0.00    +0.000 C 
BRANCH  14  15
ATOM     15  S   UNL     1       3.992   2.788  18.794  0.00  0.00    +0.000 S 
BRANCH  15  20
ATOM     16  N   UNL     1       5.675   4.700  17.747  0.00  0.00    +0.000 N 
ATOM     17  C   UNL     1       6.578   5.597  18.254  0.00  0.00    +0.000 A 
ATOM     18  N   UNL     1       6.731   5.398  19.543  0.00  0.00    +0.000 NA
ATOM     19  N   UNL     1       5.875   4.382  19.911  0.00  0.00    +0.000 NA
ATOM     20  C   UNL     1       5.242   3.978  18.829  0.00  0.00    +0.000 A 
BRANCH  17  21
ATOM     21  O   UNL     1       7.233   6.537  17.587  0.00  0.00    +0.000 OA
ATOM     22  H   UNL     1       6.878   6.613  16.692  0.00  0.00    +0.000 HD
ENDBRANCH  17  21
BRANCH  16  23
ATOM     23  C   UNL     1       5.268   4.583  16.359  0.00  0.00    +0.000 C 
BRANCH  23  25
ATOM     24  C   UNL     1       5.913   3.929  14.006  0.00  0.00    +0.000 C 
ATOM     25  C   UNL     1       6.317   3.899  15.473  0.00  0.00    +0.000 C 
ENDBRANCH  23  25
ENDBRANCH  16  23
ENDBRANCH  15  20
ENDBRANCH  14  15
ENDBRANCH   1  14
TORSDOF 8
ENDMDL
MODEL 5
REMARK VINA RESULT:      -6.8      4.127      5.649
REMARK  Name = 
REMARK  10 active torsions:
REMARK  status: ('A' for Active; 'I' for Inactive)
REMARK    1  A    between atoms: C_1  and  C_2
REMARK    2  A    between atoms: C_2  and  C_3
REMARK    3  A    between atoms: C_3  and  N_4
REMARK    4  A    between atoms: C_5  and  O_6
REMARK    5  A    between atoms: C_9  and  S_10
REMARK    6  A    between atoms: S_10  and  C_11
REMARK    7  A    between atoms: C_11  and  C_12
REMARK    8  A    between atoms: N_14  and  C_15
REMARK    9  A    between atoms: C_21  and  O_22
REMARK   10  A    between atoms: O_22  and  C_23
REMARK                            x       y       z     vdW  Elec       q    Type
REMARK                         _______ _______ _______ _____ _____    ______ ____
ROOT
ATOM      1  C   UNL     1       1.678   5.111  20.798  0.00  0.00    +0.000 C 
ATOM      2  O   UNL     1       0.512   4.935  20.450  0.00  0.00    +0.000 OA
ATOM      3  N   UNL     1       2.431   6.258  20.569  0.00  0.00    +0.000 N 
ATOM      4  H   UNL     1       3.409   6.219  20.815  0.00  0.00    +0.000 HD
ENDROOT
BRANCH   3   5
ATOM      5  C   UNL     1       1.998   7.428  19.895  0.00  0.00    +0.000 A 
ATOM      6  C   UNL     1       1.348   8.457  20.592  0.00  0.00    +0.000 A 
ATOM      7  C   UNL     1       0.932   9.624  19.948  0.00  0.00    +0.000 A 
ATOM      8 CL   UNL     1       0.186  10.882  20.855  0.00  0.00    +0.000 Cl
ATOM      9  C   UNL     1       1.144   9.788  18.588  0.00  0.00    +0.000 A 
ATOM     10  C   UNL     1       1.815   8.792  17.880  0.00  0.00    +0.000 A 
ATOM     11  C   UNL     1       2.257   7.620  18.519  0.00  0.00    +0.000 A 
BRANCH  11  12
ATOM     12  O   UNL     1       3.026   6.823  17.710  0.00  0.00    +0.000 OA
ATOM     13  C   UNL     1       4.222   7.371  17.177  0.00  0.00    +0.000 C 
ENDBRANCH  11  12
ENDBRANCH   3   5
BRANCH   1  14
ATOM     14  C   UNL     1       2.451   3.993  21.479  0.00  0.00    +0.000 C 
BRANCH  14  15
ATOM     15  S   UNL     1       2.157   2.450  20.562  0.00  0.00    +0.000 S 
BRANCH  15  20
ATOM     16  N   UNL     1       3.749   3.356  18.503  0.00  0.00    +0.000 N 
ATOM     17  C   UNL     1       3.590   3.564  17.158  0.00  0.00    +0.000 A 
ATOM     18  N   UNL     1       2.334   3.379  16.822  0.00  0.00    +0.000 NA
ATOM     19  N   UNL     1       1.654   2.989  17.956  0.00  0.00    +0.000 NA
ATOM     20  C   UNL     1       2.512   2.971  18.954  0.00  0.00    +0.000 A 
BRANCH  17  21
ATOM     21  O   UNL     1       4.526   3.911  16.286  0.00  0.00    +0.000 OA
ATOM     22  H   UNL     1       5.168   4.495  16.709  0.00  0.00    +0.000 HD
ENDBRANCH  17  21
BRANCH  16  23
ATOM     23  C   UNL     1       4.982   3.497  19.254  0.00  0.00    +0.000 C 
BRANCH  23  25
ATOM     24  C   UNL     1       6.795   5.174  18.728  0.00  0.00    +0.000 C 
ATOM     25  C   UNL     1       5.446   4.952  19.394  0.00  0.00    +0.000 C 
ENDBRANCH  23  25
ENDBRANCH  16  23
ENDBRANCH  15  20
ENDBRANCH  14  15
ENDBRANCH   1  14
TORSDOF 8
ENDMDL
MODEL 6
REMARK VINA RESULT:      -6.8      4.533      6.929
REMARK  Name = 
REMARK  10 active torsions:
REMARK  status: ('A' for Active; 'I' for Inactive)
REMARK    1  A    between atoms: C_1  and  C_2
REMARK    2  A    between atoms: C_2  and  C_3
REMARK    3  A    between atoms: C_3  and  N_4
REMARK    4  A    between atoms: C_5  and  O_6
REMARK    5  A    between atoms: C_9  and  S_10
REMARK    6  A    between atoms: S_10  and  C_11
REMARK    7  A    between atoms: C_11  and  C_12
REMARK    8  A    between atoms: N_14  and  C_15
REMARK    9  A    between atoms: C_21  and  O_22
REMARK   10  A    between atoms: O_22  and  C_23
REMARK                            x       y       z     vdW  Elec       q    Type
REMARK                         _______ _______ _______ _____ _____    ______ ____
ROOT
ATOM      1  C   UNL     1       1.962   9.173  18.165  0.00  0.00    +0.000 C 
ATOM      2  O   UNL     1       2.200  10.174  17.494  0.00  0.00    +0.000 OA
ATOM      3  N   UNL     1       0.970   9.059  19.134  0.00  0.00    +0.000 N 
ATOM      4  H   UNL     1       0.962   8.211  19.681  0.00  0.00    +0.000 HD
ENDROOT
BRANCH   3   5
ATOM      5  C   UNL     1       0.057  10.070  19.525  0.00  0.00    +0.000 A 
ATOM      6  C   UNL     1      -1.034  10.405  18.709  0.00  0.00    +0.000 A 
ATOM      7  C   UNL     1      -1.954  11.385  19.089  0.00  0.00    +0.000 A 
ATOM      8 CL   UNL     1      -3.306  11.724  18.080  0.00  0.00    +0.000 Cl
ATOM      9  C   UNL     1      -1.800  12.065  20.287  0.00  0.00    +0.000 A 
ATOM     10  C   UNL     1      -0.740  11.728  21.128  0.00  0.00    +0.000 A 
ATOM     11  C   UNL     1       0.183  10.730  20.769  0.00  0.00    +0.000 A 
BRANCH  11  12
ATOM     12  O   UNL     1       1.065  10.425  21.774  0.00  0.00    +0.000 OA
ATOM     13  C   UNL     1       0.727   9.367  22.659  0.00  0.00    +0.000 C 
ENDBRANCH  11  12
ENDBRANCH   3   5
BRANCH   1  14
ATOM     14  C   UNL     1       2.835   7.935  18.029  0.00  0.00    +0.000 C 
BRANCH  14  15
ATOM     15  S   UNL     1       2.433   6.797  19.390  0.00  0.00    +0.000 S 
BRANCH  15  20
ATOM     16  N   UNL     1       3.043   4.212  18.661  0.00  0.00    +0.000 N 
ATOM     17  C   UNL     1       4.182   3.530  18.322  0.00  0.00    +0.000 A 
ATOM     18  N   UNL     1       5.233   4.297  18.502  0.00  0.00    +0.000 NA
ATOM     19  N   UNL     1       4.781   5.531  18.918  0.00  0.00    +0.000 NA
ATOM     20  C   UNL     1       3.468   5.470  19.002  0.00  0.00    +0.000 A 
BRANCH  17  21
ATOM     21  O   UNL     1       4.268   2.282  17.884  0.00  0.00    +0.000 OA
ATOM     22  H   UNL     1       3.622   2.135  17.182  0.00  0.00    +0.000 HD
ENDBRANCH  17  21
BRANCH  16  23
ATOM     23  C   UNL     1       1.690   3.690  18.629  0.00  0.00    +0.000 C 
BRANCH  23  25
ATOM     24  C   UNL     1       1.261   3.237  21.077  0.00  0.00    +0.000 C 
ATOM     25  C   UNL     1       1.425   2.620  19.695  0.00  0.00    +0.000 C 
ENDBRANCH  23  25
ENDBRANCH  16  23
ENDBRANCH  15  20
ENDBRANCH  14  15
ENDBRANCH   1  14
TORSDOF 8
ENDMDL
MODEL 7
REMARK VINA RESULT:      -6.7      4.767      7.166
REMARK  Name = 
REMARK  10 active torsions:
REMARK  status: ('A' for Active; 'I' for Inactive)
REMARK    1  A    between atoms: C_1  and  C_2
REMARK    2  A    between atoms: C_2  and  C_3
REMARK    3  A    between atoms: C_3  and  N_4
REMARK    4  A    between atoms: C_5  and  O_6
REMARK    5  A    between atoms: C_9  and  S_10
REMARK    6  A    between atoms: S_10  and  C_11
REMARK    7  A    between atoms: C_11  and  C_12
REMARK    8  A    between atoms: N_14  and  C_15
REMARK    9  A    between atoms: C_21  and  O_22
REMARK   10  A    between atoms: O_22  and  C_23
REMARK                            x       y       z     vdW  Elec       q    Type
REMARK                         _______ _______ _______ _____ _____    ______ ____
ROOT
ATOM      1  C   UNL     1       2.027   9.051  18.091  0.00  0.00    +0.000 C 
ATOM      2  O   UNL     1       2.186   9.974  17.296  0.00  0.00    +0.000 OA
ATOM      3  N   UNL     1       1.078   9.007  19.108  0.00  0.00    +0.000 N 
ATOM      4  H   UNL     1       1.135   8.233  19.753  0.00  0.00    +0.000 HD
ENDROOT
BRANCH   3   5
ATOM      5  C   UNL     1       0.126  10.012  19.414  0.00  0.00    +0.000 A 
ATOM      6  C   UNL     1       0.280  10.823  20.548  0.00  0.00    +0.000 A 
ATOM      7  C   UNL     1      -0.638  11.830  20.854  0.00  0.00    +0.000 A 
ATOM      8 CL   UNL     1      -0.377  12.836  22.226  0.00  0.00    +0.000 Cl
ATOM      9  C   UNL     1      -1.741  12.045  20.041  0.00  0.00    +0.000 A 
ATOM     10  C   UNL     1      -1.899  11.271  18.893  0.00  0.00    +0.000 A 
ATOM     11  C   UNL     1      -0.973  10.265  18.562  0.00  0.00    +0.000 A 
BRANCH  11  12
ATOM     12  O   UNL     1      -1.199   9.710  17.328  0.00  0.00    +0.000 OA
ATOM     13  C   UNL     1      -2.359  10.115  16.617  0.00  0.00    +0.000 C 
ENDBRANCH  11  12
ENDBRANCH   3   5
BRANCH   1  14
ATOM     14  C   UNL     1       2.960   7.851  18.068  0.00  0.00    +0.000 C 
BRANCH  14  15
ATOM     15  S   UNL     1       2.387   6.654  19.311  0.00  0.00    +0.000 S 
BRANCH  15  20
ATOM     16  N   UNL     1       2.014   4.003  18.660  0.00  0.00    +0.000 N 
ATOM     17  C   UNL     1       2.529   3.138  17.731  0.00  0.00    +0.000 A 
ATOM     18  N   UNL     1       3.513   3.715  17.080  0.00  0.00    +0.000 NA
ATOM     19  N   UNL     1       3.620   5.007  17.549  0.00  0.00    +0.000 NA
ATOM     20  C   UNL     1       2.712   5.170  18.489  0.00  0.00    +0.000 A 
BRANCH  17  21
ATOM     21  O   UNL     1       2.139   1.894  17.492  0.00  0.00    +0.000 OA
ATOM     22  H   UNL     1       2.808   1.436  16.966  0.00  0.00    +0.000 HD
ENDBRANCH  17  21
BRANCH  16  23
ATOM     23  C   UNL     1       0.941   3.719  19.594  0.00  0.00    +0.000 C 
BRANCH  23  25
ATOM     24  C   UNL     1       2.191   3.442  21.771  0.00  0.00    +0.000 C 
ATOM     25  C   UNL     1       1.346   2.751  20.712  0.00  0.00    +0.000 C 
ENDBRANCH  23  25
ENDBRANCH  16  23
ENDBRANCH  15  20
ENDBRANCH  14  15
ENDBRANCH   1  14
TORSDOF 8
ENDMDL
MODEL 8
REMARK VINA RESULT:      -6.7      5.879      8.279
REMARK  Name = 
REMARK  10 active torsions:
REMARK  status: ('A' for Active; 'I' for Inactive)
REMARK    1  A    between atoms: C_1  and  C_2
REMARK    2  A    between atoms: C_2  and  C_3
REMARK    3  A    between atoms: C_3  and  N_4
REMARK    4  A    between atoms: C_5  and  O_6
REMARK    5  A    between atoms: C_9  and  S_10
REMARK    6  A    between atoms: S_10  and  C_11
REMARK    7  A    between atoms: C_11  and  C_12
REMARK    8  A    between atoms: N_14  and  C_15
REMARK    9  A    between atoms: C_21  and  O_22
REMARK   10  A    between atoms: O_22  and  C_23
REMARK                            x       y       z     vdW  Elec       q    Type
REMARK                         _______ _______ _______ _____ _____    ______ ____
ROOT
ATOM      1  C   UNL     1       8.292   8.824  18.338  0.00  0.00    +0.000 C 
ATOM      2  O   UNL     1       7.648   9.441  17.493  0.00  0.00    +0.000 OA
ATOM      3  N   UNL     1       9.261   9.364  19.179  0.00  0.00    +0.000 N 
ATOM      4  H   UNL     1       9.785   8.716  19.748  0.00  0.00    +0.000 HD
ENDROOT
BRANCH   3   5
ATOM      5  C   UNL     1       9.684  10.717  19.214  0.00  0.00    +0.000 A 
ATOM      6  C   UNL     1      10.215  11.331  18.070  0.00  0.00    +0.000 A 
ATOM      7  C   UNL     1      10.619  12.668  18.082  0.00  0.00    +0.000 A 
ATOM      8 CL   UNL     1      11.215  13.393  16.639  0.00  0.00    +0.000 Cl
ATOM      9  C   UNL     1      10.514  13.423  19.240  0.00  0.00    +0.000 A 
ATOM     10  C   UNL     1       9.961  12.842  20.381  0.00  0.00    +0.000 A 
ATOM     11  C   UNL     1       9.532  11.503  20.379  0.00  0.00    +0.000 A 
BRANCH  11  12
ATOM     12  O   UNL     1       8.879  11.145  21.530  0.00  0.00    +0.000 OA
ATOM     13  C   UNL     1       8.272  12.172  22.300  0.00  0.00    +0.000 C 
ENDBRANCH  11  12
ENDBRANCH   3   5
BRANCH   1  14
ATOM     14  C   UNL     1       8.119   7.320  18.486  0.00  0.00    +0.000 C 
BRANCH  14  15
ATOM     15  S   UNL     1       6.922   6.755  17.239  0.00  0.00    +0.000 S 
BRANCH  15  20
ATOM     16  N   UNL     1       4.680   5.471  18.194  0.00  0.00    +0.000 N 
ATOM     17  C   UNL     1       4.434   4.347  18.938  0.00  0.00    +0.000 A 
ATOM     18  N   UNL     1       5.566   3.843  19.375  0.00  0.00    +0.000 NA
ATOM     19  N   UNL     1       6.588   4.618  18.869  0.00  0.00    +0.000 NA
ATOM     20  C   UNL     1       6.046   5.584  18.157  0.00  0.00    +0.000 A 
BRANCH  17  21
ATOM     21  O   UNL     1       3.254   3.811  19.215  0.00  0.00    +0.000 OA
ATOM     22  H   UNL     1       2.681   4.473  19.623  0.00  0.00    +0.000 HD
ENDBRANCH  17  21
BRANCH  16  23
ATOM     23  C   UNL     1       3.684   6.322  17.572  0.00  0.00    +0.000 C 
BRANCH  23  25
ATOM     24  C   UNL     1       2.149   8.302  17.891  0.00  0.00    +0.000 C 
ATOM     25  C   UNL     1       2.890   7.165  18.577  0.00  0.00    +0.000 C 
ENDBRANCH  23  25
ENDBRANCH  16  23
ENDBRANCH  15  20
ENDBRANCH  14  15
ENDBRANCH   1  14
TORSDOF 8
ENDMDL
MODEL 9
REMARK VINA RESULT:      -6.7      6.272      8.320
REMARK  Name = 
REMARK  10 active torsions:
REMARK  status: ('A' for Active; 'I' for Inactive)
REMARK    1  A    between atoms: C_1  and  C_2
REMARK    2  A    between atoms: C_2  and  C_3
REMARK    3  A    between atoms: C_3  and  N_4
REMARK    4  A    between atoms: C_5  and  O_6
REMARK    5  A    between atoms: C_9  and  S_10
REMARK    6  A    between atoms: S_10  and  C_11
REMARK    7  A    between atoms: C_11  and  C_12
REMARK    8  A    between atoms: N_14  and  C_15
REMARK    9  A    between atoms: C_21  and  O_22
REMARK   10  A    between atoms: O_22  and  C_23
REMARK                            x       y       z     vdW  Elec       q    Type
REMARK                         _______ _______ _______ _____ _____    ______ ____
ROOT
ATOM      1  C   UNL     1       7.708   7.917  17.828  0.00  0.00    +0.000 C 
ATOM      2  O   UNL     1       8.210   7.153  18.649  0.00  0.00    +0.000 OA
ATOM      3  N   UNL     1       6.612   7.634  17.018  0.00  0.00    +0.000 N 
ATOM      4  H   UNL     1       6.377   8.317  16.313  0.00  0.00    +0.000 HD
ENDROOT
BRANCH   3   5
ATOM      5  C   UNL     1       5.878   6.422  16.988  0.00  0.00    +0.000 A 
ATOM      6  C   UNL     1       4.610   6.337  17.583  0.00  0.00    +0.000 A 
ATOM      7  C   UNL     1       3.866   5.156  17.546  0.00  0.00    +0.000 A 
ATOM      8 CL   UNL     1       2.292   5.116  18.243  0.00  0.00    +0.000 Cl
ATOM      9  C   UNL     1       4.374   4.025  16.926  0.00  0.00    +0.000 A 
ATOM     10  C   UNL     1       5.619   4.094  16.303  0.00  0.00    +0.000 A 
ATOM     11  C   UNL     1       6.372   5.282  16.315  0.00  0.00    +0.000 A 
BRANCH  11  12
ATOM     12  O   UNL     1       7.494   5.216  15.529  0.00  0.00    +0.000 OA
ATOM     13  C   UNL     1       7.322   5.010  14.135  0.00  0.00    +0.000 C 
ENDBRANCH  11  12
ENDBRANCH   3   5
BRANCH   1  14
ATOM     14  C   UNL     1       8.330   9.280  17.568  0.00  0.00    +0.000 C 
BRANCH  14  15
ATOM     15  S   UNL     1       9.040   9.892  19.126  0.00  0.00    +0.000 S 
BRANCH  15  20
ATOM     16  N   UNL     1       9.644  12.580  19.168  0.00  0.00    +0.000 N 
ATOM     17  C   UNL     1      10.495  13.406  18.483  0.00  0.00    +0.000 A 
ATOM     18  N   UNL     1      11.070  12.743  17.505  0.00  0.00    +0.000 NA
ATOM     19  N   UNL     1      10.632  11.438  17.573  0.00  0.00    +0.000 NA
ATOM     20  C   UNL     1       9.784  11.350  18.578  0.00  0.00    +0.000 A 
BRANCH  17  21
ATOM     21  O   UNL     1      10.733  14.687  18.721  0.00  0.00    +0.000 OA
ATOM     22  H   UNL     1       9.969  15.087  19.156  0.00  0.00    +0.000 HD
ENDBRANCH  17  21
BRANCH  16  23
ATOM     23  C   UNL     1       8.805  12.954  20.291  0.00  0.00    +0.000 C 
BRANCH  23  25
ATOM     24  C   UNL     1       9.814  14.416  22.086  0.00  0.00    +0.000 C 
ATOM     25  C   UNL     1       9.556  12.989  21.627  0.00  0.00    +0.000 C 
ENDBRANCH  23  25
ENDBRANCH  16  23
ENDBRANCH  15  20
ENDBRANCH  14  15
ENDBRANCH   1  14
TORSDOF 8
ENDMDL
