MODEL 1
REMARK VINA RESULT:      -8.2      0.000      0.000
REMARK  Name = 
REMARK  12 active torsions:
REMARK  status: ('A' for Active; 'I' for Inactive)
REMARK    1  A    between atoms: C_1  and  O_2
REMARK    2  A    between atoms: O_2  and  C_3
REMARK    3  A    between atoms: C_5  and  N_6
REMARK    4  A    between atoms: N_6  and  C_7
REMARK    5  A    between atoms: C_7  and  C_8
REMARK    6  A    between atoms: C_7  and  C_9
REMARK    7  A    between atoms: C_9  and  C_10
REMARK    8  A    between atoms: C_10  and  C_11
REMARK    9  A    between atoms: C_11  and  N_12
REMARK   10  A    between atoms: N_15  and  N_16
REMARK   11  A    between atoms: N_19  and  C_20
REMARK   12  A    between atoms: C_23  and  O_24
REMARK                            x       y       z     vdW  Elec       q    Type
REMARK                         _______ _______ _______ _____ _____    ______ ____
ROOT
ATOM      1  N   UNL     1       8.841   8.581  19.004  0.00  0.00    +0.000 N 
ATOM      2  C   UNL     1       8.064   7.697  18.300  0.00  0.00    +0.000 C 
ATOM      3  O   UNL     1       7.428   7.984  17.287  0.00  0.00    +0.000 OA
ATOM      4  N   UNL     1       8.020   6.436  18.843  0.00  0.00    +0.000 N 
ATOM      5  H   UNL     1       9.191   8.303  19.912  0.00  0.00    +0.000 HD
ATOM      6  H   UNL     1       8.690   6.113  19.543  0.00  0.00    +0.000 HD
ENDROOT
BRANCH   4   7
ATOM      7  N   UNL     1       7.352   5.404  18.130  0.00  0.00    +0.000 N 
ATOM      8  C   UNL     1       6.069   5.107  18.538  0.00  0.00    +0.000 C 
ATOM      9  O   UNL     1       5.596   5.685  19.523  0.00  0.00    +0.000 OA
ATOM     10  N   UNL     1       5.469   4.092  17.814  0.00  0.00    +0.000 N 
ATOM     11  H   UNL     1       7.638   5.309  17.157  0.00  0.00    +0.000 HD
ATOM     12  H   UNL     1       6.088   3.538  17.234  0.00  0.00    +0.000 HD
BRANCH  10  13
ATOM     13  C   UNL     1       4.182   3.557  18.071  0.00  0.00    +0.000 A 
ATOM     14  C   UNL     1       3.989   2.370  18.789  0.00  0.00    +0.000 A 
ATOM     15  C   UNL     1       2.717   1.815  18.945  0.00  0.00    +0.000 A 
ATOM     16  C   UNL     1       1.619   2.457  18.391  0.00  0.00    +0.000 A 
ATOM     17  C   UNL     1       1.774   3.660  17.715  0.00  0.00    +0.000 A 
ATOM     18  C   UNL     1       3.053   4.221  17.568  0.00  0.00    +0.000 A 
BRANCH  16  19
ATOM     19  O   UNL     1       0.367   1.928  18.491  0.00  0.00    +0.000 OA
ATOM     20  H   UNL     1      -0.278   2.649  18.422  0.00  0.00    +0.000 HD
ENDBRANCH  16  19
ENDBRANCH  10  13
ENDBRANCH   4   7
BRANCH   1  21
ATOM     21  C   UNL     1       8.944   9.983  18.630  0.00  0.00    +0.000 C 
BRANCH  21  22
ATOM     22  C   UNL     1       9.314  10.888  19.806  0.00  0.00    +0.000 C 
BRANCH  22  23
ATOM     23  C   UNL     1       9.838  12.273  19.397  0.00  0.00    +0.000 C 
BRANCH  23  24
ATOM     24  C   UNL     1      10.117  12.413  17.887  0.00  0.00    +0.000 C 
ATOM     25  C   UNL     1      11.562  12.014  17.582  0.00  0.00    +0.000 C 
BRANCH  24  26
ATOM     26  N   UNL     1       9.804  13.785  17.454  0.00  0.00    +0.000 N 
ATOM     27  H   UNL     1      10.044  14.042  16.494  0.00  0.00    +0.000 HD
BRANCH  26  30
ATOM     28  C   UNL     1       6.240  14.715  18.055  0.00  0.00    +0.000 A 
ATOM     29  C   UNL     1       7.379  14.030  17.643  0.00  0.00    +0.000 A 
ATOM     30  C   UNL     1       8.674  14.496  17.917  0.00  0.00    +0.000 A 
ATOM     31  C   UNL     1       8.828  15.652  18.724  0.00  0.00    +0.000 A 
ATOM     32  N   UNL     1      10.058  16.112  19.061  0.00  0.00    +0.000 NA
ATOM     33  C   UNL     1      10.143  17.216  19.844  0.00  0.00    +0.000 A 
ATOM     34  C   UNL     1       9.057  17.917  20.321  0.00  0.00    +0.000 A 
ATOM     35  C   UNL     1       7.794  17.471  19.969  0.00  0.00    +0.000 A 
ATOM     36  C   UNL     1       7.661  16.328  19.166  0.00  0.00    +0.000 A 
ATOM     37  C   UNL     1       6.384  15.870  18.814  0.00  0.00    +0.000 A 
BRANCH  28  39
ATOM     38  C   UNL     1       3.963  14.784  18.702  0.00  0.00    +0.000 C 
ATOM     39  O   UNL     1       4.952  14.344  17.773  0.00  0.00    +0.000 OA
ENDBRANCH  28  39
ENDBRANCH  26  30
ENDBRANCH  24  26
ENDBRANCH  23  24
ENDBRANCH  22  23
ENDBRANCH  21  22
ENDBRANCH   1  21
TORSDOF 10
ENDMDL
MODEL 2
REMARK VINA RESULT:      -8.0      3.310      4.217
REMARK  Name = 
REMARK  12 active torsions:
REMARK  status: ('A' for Active; 'I' for Inactive)
REMARK    1  A    between atoms: C_1  and  O_2
REMARK    2  A    between atoms: O_2  and  C_3
REMARK    3  A    between atoms: C_5  and  N_6
REMARK    4  A    between atoms: N_6  and  C_7
REMARK    5  A    between atoms: C_7  and  C_8
REMARK    6  A    between atoms: C_7  and  C_9
REMARK    7  A    between atoms: C_9  and  C_10
REMARK    8  A    between atoms: C_10  and  C_11
REMARK    9  A    between atoms: C_11  and  N_12
REMARK   10  A    between atoms: N_15  and  N_16
REMARK   11  A    between atoms: N_19  and  C_20
REMARK   12  A    between atoms: C_23  and  O_24
REMARK                            x       y       z     vdW  Elec       q    Type
REMARK                         _______ _______ _______ _____ _____    ______ ____
ROOT
ATOM      1  N   UNL     1       8.570   8.415  18.654  0.00  0.00    +0.000 N 
ATOM      2  C   UNL     1       7.953   7.258  18.254  0.00  0.00    +0.000 C 
ATOM      3  O   UNL     1       7.429   7.095  17.153  0.00  0.00    +0.000 OA
ATOM      4  N   UNL     1       7.930   6.276  19.214  0.00  0.00    +0.000 N 
ATOM      5  H   UNL     1       8.822   8.519  19.628  0.00  0.00    +0.000 HD
ATOM      6  H   UNL     1       8.528   6.299  20.041  0.00  0.00    +0.000 HD
ENDROOT
BRANCH   4   7
ATOM      7  N   UNL     1       7.431   4.990  18.869  0.00  0.00    +0.000 N 
ATOM      8  C   UNL     1       6.064   4.826  18.928  0.00  0.00    +0.000 C 
ATOM      9  O   UNL     1       5.358   5.756  19.336  0.00  0.00    +0.000 OA
ATOM     10  N   UNL     1       5.633   3.556  18.589  0.00  0.00    +0.000 N 
ATOM     11  H   UNL     1       8.001   4.483  18.194  0.00  0.00    +0.000 HD
ATOM     12  H   UNL     1       6.351   2.841  18.556  0.00  0.00    +0.000 HD
BRANCH  10  13
ATOM     13  C   UNL     1       4.288   3.111  18.629  0.00  0.00    +0.000 A 
ATOM     14  C   UNL     1       3.500   2.989  17.479  0.00  0.00    +0.000 A 
ATOM     15  C   UNL     1       2.150   2.640  17.558  0.00  0.00    +0.000 A 
ATOM     16  C   UNL     1       1.579   2.396  18.798  0.00  0.00    +0.000 A 
ATOM     17  C   UNL     1       2.349   2.462  19.953  0.00  0.00    +0.000 A 
ATOM     18  C   UNL     1       3.709   2.803  19.869  0.00  0.00    +0.000 A 
BRANCH  16  19
ATOM     19  O   UNL     1       0.257   2.088  18.920  0.00  0.00    +0.000 OA
ATOM     20  H   UNL     1      -0.265   2.864  18.663  0.00  0.00    +0.000 HD
ENDBRANCH  16  19
ENDBRANCH  10  13
ENDBRANCH   4   7
BRANCH   1  21
ATOM     21  C   UNL     1       8.620   9.595  17.804  0.00  0.00    +0.000 C 
BRANCH  21  22
ATOM     22  C   UNL     1       9.338  10.774  18.463  0.00  0.00    +0.000 C 
BRANCH  22  23
ATOM     23  C   UNL     1       9.374  10.713  19.998  0.00  0.00    +0.000 C 
BRANCH  23  24
ATOM     24  C   UNL     1       9.974  11.971  20.657  0.00  0.00    +0.000 C 
ATOM     25  C   UNL     1      11.479  12.035  20.393  0.00  0.00    +0.000 C 
BRANCH  24  26
ATOM     26  N   UNL     1       9.649  11.975  22.094  0.00  0.00    +0.000 N 
ATOM     27  H   UNL     1      10.319  11.536  22.729  0.00  0.00    +0.000 HD
BRANCH  26  30
ATOM     28  C   UNL     1       8.597  15.441  22.997  0.00  0.00    +0.000 A 
ATOM     29  C   UNL     1       9.238  14.368  22.384  0.00  0.00    +0.000 A 
ATOM     30  C   UNL     1       8.954  13.035  22.720  0.00  0.00    +0.000 A 
ATOM     31  C   UNL     1       7.912  12.769  23.644  0.00  0.00    +0.000 A 
ATOM     32  N   UNL     1       7.564  11.498  23.961  0.00  0.00    +0.000 NA
ATOM     33  C   UNL     1       6.553  11.306  24.844  0.00  0.00    +0.000 A 
ATOM     34  C   UNL     1       5.850  12.321  25.456  0.00  0.00    +0.000 A 
ATOM     35  C   UNL     1       6.207  13.626  25.156  0.00  0.00    +0.000 A 
ATOM     36  C   UNL     1       7.243  13.869  24.243  0.00  0.00    +0.000 A 
ATOM     37  C   UNL     1       7.602  15.188  23.932  0.00  0.00    +0.000 A 
BRANCH  28  39
ATOM     38  C   UNL     1      10.229  17.071  22.462  0.00  0.00    +0.000 C 
ATOM     39  O   UNL     1       8.867  16.761  22.756  0.00  0.00    +0.000 OA
ENDBRANCH  28  39
ENDBRANCH  26  30
ENDBRANCH  24  26
ENDBRANCH  23  24
ENDBRANCH  22  23
ENDBRANCH  21  22
ENDBRANCH   1  21
TORSDOF 10
ENDMDL
MODEL 3
REMARK VINA RESULT:      -7.8      6.471     10.642
REMARK  Name = 
REMARK  12 active torsions:
REMARK  status: ('A' for Active; 'I' for Inactive)
REMARK    1  A    between atoms: C_1  and  O_2
REMARK    2  A    between atoms: O_2  and  C_3
REMARK    3  A    between atoms: C_5  and  N_6
REMARK    4  A    between atoms: N_6  and  C_7
REMARK    5  A    between atoms: C_7  and  C_8
REMARK    6  A    between atoms: C_7  and  C_9
REMARK    7  A    between atoms: C_9  and  C_10
REMARK    8  A    between atoms: C_10  and  C_11
REMARK    9  A    between atoms: C_11  and  N_12
REMARK   10  A    between atoms: N_15  and  N_16
REMARK   11  A    between atoms: N_19  and  C_20
REMARK   12  A    between atoms: C_23  and  O_24
REMARK                            x       y       z     vdW  Elec       q    Type
REMARK                         _______ _______ _______ _____ _____    ______ ____
ROOT
ATOM      1  N   UNL     1       2.788   4.951  20.986  0.00  0.00    +0.000 N 
ATOM      2  C   UNL     1       1.905   5.895  20.527  0.00  0.00    +0.000 C 
ATOM      3  O   UNL     1       0.688   5.732  20.454  0.00  0.00    +0.000 OA
ATOM      4  N   UNL     1       2.501   7.060  20.108  0.00  0.00    +0.000 N 
ATOM      5  H   UNL     1       3.778   5.107  20.854  0.00  0.00    +0.000 HD
ATOM      6  H   UNL     1       3.463   7.305  20.349  0.00  0.00    +0.000 HD
ENDROOT
BRANCH   4   7
ATOM      7  N   UNL     1       1.678   8.156  19.734  0.00  0.00    +0.000 N 
ATOM      8  C   UNL     1       1.326   9.031  20.740  0.00  0.00    +0.000 C 
ATOM      9  O   UNL     1       1.674   8.792  21.902  0.00  0.00    +0.000 OA
ATOM     10  N   UNL     1       0.520  10.075  20.322  0.00  0.00    +0.000 N 
ATOM     11  H   UNL     1       1.802   8.470  18.773  0.00  0.00    +0.000 HD
ATOM     12  H   UNL     1       0.099   9.968  19.407  0.00  0.00    +0.000 HD
BRANCH  10  13
ATOM     13  C   UNL     1      -0.029  11.072  21.167  0.00  0.00    +0.000 A 
ATOM     14  C   UNL     1       0.360  12.415  21.099  0.00  0.00    +0.000 A 
ATOM     15  C   UNL     1      -0.128  13.358  22.007  0.00  0.00    +0.000 A 
ATOM     16  C   UNL     1      -1.024  12.962  22.988  0.00  0.00    +0.000 A 
ATOM     17  C   UNL     1      -1.464  11.646  23.050  0.00  0.00    +0.000 A 
ATOM     18  C   UNL     1      -0.981  10.702  22.129  0.00  0.00    +0.000 A 
BRANCH  16  19
ATOM     19  O   UNL     1      -1.494  13.844  23.914  0.00  0.00    +0.000 OA
ATOM     20  H   UNL     1      -2.443  13.973  23.764  0.00  0.00    +0.000 HD
ENDBRANCH  16  19
ENDBRANCH  10  13
ENDBRANCH   4   7
BRANCH   1  21
ATOM     21  C   UNL     1       2.351   3.624  21.395  0.00  0.00    +0.000 C 
BRANCH  21  22
ATOM     22  C   UNL     1       2.550   2.570  20.304  0.00  0.00    +0.000 C 
BRANCH  22  23
ATOM     23  C   UNL     1       1.784   2.855  19.003  0.00  0.00    +0.000 C 
BRANCH  23  24
ATOM     24  C   UNL     1       2.618   2.626  17.726  0.00  0.00    +0.000 C 
ATOM     25  C   UNL     1       3.748   1.635  18.009  0.00  0.00    +0.000 C 
BRANCH  24  26
ATOM     26  N   UNL     1       3.110   3.919  17.222  0.00  0.00    +0.000 N 
ATOM     27  H   UNL     1       2.752   4.766  17.669  0.00  0.00    +0.000 HD
BRANCH  26  30
ATOM     28  C   UNL     1       6.020   3.967  14.884  0.00  0.00    +0.000 A 
ATOM     29  C   UNL     1       4.732   3.828  15.394  0.00  0.00    +0.000 A 
ATOM     30  C   UNL     1       4.425   4.102  16.736  0.00  0.00    +0.000 A 
ATOM     31  C   UNL     1       5.438   4.630  17.576  0.00  0.00    +0.000 A 
ATOM     32  N   UNL     1       5.178   4.962  18.864  0.00  0.00    +0.000 NA
ATOM     33  C   UNL     1       6.185   5.473  19.616  0.00  0.00    +0.000 A 
ATOM     34  C   UNL     1       7.470   5.674  19.162  0.00  0.00    +0.000 A 
ATOM     35  C   UNL     1       7.756   5.323  17.853  0.00  0.00    +0.000 A 
ATOM     36  C   UNL     1       6.742   4.798  17.039  0.00  0.00    +0.000 A 
ATOM     37  C   UNL     1       7.026   4.448  15.711  0.00  0.00    +0.000 A 
BRANCH  28  39
ATOM     38  C   UNL     1       5.331   3.498  12.667  0.00  0.00    +0.000 C 
ATOM     39  O   UNL     1       6.396   3.663  13.603  0.00  0.00    +0.000 OA
ENDBRANCH  28  39
ENDBRANCH  26  30
ENDBRANCH  24  26
ENDBRANCH  23  24
ENDBRANCH  22  23
ENDBRANCH  21  22
ENDBRANCH   1  21
TORSDOF 10
ENDMDL
MODEL 4
REMARK VINA RESULT:      -7.8      1.938      2.916
REMARK  Name = 
REMARK  12 active torsions:
REMARK  status: ('A' for Active; 'I' for Inactive)
REMARK    1  A    between atoms: C_1  and  O_2
REMARK    2  A    between atoms: O_2  and  C_3
REMARK    3  A    between atoms: C_5  and  N_6
REMARK    4  A    between atoms: N_6  and  C_7
REMARK    5  A    between atoms: C_7  and  C_8
REMARK    6  A    between atoms: C_7  and  C_9
REMARK    7  A    between atoms: C_9  and  C_10
REMARK    8  A    between atoms: C_10  and  C_11
REMARK    9  A    between atoms: C_11  and  N_12
REMARK   10  A    between atoms: N_15  and  N_16
REMARK   11  A    between atoms: N_19  and  C_20
REMARK   12  A    between atoms: C_23  and  O_24
REMARK                            x       y       z     vdW  Elec       q    Type
REMARK                         _______ _______ _______ _____ _____    ______ ____
ROOT
ATOM      1  N   UNL     1       8.132   9.108  17.976  0.00  0.00    +0.000 N 
ATOM      2  C   UNL     1       7.871   7.765  17.888  0.00  0.00    +0.000 C 
ATOM      3  O   UNL     1       8.273   6.924  18.691  0.00  0.00    +0.000 OA
ATOM      4  N   UNL     1       7.135   7.411  16.783  0.00  0.00    +0.000 N 
ATOM      5  H   UNL     1       7.907   9.700  17.187  0.00  0.00    +0.000 HD
ATOM      6  H   UNL     1       6.616   8.090  16.225  0.00  0.00    +0.000 HD
ENDROOT
BRANCH   4   7
ATOM      7  N   UNL     1       6.695   6.066  16.654  0.00  0.00    +0.000 N 
ATOM      8  C   UNL     1       5.419   5.792  17.100  0.00  0.00    +0.000 C 
ATOM      9  O   UNL     1       4.760   6.688  17.640  0.00  0.00    +0.000 OA
ATOM     10  N   UNL     1       5.044   4.469  16.957  0.00  0.00    +0.000 N 
ATOM     11  H   UNL     1       7.108   5.558  15.874  0.00  0.00    +0.000 HD
ATOM     12  H   UNL     1       5.794   3.816  16.761  0.00  0.00    +0.000 HD
BRANCH  10  13
ATOM     13  C   UNL     1       3.813   3.917  17.391  0.00  0.00    +0.000 A 
ATOM     14  C   UNL     1       2.637   4.671  17.476  0.00  0.00    +0.000 A 
ATOM     15  C   UNL     1       1.461   4.126  17.997  0.00  0.00    +0.000 A 
ATOM     16  C   UNL     1       1.452   2.808  18.429  0.00  0.00    +0.000 A 
ATOM     17  C   UNL     1       2.590   2.022  18.313  0.00  0.00    +0.000 A 
ATOM     18  C   UNL     1       3.768   2.569  17.778  0.00  0.00    +0.000 A 
BRANCH  16  19
ATOM     19  O   UNL     1       0.335   2.252  18.977  0.00  0.00    +0.000 OA
ATOM     20  H   UNL     1       0.582   1.822  19.810  0.00  0.00    +0.000 HD
ENDBRANCH  16  19
ENDBRANCH  10  13
ENDBRANCH   4   7
BRANCH   1  21
ATOM     21  C   UNL     1       8.967   9.662  19.032  0.00  0.00    +0.000 C 
BRANCH  21  22
ATOM     22  C   UNL     1       9.625  10.985  18.639  0.00  0.00    +0.000 C 
BRANCH  22  23
ATOM     23  C   UNL     1      10.502  11.606  19.737  0.00  0.00    +0.000 C 
BRANCH  23  24
ATOM     24  C   UNL     1       9.993  12.971  20.244  0.00  0.00    +0.000 C 
ATOM     25  C   UNL     1       9.591  12.866  21.716  0.00  0.00    +0.000 C 
BRANCH  24  26
ATOM     26  N   UNL     1       8.889  13.433  19.386  0.00  0.00    +0.000 N 
ATOM     27  H   UNL     1       8.011  12.912  19.428  0.00  0.00    +0.000 HD
BRANCH  26  30
ATOM     28  C   UNL     1       9.392  16.836  17.937  0.00  0.00    +0.000 A 
ATOM     29  C   UNL     1       9.552  15.486  18.236  0.00  0.00    +0.000 A 
ATOM     30  C   UNL     1       8.673  14.797  19.084  0.00  0.00    +0.000 A 
ATOM     31  C   UNL     1       7.527  15.473  19.576  0.00  0.00    +0.000 A 
ATOM     32  N   UNL     1       6.618  14.836  20.355  0.00  0.00    +0.000 NA
ATOM     33  C   UNL     1       5.537  15.530  20.787  0.00  0.00    +0.000 A 
ATOM     34  C   UNL     1       5.296  16.855  20.495  0.00  0.00    +0.000 A 
ATOM     35  C   UNL     1       6.224  17.525  19.715  0.00  0.00    +0.000 A 
ATOM     36  C   UNL     1       7.354  16.841  19.242  0.00  0.00    +0.000 A 
ATOM     37  C   UNL     1       8.292  17.515  18.446  0.00  0.00    +0.000 A 
BRANCH  28  39
ATOM     38  C   UNL     1      11.634  17.413  17.441  0.00  0.00    +0.000 C 
ATOM     39  O   UNL     1      10.244  17.578  17.164  0.00  0.00    +0.000 OA
ENDBRANCH  28  39
ENDBRANCH  26  30
ENDBRANCH  24  26
ENDBRANCH  23  24
ENDBRANCH  22  23
ENDBRANCH  21  22
ENDBRANCH   1  21
TORSDOF 10
ENDMDL
MODEL 5
REMARK VINA RESULT:      -7.7      2.568      3.051
REMARK  Name = 
REMARK  12 active torsions:
REMARK  status: ('A' for Active; 'I' for Inactive)
REMARK    1  A    between atoms: C_1  and  O_2
REMARK    2  A    between atoms: O_2  and  C_3
REMARK    3  A    between atoms: C_5  and  N_6
REMARK    4  A    between atoms: N_6  and  C_7
REMARK    5  A    between atoms: C_7  and  C_8
REMARK    6  A    between atoms: C_7  and  C_9
REMARK    7  A    between atoms: C_9  and  C_10
REMARK    8  A    between atoms: C_10  and  C_11
REMARK    9  A    between atoms: C_11  and  N_12
REMARK   10  A    between atoms: N_15  and  N_16
REMARK   11  A    between atoms: N_19  and  C_20
REMARK   12  A    between atoms: C_23  and  O_24
REMARK                            x       y       z     vdW  Elec       q    Type
REMARK                         _______ _______ _______ _____ _____    ______ ____
ROOT
ATOM      1  N   UNL     1       8.084   9.021  17.667  0.00  0.00    +0.000 N 
ATOM      2  C   UNL     1       7.814   7.690  17.855  0.00  0.00    +0.000 C 
ATOM      3  O   UNL     1       8.217   7.027  18.809  0.00  0.00    +0.000 OA
ATOM      4  N   UNL     1       7.067   7.125  16.850  0.00  0.00    +0.000 N 
ATOM      5  H   UNL     1       7.856   9.442  16.776  0.00  0.00    +0.000 HD
ATOM      6  H   UNL     1       6.547   7.681  16.169  0.00  0.00    +0.000 HD
ENDROOT
BRANCH   4   7
ATOM      7  N   UNL     1       6.617   5.785  17.000  0.00  0.00    +0.000 N 
ATOM      8  C   UNL     1       5.345   5.618  17.506  0.00  0.00    +0.000 C 
ATOM      9  O   UNL     1       4.698   6.610  17.862  0.00  0.00    +0.000 OA
ATOM     10  N   UNL     1       4.960   4.296  17.637  0.00  0.00    +0.000 N 
ATOM     11  H   UNL     1       7.016   5.127  16.334  0.00  0.00    +0.000 HD
ATOM     12  H   UNL     1       5.704   3.610  17.568  0.00  0.00    +0.000 HD
BRANCH  10  13
ATOM     13  C   UNL     1       3.731   3.853  18.187  0.00  0.00    +0.000 A 
ATOM     14  C   UNL     1       3.662   3.093  19.361  0.00  0.00    +0.000 A 
ATOM     15  C   UNL     1       2.445   2.590  19.828  0.00  0.00    +0.000 A 
ATOM     16  C   UNL     1       1.280   2.858  19.125  0.00  0.00    +0.000 A 
ATOM     17  C   UNL     1       1.312   3.649  17.984  0.00  0.00    +0.000 A 
ATOM     18  C   UNL     1       2.535   4.163  17.522  0.00  0.00    +0.000 A 
BRANCH  16  19
ATOM     19  O   UNL     1       0.079   2.355  19.529  0.00  0.00    +0.000 OA
ATOM     20  H   UNL     1      -0.250   1.754  18.843  0.00  0.00    +0.000 HD
ENDBRANCH  16  19
ENDBRANCH  10  13
ENDBRANCH   4   7
BRANCH   1  21
ATOM     21  C   UNL     1       8.931   9.771  18.583  0.00  0.00    +0.000 C 
BRANCH  21  22
ATOM     22  C   UNL     1       9.249  11.181  18.080  0.00  0.00    +0.000 C 
BRANCH  22  23
ATOM     23  C   UNL     1      10.746  11.452  17.865  0.00  0.00    +0.000 C 
BRANCH  23  24
ATOM     24  C   UNL     1      11.321  12.545  18.787  0.00  0.00    +0.000 C 
ATOM     25  C   UNL     1      12.299  11.927  19.787  0.00  0.00    +0.000 C 
BRANCH  24  26
ATOM     26  N   UNL     1      10.216  13.265  19.444  0.00  0.00    +0.000 N 
ATOM     27  H   UNL     1       9.551  12.710  19.987  0.00  0.00    +0.000 HD
BRANCH  26  30
ATOM     28  C   UNL     1      10.594  16.045  21.906  0.00  0.00    +0.000 A 
ATOM     29  C   UNL     1      10.484  14.774  21.349  0.00  0.00    +0.000 A 
ATOM     30  C   UNL     1      10.355  14.570  19.966  0.00  0.00    +0.000 A 
ATOM     31  C   UNL     1      10.438  15.690  19.100  0.00  0.00    +0.000 A 
ATOM     32  N   UNL     1      10.375  15.540  17.754  0.00  0.00    +0.000 NA
ATOM     33  C   UNL     1      10.470  16.646  16.975  0.00  0.00    +0.000 A 
ATOM     34  C   UNL     1      10.621  17.928  17.459  0.00  0.00    +0.000 A 
ATOM     35  C   UNL     1      10.669  18.099  18.833  0.00  0.00    +0.000 A 
ATOM     36  C   UNL     1      10.581  16.980  19.674  0.00  0.00    +0.000 A 
ATOM     37  C   UNL     1      10.637  17.149  21.065  0.00  0.00    +0.000 A 
BRANCH  28  39
ATOM     38  C   UNL     1       9.576  15.832  24.033  0.00  0.00    +0.000 C 
ATOM     39  O   UNL     1      10.665  16.314  23.247  0.00  0.00    +0.000 OA
ENDBRANCH  28  39
ENDBRANCH  26  30
ENDBRANCH  24  26
ENDBRANCH  23  24
ENDBRANCH  22  23
ENDBRANCH  21  22
ENDBRANCH   1  21
TORSDOF 10
ENDMDL
MODEL 6
REMARK VINA RESULT:      -7.7      2.945     10.523
REMARK  Name = 
REMARK  12 active torsions:
REMARK  status: ('A' for Active; 'I' for Inactive)
REMARK    1  A    between atoms: C_1  and  O_2
REMARK    2  A    between atoms: O_2  and  C_3
REMARK    3  A    between atoms: C_5  and  N_6
REMARK    4  A    between atoms: N_6  and  C_7
REMARK    5  A    between atoms: C_7  and  C_8
REMARK    6  A    between atoms: C_7  and  C_9
REMARK    7  A    between atoms: C_9  and  C_10
REMARK    8  A    between atoms: C_10  and  C_11
REMARK    9  A    between atoms: C_11  and  N_12
REMARK   10  A    between atoms: N_15  and  N_16
REMARK   11  A    between atoms: N_19  and  C_20
REMARK   12  A    between atoms: C_23  and  O_24
REMARK                            x       y       z     vdW  Elec       q    Type
REMARK                         _______ _______ _______ _____ _____    ______ ____
ROOT
ATOM      1  N   UNL     1       8.158   6.593  18.936  0.00  0.00    +0.000 N 
ATOM      2  C   UNL     1       7.922   7.719  18.189  0.00  0.00    +0.000 C 
ATOM      3  O   UNL     1       7.146   7.771  17.236  0.00  0.00    +0.000 OA
ATOM      4  N   UNL     1       8.663   8.810  18.573  0.00  0.00    +0.000 N 
ATOM      5  H   UNL     1       8.930   6.597  19.589  0.00  0.00    +0.000 HD
ATOM      6  H   UNL     1       9.145   8.861  19.472  0.00  0.00    +0.000 HD
ENDROOT
BRANCH   4   7
ATOM      7  N   UNL     1       8.408  10.064  17.956  0.00  0.00    +0.000 N 
ATOM      8  C   UNL     1       9.275  11.090  18.269  0.00  0.00    +0.000 C 
ATOM      9  O   UNL     1      10.167  10.897  19.104  0.00  0.00    +0.000 OA
ATOM     10  N   UNL     1       8.978  12.289  17.647  0.00  0.00    +0.000 N 
ATOM     11  H   UNL     1       7.962  10.004  17.043  0.00  0.00    +0.000 HD
ATOM     12  H   UNL     1       8.059  12.350  17.223  0.00  0.00    +0.000 HD
BRANCH  10  13
ATOM     13  C   UNL     1       9.673  13.508  17.847  0.00  0.00    +0.000 A 
ATOM     14  C   UNL     1      10.876  13.805  17.197  0.00  0.00    +0.000 A 
ATOM     15  C   UNL     1      11.588  14.972  17.486  0.00  0.00    +0.000 A 
ATOM     16  C   UNL     1      11.089  15.862  18.424  0.00  0.00    +0.000 A 
ATOM     17  C   UNL     1       9.873  15.617  19.050  0.00  0.00    +0.000 A 
ATOM     18  C   UNL     1       9.154  14.448  18.751  0.00  0.00    +0.000 A 
BRANCH  16  19
ATOM     19  O   UNL     1      11.772  16.993  18.759  0.00  0.00    +0.000 OA
ATOM     20  H   UNL     1      11.829  17.043  19.726  0.00  0.00    +0.000 HD
ENDBRANCH  16  19
ENDBRANCH  10  13
ENDBRANCH   4   7
BRANCH   1  21
ATOM     21  C   UNL     1       7.528   5.318  18.627  0.00  0.00    +0.000 C 
BRANCH  21  22
ATOM     22  C   UNL     1       7.479   5.027  17.127  0.00  0.00    +0.000 C 
BRANCH  22  23
ATOM     23  C   UNL     1       6.411   4.000  16.717  0.00  0.00    +0.000 C 
BRANCH  23  24
ATOM     24  C   UNL     1       5.184   4.621  16.020  0.00  0.00    +0.000 C 
ATOM     25  C   UNL     1       5.506   4.912  14.553  0.00  0.00    +0.000 C 
BRANCH  24  26
ATOM     26  N   UNL     1       4.757   5.823  16.756  0.00  0.00    +0.000 N 
ATOM     27  H   UNL     1       4.600   6.676  16.215  0.00  0.00    +0.000 HD
BRANCH  26  30
ATOM     28  C   UNL     1       3.084   4.524  19.830  0.00  0.00    +0.000 A 
ATOM     29  C   UNL     1       3.913   4.630  18.716  0.00  0.00    +0.000 A 
ATOM     30  C   UNL     1       3.921   5.768  17.895  0.00  0.00    +0.000 A 
ATOM     31  C   UNL     1       3.132   6.886  18.267  0.00  0.00    +0.000 A 
ATOM     32  N   UNL     1       3.147   8.028  17.537  0.00  0.00    +0.000 NA
ATOM     33  C   UNL     1       2.379   9.068  17.947  0.00  0.00    +0.000 A 
ATOM     34  C   UNL     1       1.568   9.044  19.061  0.00  0.00    +0.000 A 
ATOM     35  C   UNL     1       1.527   7.877  19.807  0.00  0.00    +0.000 A 
ATOM     36  C   UNL     1       2.312   6.781  19.421  0.00  0.00    +0.000 A 
ATOM     37  C   UNL     1       2.279   5.601  20.178  0.00  0.00    +0.000 A 
BRANCH  28  39
ATOM     38  C   UNL     1       3.893   2.359  20.345  0.00  0.00    +0.000 C 
ATOM     39  O   UNL     1       2.987   3.422  20.636  0.00  0.00    +0.000 OA
ENDBRANCH  28  39
ENDBRANCH  26  30
ENDBRANCH  24  26
ENDBRANCH  23  24
ENDBRANCH  22  23
ENDBRANCH  21  22
ENDBRANCH   1  21
TORSDOF 10
ENDMDL
MODEL 7
REMARK VINA RESULT:      -7.7      2.031      2.619
REMARK  Name = 
REMARK  12 active torsions:
REMARK  status: ('A' for Active; 'I' for Inactive)
REMARK    1  A    between atoms: C_1  and  O_2
REMARK    2  A    between atoms: O_2  and  C_3
REMARK    3  A    between atoms: C_5  and  N_6
REMARK    4  A    between atoms: N_6  and  C_7
REMARK    5  A    between atoms: C_7  and  C_8
REMARK    6  A    between atoms: C_7  and  C_9
REMARK    7  A    between atoms: C_9  and  C_10
REMARK    8  A    between atoms: C_10  and  C_11
REMARK    9  A    between atoms: C_11  and  N_12
REMARK   10  A    between atoms: N_15  and  N_16
REMARK   11  A    between atoms: N_19  and  C_20
REMARK   12  A    between atoms: C_23  and  O_24
REMARK                            x       y       z     vdW  Elec       q    Type
REMARK                         _______ _______ _______ _____ _____    ______ ____
ROOT
ATOM      1  N   UNL     1       8.119   8.879  17.719  0.00  0.00    +0.000 N 
ATOM      2  C   UNL     1       7.829   7.547  17.862  0.00  0.00    +0.000 C 
ATOM      3  O   UNL     1       8.183   6.857  18.817  0.00  0.00    +0.000 OA
ATOM      4  N   UNL     1       7.124   7.012  16.811  0.00  0.00    +0.000 N 
ATOM      5  H   UNL     1       7.935   9.323  16.829  0.00  0.00    +0.000 HD
ATOM      6  H   UNL     1       6.640   7.590  16.121  0.00  0.00    +0.000 HD
ENDROOT
BRANCH   4   7
ATOM      7  N   UNL     1       6.656   5.674  16.908  0.00  0.00    +0.000 N 
ATOM      8  C   UNL     1       5.379   5.504  17.397  0.00  0.00    +0.000 C 
ATOM      9  O   UNL     1       4.741   6.490  17.785  0.00  0.00    +0.000 OA
ATOM     10  N   UNL     1       4.976   4.183  17.476  0.00  0.00    +0.000 N 
ATOM     11  H   UNL     1       7.054   5.036  16.221  0.00  0.00    +0.000 HD
ATOM     12  H   UNL     1       5.713   3.491  17.389  0.00  0.00    +0.000 HD
BRANCH  10  13
ATOM     13  C   UNL     1       3.738   3.735  18.001  0.00  0.00    +0.000 A 
ATOM     14  C   UNL     1       3.644   2.680  18.915  0.00  0.00    +0.000 A 
ATOM     15  C   UNL     1       2.404   2.198  19.341  0.00  0.00    +0.000 A 
ATOM     16  C   UNL     1       1.242   2.783  18.861  0.00  0.00    +0.000 A 
ATOM     17  C   UNL     1       1.305   3.863  17.990  0.00  0.00    +0.000 A 
ATOM     18  C   UNL     1       2.553   4.353  17.571  0.00  0.00    +0.000 A 
BRANCH  16  19
ATOM     19  O   UNL     1       0.014   2.318  19.226  0.00  0.00    +0.000 OA
ATOM     20  H   UNL     1      -0.619   2.534  18.523  0.00  0.00    +0.000 HD
ENDBRANCH  16  19
ENDBRANCH  10  13
ENDBRANCH   4   7
BRANCH   1  21
ATOM     21  C   UNL     1       8.930   9.599  18.690  0.00  0.00    +0.000 C 
BRANCH  21  22
ATOM     22  C   UNL     1       9.203  11.047  18.280  0.00  0.00    +0.000 C 
BRANCH  22  23
ATOM     23  C   UNL     1      10.644  11.515  18.538  0.00  0.00    +0.000 C 
BRANCH  23  24
ATOM     24  C   UNL     1      10.883  13.003  18.216  0.00  0.00    +0.000 C 
ATOM     25  C   UNL     1      12.242  13.181  17.537  0.00  0.00    +0.000 C 
BRANCH  24  26
ATOM     26  N   UNL     1      10.756  13.800  19.448  0.00  0.00    +0.000 N 
ATOM     27  H   UNL     1      11.609  14.215  19.830  0.00  0.00    +0.000 HD
BRANCH  26  30
ATOM     28  C   UNL     1       8.256  16.566  19.277  0.00  0.00    +0.000 A 
ATOM     29  C   UNL     1       9.350  15.750  19.004  0.00  0.00    +0.000 A 
ATOM     30  C   UNL     1       9.618  14.585  19.739  0.00  0.00    +0.000 A 
ATOM     31  C   UNL     1       8.690  14.173  20.730  0.00  0.00    +0.000 A 
ATOM     32  N   UNL     1       8.876  13.027  21.430  0.00  0.00    +0.000 NA
ATOM     33  C   UNL     1       7.950  12.679  22.358  0.00  0.00    +0.000 A 
ATOM     34  C   UNL     1       6.824  13.419  22.649  0.00  0.00    +0.000 A 
ATOM     35  C   UNL     1       6.631  14.602  21.955  0.00  0.00    +0.000 A 
ATOM     36  C   UNL     1       7.561  14.995  20.982  0.00  0.00    +0.000 A 
ATOM     37  C   UNL     1       7.363  16.189  20.273  0.00  0.00    +0.000 A 
BRANCH  28  39
ATOM     38  C   UNL     1       9.099  18.491  18.187  0.00  0.00    +0.000 C 
ATOM     39  O   UNL     1       7.971  17.742  18.636  0.00  0.00    +0.000 OA
ENDBRANCH  28  39
ENDBRANCH  26  30
ENDBRANCH  24  26
ENDBRANCH  23  24
ENDBRANCH  22  23
ENDBRANCH  21  22
ENDBRANCH   1  21
TORSDOF 10
ENDMDL
MODEL 8
REMARK VINA RESULT:      -7.7      6.633     11.121
REMARK  Name = 
REMARK  12 active torsions:
REMARK  status: ('A' for Active; 'I' for Inactive)
REMARK    1  A    between atoms: C_1  and  O_2
REMARK    2  A    between atoms: O_2  and  C_3
REMARK    3  A    between atoms: C_5  and  N_6
REMARK    4  A    between atoms: N_6  and  C_7
REMARK    5  A    between atoms: C_7  and  C_8
REMARK    6  A    between atoms: C_7  and  C_9
REMARK    7  A    between atoms: C_9  and  C_10
REMARK    8  A    between atoms: C_10  and  C_11
REMARK    9  A    between atoms: C_11  and  N_12
REMARK   10  A    between atoms: N_15  and  N_16
REMARK   11  A    between atoms: N_19  and  C_20
REMARK   12  A    between atoms: C_23  and  O_24
REMARK                            x       y       z     vdW  Elec       q    Type
REMARK                         _______ _______ _______ _____ _____    ______ ____
ROOT
ATOM      1  N   UNL     1       1.785   8.453  17.998  0.00  0.00    +0.000 N 
ATOM      2  C   UNL     1       1.022   9.398  18.635  0.00  0.00    +0.000 C 
ATOM      3  O   UNL     1       0.942   9.520  19.856  0.00  0.00    +0.000 OA
ATOM      4  N   UNL     1       0.304  10.202  17.783  0.00  0.00    +0.000 N 
ATOM      5  H   UNL     1       1.660   8.318  17.004  0.00  0.00    +0.000 HD
ATOM      6  H   UNL     1       0.507  10.269  16.785  0.00  0.00    +0.000 HD
ENDROOT
BRANCH   4   7
ATOM      7  N   UNL     1      -0.420  11.299  18.323  0.00  0.00    +0.000 N 
ATOM      8  C   UNL     1      -1.777  11.117  18.489  0.00  0.00    +0.000 C 
ATOM      9  O   UNL     1      -2.299  10.064  18.106  0.00  0.00    +0.000 OA
ATOM     10  N   UNL     1      -2.434  12.217  19.012  0.00  0.00    +0.000 N 
ATOM     11  H   UNL     1       0.118  11.895  18.950  0.00  0.00    +0.000 HD
ATOM     12  H   UNL     1      -1.913  13.087  19.004  0.00  0.00    +0.000 HD
BRANCH  10  13
ATOM     13  C   UNL     1      -3.832  12.311  19.220  0.00  0.00    +0.000 A 
ATOM     14  C   UNL     1      -4.766  11.912  18.257  0.00  0.00    +0.000 A 
ATOM     15  C   UNL     1      -6.136  12.104  18.452  0.00  0.00    +0.000 A 
ATOM     16  C   UNL     1      -6.584  12.689  19.626  0.00  0.00    +0.000 A 
ATOM     17  C   UNL     1      -5.684  13.050  20.620  0.00  0.00    +0.000 A 
ATOM     18  C   UNL     1      -4.308  12.846  20.427  0.00  0.00    +0.000 A 
BRANCH  16  19
ATOM     19  O   UNL     1      -7.909  12.926  19.838  0.00  0.00    +0.000 OA
ATOM     20  H   UNL     1      -8.148  13.756  19.396  0.00  0.00    +0.000 HD
ENDBRANCH  16  19
ENDBRANCH  10  13
ENDBRANCH   4   7
BRANCH   1  21
ATOM     21  C   UNL     1       2.550   7.457  18.735  0.00  0.00    +0.000 C 
BRANCH  21  22
ATOM     22  C   UNL     1       2.182   6.023  18.353  0.00  0.00    +0.000 C 
BRANCH  22  23
ATOM     23  C   UNL     1       2.665   4.960  19.353  0.00  0.00    +0.000 C 
BRANCH  23  24
ATOM     24  C   UNL     1       2.618   3.521  18.803  0.00  0.00    +0.000 C 
ATOM     25  C   UNL     1       1.915   2.600  19.802  0.00  0.00    +0.000 C 
BRANCH  24  26
ATOM     26  N   UNL     1       3.984   3.072  18.482  0.00  0.00    +0.000 N 
ATOM     27  H   UNL     1       4.163   2.066  18.494  0.00  0.00    +0.000 HD
BRANCH  26  30
ATOM     28  C   UNL     1       5.376   4.234  15.219  0.00  0.00    +0.000 A 
ATOM     29  C   UNL     1       4.569   3.618  16.172  0.00  0.00    +0.000 A 
ATOM     30  C   UNL     1       4.810   3.738  17.549  0.00  0.00    +0.000 A 
ATOM     31  C   UNL     1       5.851   4.595  17.989  0.00  0.00    +0.000 A 
ATOM     32  N   UNL     1       6.090   4.787  19.309  0.00  0.00    +0.000 NA
ATOM     33  C   UNL     1       7.092   5.626  19.670  0.00  0.00    +0.000 A 
ATOM     34  C   UNL     1       7.901   6.299  18.780  0.00  0.00    +0.000 A 
ATOM     35  C   UNL     1       7.683   6.098  17.428  0.00  0.00    +0.000 A 
ATOM     36  C   UNL     1       6.651   5.244  17.011  0.00  0.00    +0.000 A 
ATOM     37  C   UNL     1       6.422   5.044  15.643  0.00  0.00    +0.000 A 
BRANCH  28  39
ATOM     38  C   UNL     1       6.407   3.750  13.144  0.00  0.00    +0.000 C 
ATOM     39  O   UNL     1       5.229   4.110  13.864  0.00  0.00    +0.000 OA
ENDBRANCH  28  39
ENDBRANCH  26  30
ENDBRANCH  24  26
ENDBRANCH  23  24
ENDBRANCH  22  23
ENDBRANCH  21  22
ENDBRANCH   1  21
TORSDOF 10
ENDMDL
MODEL 9
REMARK VINA RESULT:      -7.6      6.704     11.323
REMARK  Name = 
REMARK  12 active torsions:
REMARK  status: ('A' for Active; 'I' for Inactive)
REMARK    1  A    between atoms: C_1  and  O_2
REMARK    2  A    between atoms: O_2  and  C_3
REMARK    3  A    between atoms: C_5  and  N_6
REMARK    4  A    between atoms: N_6  and  C_7
REMARK    5  A    between atoms: C_7  and  C_8
REMARK    6  A    between atoms: C_7  and  C_9
REMARK    7  A    between atoms: C_9  and  C_10
REMARK    8  A    between atoms: C_10  and  C_11
REMARK    9  A    between atoms: C_11  and  N_12
REMARK   10  A    between atoms: N_15  and  N_16
REMARK   11  A    between atoms: N_19  and  C_20
REMARK   12  A    between atoms: C_23  and  O_24
REMARK                            x       y       z     vdW  Elec       q    Type
REMARK                         _______ _______ _______ _____ _____    ______ ____
ROOT
ATOM      1  N   UNL     1       1.883   7.870  21.202  0.00  0.00    +0.000 N 
ATOM      2  C   UNL     1       0.688   8.445  21.552  0.00  0.00    +0.000 C 
ATOM      3  O   UNL     1      -0.342   8.368  20.884  0.00  0.00    +0.000 OA
ATOM      4  N   UNL     1       0.736   9.164  22.721  0.00  0.00    +0.000 N 
ATOM      5  H   UNL     1       2.714   8.124  21.720  0.00  0.00    +0.000 HD
ATOM      6  H   UNL     1       1.498   9.073  23.395  0.00  0.00    +0.000 HD
ENDROOT
BRANCH   4   7
ATOM      7  N   UNL     1      -0.472   9.696  23.249  0.00  0.00    +0.000 N 
ATOM      8  C   UNL     1      -0.821  10.962  22.829  0.00  0.00    +0.000 C 
ATOM      9  O   UNL     1      -0.054  11.588  22.088  0.00  0.00    +0.000 OA
ATOM     10  N   UNL     1      -2.000  11.433  23.377  0.00  0.00    +0.000 N 
ATOM     11  H   UNL     1      -1.177   8.998  23.480  0.00  0.00    +0.000 HD
ATOM     12  H   UNL     1      -2.353  10.916  24.175  0.00  0.00    +0.000 HD
BRANCH  10  13
ATOM     13  C   UNL     1      -2.546  12.723  23.158  0.00  0.00    +0.000 A 
ATOM     14  C   UNL     1      -2.073  13.862  23.820  0.00  0.00    +0.000 A 
ATOM     15  C   UNL     1      -2.692  15.104  23.656  0.00  0.00    +0.000 A 
ATOM     16  C   UNL     1      -3.787  15.216  22.813  0.00  0.00    +0.000 A 
ATOM     17  C   UNL     1      -4.248  14.112  22.107  0.00  0.00    +0.000 A 
ATOM     18  C   UNL     1      -3.618  12.867  22.265  0.00  0.00    +0.000 A 
BRANCH  16  19
ATOM     19  O   UNL     1      -4.440  16.402  22.655  0.00  0.00    +0.000 OA
ATOM     20  H   UNL     1      -5.266  16.369  23.161  0.00  0.00    +0.000 HD
ENDBRANCH  16  19
ENDBRANCH  10  13
ENDBRANCH   4   7
BRANCH   1  21
ATOM     21  C   UNL     1       2.050   7.139  19.954  0.00  0.00    +0.000 C 
BRANCH  21  22
ATOM     22  C   UNL     1       2.637   5.742  20.157  0.00  0.00    +0.000 C 
BRANCH  22  23
ATOM     23  C   UNL     1       2.785   4.925  18.864  0.00  0.00    +0.000 C 
BRANCH  23  24
ATOM     24  C   UNL     1       3.036   3.423  19.101  0.00  0.00    +0.000 C 
ATOM     25  C   UNL     1       2.911   3.099  20.591  0.00  0.00    +0.000 C 
BRANCH  24  26
ATOM     26  N   UNL     1       4.349   3.050  18.548  0.00  0.00    +0.000 N 
ATOM     27  H   UNL     1       4.529   2.057  18.391  0.00  0.00    +0.000 HD
BRANCH  26  30
ATOM     28  C   UNL     1       5.398   4.595  15.316  0.00  0.00    +0.000 A 
ATOM     29  C   UNL     1       4.715   3.836  16.262  0.00  0.00    +0.000 A 
ATOM     30  C   UNL     1       5.049   3.860  17.625  0.00  0.00    +0.000 A 
ATOM     31  C   UNL     1       6.052   4.760  18.068  0.00  0.00    +0.000 A 
ATOM     32  N   UNL     1       6.373   4.859  19.381  0.00  0.00    +0.000 NA
ATOM     33  C   UNL     1       7.333   5.745  19.747  0.00  0.00    +0.000 A 
ATOM     34  C   UNL     1       8.019   6.556  18.868  0.00  0.00    +0.000 A 
ATOM     35  C   UNL     1       7.715   6.452  17.521  0.00  0.00    +0.000 A 
ATOM     36  C   UNL     1       6.723   5.553  17.101  0.00  0.00    +0.000 A 
ATOM     37  C   UNL     1       6.408   5.451  15.739  0.00  0.00    +0.000 A 
BRANCH  28  39
ATOM     38  C   UNL     1       5.939   3.646  13.216  0.00  0.00    +0.000 C 
ATOM     39  O   UNL     1       5.160   4.574  13.968  0.00  0.00    +0.000 OA
ENDBRANCH  28  39
ENDBRANCH  26  30
ENDBRANCH  24  26
ENDBRANCH  23  24
ENDBRANCH  22  23
ENDBRANCH  21  22
ENDBRANCH   1  21
TORSDOF 10
ENDMDL
