MODEL 1
REMARK VINA RESULT:      -7.9      0.000      0.000
REMARK  Name = 
REMARK  6 active torsions:
REMARK  status: ('A' for Active; 'I' for Inactive)
REMARK    1  A    between atoms: C_1  and  C_2
REMARK    2  A    between atoms: C_8  and  S_9
REMARK    3  A    between atoms: S_9  and  N_12
REMARK    4  A    between atoms: N_12  and  C_13
REMARK    5  A    between atoms: N_12  and  C_20
REMARK    6  A    between atoms: C_13  and  C_14
REMARK                            x       y       z     vdW  Elec       q    Type
REMARK                         _______ _______ _______ _____ _____    ______ ____
ROOT
ATOM      1  S   UNL     1       4.145   3.318  18.498  0.00  0.00    +0.000 S 
ATOM      2  O   UNL     1       3.586   2.188  17.789  0.00  0.00    +0.000 OA
ATOM      3  O   UNL     1       4.868   3.105  19.730  0.00  0.00    +0.000 OA
ENDROOT
BRANCH   1  11
ATOM      4  C   UNL     1       6.432   5.449  19.279  0.00  0.00    +0.000 C 
ATOM      5  C   UNL     1       6.278   5.041  17.841  0.00  0.00    +0.000 A 
ATOM      6  C   UNL     1       7.230   5.526  16.924  0.00  0.00    +0.000 A 
ATOM      7  C   UNL     1       7.221   5.113  15.593  0.00  0.00    +0.000 A 
ATOM      8  C   UNL     1       6.265   4.202  15.170  0.00  0.00    +0.000 A 
ATOM      9  F   UNL     1       6.285   3.771  13.903  0.00  0.00    +0.000 F 
ATOM     10  C   UNL     1       5.304   3.709  16.045  0.00  0.00    +0.000 A 
ATOM     11  C   UNL     1       5.298   4.131  17.383  0.00  0.00    +0.000 A 
ENDBRANCH   1  11
BRANCH   1  12
ATOM     12  N   UNL     1       2.906   4.477  18.746  0.00  0.00    +0.000 NA
BRANCH  12  13
ATOM     13  C   UNL     1       1.546   3.919  18.934  0.00  0.00    +0.000 C 
ATOM     14  C   UNL     1       1.259   2.656  19.700  0.00  0.00    +0.000 C 
ATOM     15  C   UNL     1       0.900   3.979  20.298  0.00  0.00    +0.000 C 
ENDBRANCH  12  13
BRANCH  12  16
ATOM     16  C   UNL     1       2.936   5.737  17.949  0.00  0.00    +0.000 C 
BRANCH  16  17
ATOM     17  C   UNL     1       2.347   6.988  18.554  0.00  0.00    +0.000 A 
ATOM     18  C   UNL     1       1.994   8.091  17.768  0.00  0.00    +0.000 A 
ATOM     19  C   UNL     1       1.460   9.239  18.352  0.00  0.00    +0.000 A 
ATOM     20  C   UNL     1       1.312   9.264  19.727  0.00  0.00    +0.000 A 
ATOM     21  N   UNL     1       1.656   8.233  20.532  0.00  0.00    +0.000 NA
ATOM     22  C   UNL     1       2.160   7.131  19.931  0.00  0.00    +0.000 A 
ENDBRANCH  16  17
ENDBRANCH  12  16
ENDBRANCH   1  12
TORSDOF 5
ENDMDL
MODEL 2
REMARK VINA RESULT:      -7.7      0.604      1.031
REMARK  Name = 
REMARK  6 active torsions:
REMARK  status: ('A' for Active; 'I' for Inactive)
REMARK    1  A    between atoms: C_1  and  C_2
REMARK    2  A    between atoms: C_8  and  S_9
REMARK    3  A    between atoms: S_9  and  N_12
REMARK    4  A    between atoms: N_12  and  C_13
REMARK    5  A    between atoms: N_12  and  C_20
REMARK    6  A    between atoms: C_13  and  C_14
REMARK                            x       y       z     vdW  Elec       q    Type
REMARK                         _______ _______ _______ _____ _____    ______ ____
ROOT
ATOM      1  S   UNL     1       4.131   3.219  18.503  0.00  0.00    +0.000 S 
ATOM      2  O   UNL     1       3.580   2.087  17.791  0.00  0.00    +0.000 OA
ATOM      3  O   UNL     1       4.886   3.005  19.715  0.00  0.00    +0.000 OA
ENDROOT
BRANCH   1  11
ATOM      4  C   UNL     1       6.326   5.457  19.250  0.00  0.00    +0.000 C 
ATOM      5  C   UNL     1       6.181   5.028  17.817  0.00  0.00    +0.000 A 
ATOM      6  C   UNL     1       7.106   5.547  16.890  0.00  0.00    +0.000 A 
ATOM      7  C   UNL     1       7.109   5.121  15.563  0.00  0.00    +0.000 A 
ATOM      8  C   UNL     1       6.191   4.165  15.154  0.00  0.00    +0.000 A 
ATOM      9  F   UNL     1       6.223   3.723  13.891  0.00  0.00    +0.000 F 
ATOM     10  C   UNL     1       5.258   3.638  16.039  0.00  0.00    +0.000 A 
ATOM     11  C   UNL     1       5.241   4.072  17.373  0.00  0.00    +0.000 A 
ENDBRANCH   1  11
BRANCH   1  12
ATOM     12  N   UNL     1       2.874   4.347  18.795  0.00  0.00    +0.000 NA
BRANCH  12  13
ATOM     13  C   UNL     1       1.554   3.755  19.117  0.00  0.00    +0.000 C 
ATOM     14  C   UNL     1       1.376   2.510  19.943  0.00  0.00    +0.000 C 
ATOM     15  C   UNL     1       1.027   3.839  20.531  0.00  0.00    +0.000 C 
ENDBRANCH  12  13
BRANCH  12  16
ATOM     16  C   UNL     1       2.795   5.567  17.940  0.00  0.00    +0.000 C 
BRANCH  16  17
ATOM     17  C   UNL     1       2.325   6.858  18.564  0.00  0.00    +0.000 A 
ATOM     18  C   UNL     1       2.120   6.978  19.943  0.00  0.00    +0.000 A 
ATOM     19  C   UNL     1       1.677   8.179  20.496  0.00  0.00    +0.000 A 
ATOM     20  C   UNL     1       1.425   9.237  19.641  0.00  0.00    +0.000 A 
ATOM     21  N   UNL     1       1.587   9.166  18.300  0.00  0.00    +0.000 NA
ATOM     22  C   UNL     1       2.030   7.990  17.800  0.00  0.00    +0.000 A 
ENDBRANCH  16  17
ENDBRANCH  12  16
ENDBRANCH   1  12
TORSDOF 5
ENDMDL
MODEL 3
REMARK VINA RESULT:      -7.6      1.495      2.077
REMARK  Name = 
REMARK  6 active torsions:
REMARK  status: ('A' for Active; 'I' for Inactive)
REMARK    1  A    between atoms: C_1  and  C_2
REMARK    2  A    between atoms: C_8  and  S_9
REMARK    3  A    between atoms: S_9  and  N_12
REMARK    4  A    between atoms: N_12  and  C_13
REMARK    5  A    between atoms: N_12  and  C_20
REMARK    6  A    between atoms: C_13  and  C_14
REMARK                            x       y       z     vdW  Elec       q    Type
REMARK                         _______ _______ _______ _____ _____    ______ ____
ROOT
ATOM      1  S   UNL     1       4.278   3.566  18.637  0.00  0.00    +0.000 S 
ATOM      2  O   UNL     1       3.917   2.590  17.632  0.00  0.00    +0.000 OA
ATOM      3  O   UNL     1       4.724   3.124  19.937  0.00  0.00    +0.000 OA
ENDROOT
BRANCH   1  11
ATOM      4  C   UNL     1       4.865   4.193  15.530  0.00  0.00    +0.000 C 
ATOM      5  C   UNL     1       5.773   4.777  16.576  0.00  0.00    +0.000 A 
ATOM      6  C   UNL     1       6.769   5.674  16.140  0.00  0.00    +0.000 A 
ATOM      7  C   UNL     1       7.584   6.340  17.054  0.00  0.00    +0.000 A 
ATOM      8  C   UNL     1       7.404   6.122  18.411  0.00  0.00    +0.000 A 
ATOM      9  F   UNL     1       8.157   6.796  19.289  0.00  0.00    +0.000 F 
ATOM     10  C   UNL     1       6.438   5.238  18.876  0.00  0.00    +0.000 A 
ATOM     11  C   UNL     1       5.623   4.553  17.963  0.00  0.00    +0.000 A 
ENDBRANCH   1  11
BRANCH   1  12
ATOM     12  N   UNL     1       2.985   4.677  18.813  0.00  0.00    +0.000 NA
BRANCH  12  13
ATOM     13  C   UNL     1       1.636   4.069  18.892  0.00  0.00    +0.000 C 
ATOM     14  C   UNL     1       1.361   2.721  19.502  0.00  0.00    +0.000 C 
ATOM     15  C   UNL     1       0.947   3.958  20.233  0.00  0.00    +0.000 C 
ENDBRANCH  12  13
BRANCH  12  16
ATOM     16  C   UNL     1       3.027   5.953  18.042  0.00  0.00    +0.000 C 
BRANCH  16  17
ATOM     17  C   UNL     1       2.348   7.170  18.622  0.00  0.00    +0.000 A 
ATOM     18  C   UNL     1       1.965   8.252  17.821  0.00  0.00    +0.000 A 
ATOM     19  C   UNL     1       1.348   9.369  18.382  0.00  0.00    +0.000 A 
ATOM     20  C   UNL     1       1.145   9.385  19.750  0.00  0.00    +0.000 A 
ATOM     21  N   UNL     1       1.514   8.374  20.570  0.00  0.00    +0.000 NA
ATOM     22  C   UNL     1       2.100   7.301  19.991  0.00  0.00    +0.000 A 
ENDBRANCH  16  17
ENDBRANCH  12  16
ENDBRANCH   1  12
TORSDOF 5
ENDMDL
MODEL 4
REMARK VINA RESULT:      -7.5      1.605      2.319
REMARK  Name = 
REMARK  6 active torsions:
REMARK  status: ('A' for Active; 'I' for Inactive)
REMARK    1  A    between atoms: C_1  and  C_2
REMARK    2  A    between atoms: C_8  and  S_9
REMARK    3  A    between atoms: S_9  and  N_12
REMARK    4  A    between atoms: N_12  and  C_13
REMARK    5  A    between atoms: N_12  and  C_20
REMARK    6  A    between atoms: C_13  and  C_14
REMARK                            x       y       z     vdW  Elec       q    Type
REMARK                         _______ _______ _______ _____ _____    ______ ____
ROOT
ATOM      1  S   UNL     1       4.306   3.479  18.597  0.00  0.00    +0.000 S 
ATOM      2  O   UNL     1       3.972   2.521  17.567  0.00  0.00    +0.000 OA
ATOM      3  O   UNL     1       4.749   3.015  19.891  0.00  0.00    +0.000 OA
ENDROOT
BRANCH   1  11
ATOM      4  C   UNL     1       4.908   4.188  15.512  0.00  0.00    +0.000 C 
ATOM      5  C   UNL     1       5.795   4.766  16.579  0.00  0.00    +0.000 A 
ATOM      6  C   UNL     1       6.776   5.692  16.173  0.00  0.00    +0.000 A 
ATOM      7  C   UNL     1       7.569   6.354  17.109  0.00  0.00    +0.000 A 
ATOM      8  C   UNL     1       7.381   6.102  18.460  0.00  0.00    +0.000 A 
ATOM      9  F   UNL     1       8.112   6.771  19.360  0.00  0.00    +0.000 F 
ATOM     10  C   UNL     1       6.429   5.188  18.896  0.00  0.00    +0.000 A 
ATOM     11  C   UNL     1       5.637   4.508  17.959  0.00  0.00    +0.000 A 
ENDBRANCH   1  11
BRANCH   1  12
ATOM     12  N   UNL     1       2.989   4.560  18.789  0.00  0.00    +0.000 NA
BRANCH  12  13
ATOM     13  C   UNL     1       1.653   3.923  18.861  0.00  0.00    +0.000 C 
ATOM     14  C   UNL     1       1.411   2.551  19.430  0.00  0.00    +0.000 C 
ATOM     15  C   UNL     1       0.980   3.755  20.203  0.00  0.00    +0.000 C 
ENDBRANCH  12  13
BRANCH  12  16
ATOM     16  C   UNL     1       3.004   5.846  18.034  0.00  0.00    +0.000 C 
BRANCH  16  17
ATOM     17  C   UNL     1       2.377   7.063  18.669  0.00  0.00    +0.000 A 
ATOM     18  C   UNL     1       2.115   7.127  20.042  0.00  0.00    +0.000 A 
ATOM     19  C   UNL     1       1.526   8.259  20.603  0.00  0.00    +0.000 A 
ATOM     20  C   UNL     1       1.190   9.305  19.762  0.00  0.00    +0.000 A 
ATOM     21  N   UNL     1       1.403   9.285  18.427  0.00  0.00    +0.000 NA
ATOM     22  C   UNL     1       1.987   8.176  17.918  0.00  0.00    +0.000 A 
ENDBRANCH  16  17
ENDBRANCH  12  16
ENDBRANCH   1  12
TORSDOF 5
ENDMDL
MODEL 5
REMARK VINA RESULT:      -7.4      1.758      2.378
REMARK  Name = 
REMARK  6 active torsions:
REMARK  status: ('A' for Active; 'I' for Inactive)
REMARK    1  A    between atoms: C_1  and  C_2
REMARK    2  A    between atoms: C_8  and  S_9
REMARK    3  A    between atoms: S_9  and  N_12
REMARK    4  A    between atoms: N_12  and  C_13
REMARK    5  A    between atoms: N_12  and  C_20
REMARK    6  A    between atoms: C_13  and  C_14
REMARK                            x       y       z     vdW  Elec       q    Type
REMARK                         _______ _______ _______ _____ _____    ______ ____
ROOT
ATOM      1  S   UNL     1       3.677   3.607  18.012  0.00  0.00    +0.000 S 
ATOM      2  O   UNL     1       2.913   4.020  16.855  0.00  0.00    +0.000 OA
ATOM      3  O   UNL     1       3.977   2.209  18.211  0.00  0.00    +0.000 OA
ENDROOT
BRANCH   1  11
ATOM      4  C   UNL     1       5.064   4.897  15.405  0.00  0.00    +0.000 C 
ATOM      5  C   UNL     1       5.770   4.993  16.728  0.00  0.00    +0.000 A 
ATOM      6  C   UNL     1       6.954   5.754  16.777  0.00  0.00    +0.000 A 
ATOM      7  C   UNL     1       7.613   5.981  17.984  0.00  0.00    +0.000 A 
ATOM      8  C   UNL     1       7.088   5.454  19.155  0.00  0.00    +0.000 A 
ATOM      9  F   UNL     1       7.697   5.709  20.320  0.00  0.00    +0.000 F 
ATOM     10  C   UNL     1       5.927   4.690  19.143  0.00  0.00    +0.000 A 
ATOM     11  C   UNL     1       5.266   4.447  17.930  0.00  0.00    +0.000 A 
ENDBRANCH   1  11
BRANCH   1  12
ATOM     12  N   UNL     1       2.931   4.246  19.417  0.00  0.00    +0.000 NA
BRANCH  12  13
ATOM     13  C   UNL     1       1.466   4.044  19.503  0.00  0.00    +0.000 C 
ATOM     14  C   UNL     1       0.779   2.751  19.154  0.00  0.00    +0.000 C 
ATOM     15  C   UNL     1       0.900   3.157  20.588  0.00  0.00    +0.000 C 
ENDBRANCH  12  13
BRANCH  12  16
ATOM     16  C   UNL     1       3.388   5.571  19.930  0.00  0.00    +0.000 C 
BRANCH  16  17
ATOM     17  C   UNL     1       2.714   6.818  19.412  0.00  0.00    +0.000 A 
ATOM     18  C   UNL     1       2.900   7.266  18.100  0.00  0.00    +0.000 A 
ATOM     19  C   UNL     1       2.273   8.426  17.648  0.00  0.00    +0.000 A 
ATOM     20  C   UNL     1       1.482   9.130  18.539  0.00  0.00    +0.000 A 
ATOM     21  N   UNL     1       1.286   8.750  19.822  0.00  0.00    +0.000 NA
ATOM     22  C   UNL     1       1.900   7.613  20.223  0.00  0.00    +0.000 A 
ENDBRANCH  16  17
ENDBRANCH  12  16
ENDBRANCH   1  12
TORSDOF 5
ENDMDL
MODEL 6
REMARK VINA RESULT:      -7.3      2.484      5.390
REMARK  Name = 
REMARK  6 active torsions:
REMARK  status: ('A' for Active; 'I' for Inactive)
REMARK    1  A    between atoms: C_1  and  C_2
REMARK    2  A    between atoms: C_8  and  S_9
REMARK    3  A    between atoms: S_9  and  N_12
REMARK    4  A    between atoms: N_12  and  C_13
REMARK    5  A    between atoms: N_12  and  C_20
REMARK    6  A    between atoms: C_13  and  C_14
REMARK                            x       y       z     vdW  Elec       q    Type
REMARK                         _______ _______ _______ _____ _____    ______ ____
ROOT
ATOM      1  S   UNL     1       4.239   3.635  18.412  0.00  0.00    +0.000 S 
ATOM      2  O   UNL     1       4.920   3.150  19.592  0.00  0.00    +0.000 OA
ATOM      3  O   UNL     1       3.356   2.756  17.682  0.00  0.00    +0.000 OA
ENDROOT
BRANCH   1  11
ATOM      4  C   UNL     1       2.339   3.838  21.007  0.00  0.00    +0.000 C 
ATOM      5  C   UNL     1       2.448   5.023  20.088  0.00  0.00    +0.000 A 
ATOM      6  C   UNL     1       1.801   6.210  20.484  0.00  0.00    +0.000 A 
ATOM      7  C   UNL     1       1.938   7.383  19.745  0.00  0.00    +0.000 A 
ATOM      8  C   UNL     1       2.732   7.382  18.608  0.00  0.00    +0.000 A 
ATOM      9  F   UNL     1       2.899   8.520  17.923  0.00  0.00    +0.000 F 
ATOM     10  C   UNL     1       3.378   6.227  18.182  0.00  0.00    +0.000 A 
ATOM     11  C   UNL     1       3.234   5.039  18.914  0.00  0.00    +0.000 A 
ENDBRANCH   1  11
BRANCH   1  12
ATOM     12  N   UNL     1       5.401   4.305  17.345  0.00  0.00    +0.000 NA
BRANCH  12  13
ATOM     13  C   UNL     1       5.425   3.719  15.985  0.00  0.00    +0.000 C 
ATOM     14  C   UNL     1       5.230   4.519  14.725  0.00  0.00    +0.000 C 
ATOM     15  C   UNL     1       6.592   4.008  15.069  0.00  0.00    +0.000 C 
ENDBRANCH  12  13
BRANCH  12  16
ATOM     16  C   UNL     1       6.753   4.642  17.879  0.00  0.00    +0.000 C 
BRANCH  16  17
ATOM     17  C   UNL     1       7.185   6.088  17.891  0.00  0.00    +0.000 A 
ATOM     18  C   UNL     1       8.164   6.558  18.773  0.00  0.00    +0.000 A 
ATOM     19  C   UNL     1       8.539   7.901  18.771  0.00  0.00    +0.000 A 
ATOM     20  C   UNL     1       7.902   8.755  17.889  0.00  0.00    +0.000 A 
ATOM     21  N   UNL     1       6.936   8.356  17.031  0.00  0.00    +0.000 NA
ATOM     22  C   UNL     1       6.605   7.044  17.052  0.00  0.00    +0.000 A 
ENDBRANCH  16  17
ENDBRANCH  12  16
ENDBRANCH   1  12
TORSDOF 5
ENDMDL
MODEL 7
REMARK VINA RESULT:      -7.2      3.077      6.350
REMARK  Name = 
REMARK  6 active torsions:
REMARK  status: ('A' for Active; 'I' for Inactive)
REMARK    1  A    between atoms: C_1  and  C_2
REMARK    2  A    between atoms: C_8  and  S_9
REMARK    3  A    between atoms: S_9  and  N_12
REMARK    4  A    between atoms: N_12  and  C_13
REMARK    5  A    between atoms: N_12  and  C_20
REMARK    6  A    between atoms: C_13  and  C_14
REMARK                            x       y       z     vdW  Elec       q    Type
REMARK                         _______ _______ _______ _____ _____    ______ ____
ROOT
ATOM      1  S   UNL     1       5.148   4.367  18.912  0.00  0.00    +0.000 S 
ATOM      2  O   UNL     1       5.702   5.439  19.710  0.00  0.00    +0.000 OA
ATOM      3  O   UNL     1       5.645   3.021  19.076  0.00  0.00    +0.000 OA
ENDROOT
BRANCH   1  11
ATOM      4  C   UNL     1       3.120   1.969  18.191  0.00  0.00    +0.000 C 
ATOM      5  C   UNL     1       2.594   3.173  18.920  0.00  0.00    +0.000 A 
ATOM      6  C   UNL     1       1.256   3.131  19.359  0.00  0.00    +0.000 A 
ATOM      7  C   UNL     1       0.721   4.160  20.132  0.00  0.00    +0.000 A 
ATOM      8  C   UNL     1       1.524   5.236  20.482  0.00  0.00    +0.000 A 
ATOM      9  F   UNL     1       1.023   6.202  21.262  0.00  0.00    +0.000 F 
ATOM     10  C   UNL     1       2.846   5.315  20.059  0.00  0.00    +0.000 A 
ATOM     11  C   UNL     1       3.386   4.290  19.269  0.00  0.00    +0.000 A 
ENDBRANCH   1  11
BRANCH   1  12
ATOM     12  N   UNL     1       5.226   4.817  17.260  0.00  0.00    +0.000 NA
BRANCH  12  13
ATOM     13  C   UNL     1       4.226   5.823  16.830  0.00  0.00    +0.000 C 
ATOM     14  C   UNL     1       4.077   7.178  17.468  0.00  0.00    +0.000 C 
ATOM     15  C   UNL     1       4.686   7.068  16.107  0.00  0.00    +0.000 C 
ENDBRANCH  12  13
BRANCH  12  16
ATOM     16  C   UNL     1       5.493   3.760  16.242  0.00  0.00    +0.000 C 
BRANCH  16  17
ATOM     17  C   UNL     1       6.187   4.150  14.960  0.00  0.00    +0.000 A 
ATOM     18  C   UNL     1       5.811   3.613  13.724  0.00  0.00    +0.000 A 
ATOM     19  C   UNL     1       6.474   3.983  12.555  0.00  0.00    +0.000 A 
ATOM     20  C   UNL     1       7.525   4.877  12.655  0.00  0.00    +0.000 A 
ATOM     21  N   UNL     1       7.940   5.410  13.827  0.00  0.00    +0.000 NA
ATOM     22  C   UNL     1       7.266   5.038  14.940  0.00  0.00    +0.000 A 
ENDBRANCH  16  17
ENDBRANCH  12  16
ENDBRANCH   1  12
TORSDOF 5
ENDMDL
MODEL 8
REMARK VINA RESULT:      -7.2      0.955      1.037
REMARK  Name = 
REMARK  6 active torsions:
REMARK  status: ('A' for Active; 'I' for Inactive)
REMARK    1  A    between atoms: C_1  and  C_2
REMARK    2  A    between atoms: C_8  and  S_9
REMARK    3  A    between atoms: S_9  and  N_12
REMARK    4  A    between atoms: N_12  and  C_13
REMARK    5  A    between atoms: N_12  and  C_20
REMARK    6  A    between atoms: C_13  and  C_14
REMARK                            x       y       z     vdW  Elec       q    Type
REMARK                         _______ _______ _______ _____ _____    ______ ____
ROOT
ATOM      1  S   UNL     1       4.244   2.994  18.737  0.00  0.00    +0.000 S 
ATOM      2  O   UNL     1       3.762   1.818  18.047  0.00  0.00    +0.000 OA
ATOM      3  O   UNL     1       5.246   2.860  19.767  0.00  0.00    +0.000 OA
ENDROOT
BRANCH   1  11
ATOM      4  C   UNL     1       6.161   5.534  19.249  0.00  0.00    +0.000 C 
ATOM      5  C   UNL     1       5.800   5.166  17.837  0.00  0.00    +0.000 A 
ATOM      6  C   UNL     1       6.425   5.887  16.800  0.00  0.00    +0.000 A 
ATOM      7  C   UNL     1       6.228   5.541  15.465  0.00  0.00    +0.000 A 
ATOM      8  C   UNL     1       5.410   4.464  15.155  0.00  0.00    +0.000 A 
ATOM      9  F   UNL     1       5.256   4.105  13.874  0.00  0.00    +0.000 F 
ATOM     10  C   UNL     1       4.770   3.736  16.151  0.00  0.00    +0.000 A 
ATOM     11  C   UNL     1       4.954   4.087  17.496  0.00  0.00    +0.000 A 
ENDBRANCH   1  11
BRANCH   1  12
ATOM     12  N   UNL     1       2.898   3.863  19.347  0.00  0.00    +0.000 NA
BRANCH  12  13
ATOM     13  C   UNL     1       2.055   3.125  20.316  0.00  0.00    +0.000 C 
ATOM     14  C   UNL     1       2.609   2.292  21.441  0.00  0.00    +0.000 C 
ATOM     15  C   UNL     1       1.967   3.608  21.745  0.00  0.00    +0.000 C 
ENDBRANCH  12  13
BRANCH  12  16
ATOM     16  C   UNL     1       2.123   4.730  18.412  0.00  0.00    +0.000 C 
BRANCH  16  17
ATOM     17  C   UNL     1       2.088   6.217  18.668  0.00  0.00    +0.000 A 
ATOM     18  C   UNL     1       2.386   7.145  17.664  0.00  0.00    +0.000 A 
ATOM     19  C   UNL     1       2.356   8.514  17.928  0.00  0.00    +0.000 A 
ATOM     20  C   UNL     1       2.046   8.924  19.212  0.00  0.00    +0.000 A 
ATOM     21  N   UNL     1       1.770   8.068  20.222  0.00  0.00    +0.000 NA
ATOM     22  C   UNL     1       1.797   6.748  19.927  0.00  0.00    +0.000 A 
ENDBRANCH  16  17
ENDBRANCH  12  16
ENDBRANCH   1  12
TORSDOF 5
ENDMDL
MODEL 9
REMARK VINA RESULT:      -7.2      2.958      5.374
REMARK  Name = 
REMARK  6 active torsions:
REMARK  status: ('A' for Active; 'I' for Inactive)
REMARK    1  A    between atoms: C_1  and  C_2
REMARK    2  A    between atoms: C_8  and  S_9
REMARK    3  A    between atoms: S_9  and  N_12
REMARK    4  A    between atoms: N_12  and  C_13
REMARK    5  A    between atoms: N_12  and  C_20
REMARK    6  A    between atoms: C_13  and  C_14
REMARK                            x       y       z     vdW  Elec       q    Type
REMARK                         _______ _______ _______ _____ _____    ______ ____
ROOT
ATOM      1  S   UNL     1       6.075   5.072  18.049  0.00  0.00    +0.000 S 
ATOM      2  O   UNL     1       7.106   5.966  17.567  0.00  0.00    +0.000 OA
ATOM      3  O   UNL     1       6.304   4.294  19.244  0.00  0.00    +0.000 OA
ENDROOT
BRANCH   1  11
ATOM      4  C   UNL     1       4.789   7.332  16.146  0.00  0.00    +0.000 C 
ATOM      5  C   UNL     1       4.129   7.026  17.461  0.00  0.00    +0.000 A 
ATOM      6  C   UNL     1       2.905   7.665  17.736  0.00  0.00    +0.000 A 
ATOM      7  C   UNL     1       2.176   7.358  18.884  0.00  0.00    +0.000 A 
ATOM      8  C   UNL     1       2.662   6.402  19.762  0.00  0.00    +0.000 A 
ATOM      9  F   UNL     1       1.940   6.075  20.841  0.00  0.00    +0.000 F 
ATOM     10  C   UNL     1       3.871   5.757  19.528  0.00  0.00    +0.000 A 
ATOM     11  C   UNL     1       4.616   6.071  18.382  0.00  0.00    +0.000 A 
ENDBRANCH   1  11
BRANCH   1  12
ATOM     12  N   UNL     1       5.599   4.040  16.766  0.00  0.00    +0.000 NA
BRANCH  12  13
ATOM     13  C   UNL     1       6.526   3.999  15.611  0.00  0.00    +0.000 C 
ATOM     14  C   UNL     1       6.101   3.644  14.211  0.00  0.00    +0.000 C 
ATOM     15  C   UNL     1       6.431   5.064  14.542  0.00  0.00    +0.000 C 
ENDBRANCH  12  13
BRANCH  12  16
ATOM     16  C   UNL     1       4.158   3.990  16.386  0.00  0.00    +0.000 C 
BRANCH  16  17
ATOM     17  C   UNL     1       3.184   3.327  17.329  0.00  0.00    +0.000 A 
ATOM     18  C   UNL     1       1.879   3.802  17.495  0.00  0.00    +0.000 A 
ATOM     19  C   UNL     1       1.001   3.178  18.380  0.00  0.00    +0.000 A 
ATOM     20  C   UNL     1       1.464   2.093  19.102  0.00  0.00    +0.000 A 
ATOM     21  N   UNL     1       2.721   1.607  18.993  0.00  0.00    +0.000 NA
ATOM     22  C   UNL     1       3.543   2.230  18.117  0.00  0.00    +0.000 A 
ENDBRANCH  16  17
ENDBRANCH  12  16
ENDBRANCH   1  12
TORSDOF 5
ENDMDL
