MODEL 1
REMARK VINA RESULT:      -7.2      0.000      0.000
REMARK  Name = 
REMARK  19 active torsions:
REMARK  status: ('A' for Active; 'I' for Inactive)
REMARK    1  A    between atoms: C_1  and  O_2
REMARK    2  A    between atoms: O_2  and  C_3
REMARK    3  A    between atoms: C_7  and  C_8
REMARK    4  A    between atoms: C_8  and  C_9
REMARK    5  A    between atoms: C_9  and  C_10
REMARK    6  A    between atoms: C_10  and  O_11
REMARK    7  A    between atoms: C_10  and  C_12
REMARK    8  A    between atoms: C_12  and  C_13
REMARK    9  A    between atoms: C_13  and  C_14
REMARK   10  A    between atoms: C_15  and  O_16
REMARK   11  A    between atoms: C_18  and  O_19
REMARK   12  A    between atoms: C_20  and  C_21
REMARK   13  A    between atoms: C_21  and  C_22
REMARK   14  A    between atoms: C_22  and  C_23
REMARK   15  A    between atoms: C_23  and  C_24
REMARK   16  A    between atoms: C_24  and  C_25
REMARK   17  A    between atoms: C_25  and  C_26
REMARK   18  A    between atoms: C_26  and  C_27
REMARK   19  A    between atoms: C_27  and  O_29
REMARK                            x       y       z     vdW  Elec       q    Type
REMARK                         _______ _______ _______ _____ _____    ______ ____
ROOT
ATOM      1  C   UNL     1       3.088   5.439  18.697  0.00  0.00    +0.000 C 
ATOM      2  C   UNL     1       1.861   5.237  19.596  0.00  0.00    +0.000 C 
ATOM      3  C   UNL     1       1.516   3.769  19.473  0.00  0.00    +0.000 C 
ATOM      4  C   UNL     1       1.839   3.417  18.032  0.00  0.00    +0.000 C 
ATOM      5  C   UNL     1       2.955   4.383  17.565  0.00  0.00    +0.000 C 
ENDROOT
BRANCH   4   6
ATOM      6  O   UNL     1       2.135   2.038  17.928  0.00  0.00    +0.000 OA
ATOM      7  H   UNL     1       1.390   1.577  17.509  0.00  0.00    +0.000 HD
ENDBRANCH   4   6
BRANCH   2   8
ATOM      8  O   UNL     1       2.149   5.558  20.948  0.00  0.00    +0.000 OA
ATOM      9  H   UNL     1       1.493   5.113  21.519  0.00  0.00    +0.000 HD
ENDBRANCH   2   8
BRANCH   1  10
ATOM     10  C   UNL     1       3.168   6.882  18.147  0.00  0.00    +0.000 C 
BRANCH  10  11
ATOM     11  C   UNL     1       1.817   7.604  18.223  0.00  0.00    +0.000 C 
BRANCH  11  12
ATOM     12  C   UNL     1       1.937   9.101  18.531  0.00  0.00    +0.000 C 
BRANCH  12  13
ATOM     13  O   UNL     1       2.053   9.825  17.305  0.00  0.00    +0.000 OA
ATOM     14  H   UNL     1       2.774   9.425  16.787  0.00  0.00    +0.000 HD
ENDBRANCH  12  13
BRANCH  12  15
ATOM     15  C   UNL     1       0.718   9.638  19.297  0.00  0.00    +0.000 C 
BRANCH  15  16
ATOM     16  C   UNL     1       0.182  10.950  18.720  0.00  0.00    +0.000 C 
BRANCH  16  21
ATOM     17  C   UNL     1      -3.587  11.472  18.531  0.00  0.00    +0.000 A 
ATOM     18  C   UNL     1      -3.919  10.623  17.475  0.00  0.00    +0.000 A 
ATOM     19  C   UNL     1      -2.938   9.882  16.823  0.00  0.00    +0.000 A 
ATOM     20  C   UNL     1      -1.604   9.984  17.223  0.00  0.00    +0.000 A 
ATOM     21  C   UNL     1      -1.252  10.831  18.277  0.00  0.00    +0.000 A 
ATOM     22  C   UNL     1      -2.252  11.571  18.933  0.00  0.00    +0.000 A 
BRANCH  17  24
ATOM     23  C   UNL     1      -4.336  12.963  20.220  0.00  0.00    +0.000 C 
ATOM     24  O   UNL     1      -4.636  12.148  19.092  0.00  0.00    +0.000 OA
ENDBRANCH  17  24
ENDBRANCH  16  21
ENDBRANCH  15  16
ENDBRANCH  12  15
ENDBRANCH  11  12
ENDBRANCH  10  11
ENDBRANCH   1  10
BRANCH   5  25
ATOM     25  C   UNL     1       4.322   3.767  17.208  0.00  0.00    +0.000 C 
BRANCH  25  26
ATOM     26  C   UNL     1       4.874   4.241  15.860  0.00  0.00    +0.000 C 
BRANCH  26  27
ATOM     27  C   UNL     1       6.273   4.845  15.989  0.00  0.00    +0.000 C 
BRANCH  27  28
ATOM     28  C   UNL     1       6.189   6.373  16.056  0.00  0.00    +0.000 C 
BRANCH  28  29
ATOM     29  C   UNL     1       6.523   6.891  17.452  0.00  0.00    +0.000 C 
BRANCH  29  30
ATOM     30  C   UNL     1       7.707   6.139  18.058  0.00  0.00    +0.000 C 
BRANCH  30  31
ATOM     31  C   UNL     1       7.368   5.563  19.413  0.00  0.00    +0.000 C 
ATOM     32  O   UNL     1       6.250   5.254  19.791  0.00  0.00    +0.000 OA
BRANCH  31  33
ATOM     33  O   UNL     1       8.462   5.417  20.196  0.00  0.00    +0.000 OA
ATOM     34  H   UNL     1       8.676   6.209  20.723  0.00  0.00    +0.000 HD
ENDBRANCH  31  33
ENDBRANCH  30  31
ENDBRANCH  29  30
ENDBRANCH  28  29
ENDBRANCH  27  28
ENDBRANCH  26  27
ENDBRANCH  25  26
ENDBRANCH   5  25
TORSDOF 18
ENDMDL
MODEL 2
REMARK VINA RESULT:      -7.1      1.994      2.639
REMARK  Name = 
REMARK  19 active torsions:
REMARK  status: ('A' for Active; 'I' for Inactive)
REMARK    1  A    between atoms: C_1  and  O_2
REMARK    2  A    between atoms: O_2  and  C_3
REMARK    3  A    between atoms: C_7  and  C_8
REMARK    4  A    between atoms: C_8  and  C_9
REMARK    5  A    between atoms: C_9  and  C_10
REMARK    6  A    between atoms: C_10  and  O_11
REMARK    7  A    between atoms: C_10  and  C_12
REMARK    8  A    between atoms: C_12  and  C_13
REMARK    9  A    between atoms: C_13  and  C_14
REMARK   10  A    between atoms: C_15  and  O_16
REMARK   11  A    between atoms: C_18  and  O_19
REMARK   12  A    between atoms: C_20  and  C_21
REMARK   13  A    between atoms: C_21  and  C_22
REMARK   14  A    between atoms: C_22  and  C_23
REMARK   15  A    between atoms: C_23  and  C_24
REMARK   16  A    between atoms: C_24  and  C_25
REMARK   17  A    between atoms: C_25  and  C_26
REMARK   18  A    between atoms: C_26  and  C_27
REMARK   19  A    between atoms: C_27  and  O_29
REMARK                            x       y       z     vdW  Elec       q    Type
REMARK                         _______ _______ _______ _____ _____    ______ ____
ROOT
ATOM      1  C   UNL     1       2.240   5.090  18.839  0.00  0.00    +0.000 C 
ATOM      2  C   UNL     1       1.606   4.896  20.223  0.00  0.00    +0.000 C 
ATOM      3  C   UNL     1       1.441   3.401  20.379  0.00  0.00    +0.000 C 
ATOM      4  C   UNL     1       1.106   2.902  18.984  0.00  0.00    +0.000 C 
ATOM      5  C   UNL     1       1.742   3.895  17.980  0.00  0.00    +0.000 C 
ENDROOT
BRANCH   4   6
ATOM      6  O   UNL     1       1.501   1.551  18.847  0.00  0.00    +0.000 OA
ATOM      7  H   UNL     1       1.277   1.065  19.658  0.00  0.00    +0.000 HD
ENDBRANCH   4   6
BRANCH   2   8
ATOM      8  O   UNL     1       2.440   5.404  21.252  0.00  0.00    +0.000 OA
ATOM      9  H   UNL     1       2.233   4.930  22.081  0.00  0.00    +0.000 HD
ENDBRANCH   2   8
BRANCH   1  10
ATOM     10  C   UNL     1       1.865   6.455  18.219  0.00  0.00    +0.000 C 
BRANCH  10  11
ATOM     11  C   UNL     1       2.244   7.627  19.132  0.00  0.00    +0.000 C 
BRANCH  11  12
ATOM     12  C   UNL     1       2.501   8.937  18.378  0.00  0.00    +0.000 C 
BRANCH  12  13
ATOM     13  O   UNL     1       2.319   8.717  16.978  0.00  0.00    +0.000 OA
ATOM     14  H   UNL     1       3.141   8.332  16.625  0.00  0.00    +0.000 HD
ENDBRANCH  12  13
BRANCH  12  15
ATOM     15  C   UNL     1       1.551  10.060  18.819  0.00  0.00    +0.000 C 
BRANCH  15  16
ATOM     16  C   UNL     1       0.153   9.551  19.180  0.00  0.00    +0.000 C 
BRANCH  16  21
ATOM     17  C   UNL     1      -1.277  11.689  21.989  0.00  0.00    +0.000 A 
ATOM     18  C   UNL     1      -1.078  10.853  23.087  0.00  0.00    +0.000 A 
ATOM     19  C   UNL     1      -0.483   9.604  22.930  0.00  0.00    +0.000 A 
ATOM     20  C   UNL     1      -0.081   9.176  21.663  0.00  0.00    +0.000 A 
ATOM     21  C   UNL     1      -0.276  10.000  20.552  0.00  0.00    +0.000 A 
ATOM     22  C   UNL     1      -0.872  11.262  20.722  0.00  0.00    +0.000 A 
BRANCH  17  24
ATOM     23  C   UNL     1      -1.364  13.605  23.391  0.00  0.00    +0.000 C 
ATOM     24  O   UNL     1      -1.870  12.891  22.268  0.00  0.00    +0.000 OA
ENDBRANCH  17  24
ENDBRANCH  16  21
ENDBRANCH  15  16
ENDBRANCH  12  15
ENDBRANCH  11  12
ENDBRANCH  10  11
ENDBRANCH   1  10
BRANCH   5  25
ATOM     25  C   UNL     1       2.857   3.358  17.062  0.00  0.00    +0.000 C 
BRANCH  25  26
ATOM     26  C   UNL     1       4.254   3.865  17.436  0.00  0.00    +0.000 C 
BRANCH  26  27
ATOM     27  C   UNL     1       5.015   4.405  16.224  0.00  0.00    +0.000 C 
BRANCH  27  28
ATOM     28  C   UNL     1       5.041   5.935  16.250  0.00  0.00    +0.000 C 
BRANCH  28  29
ATOM     29  C   UNL     1       5.520   6.464  17.599  0.00  0.00    +0.000 C 
BRANCH  29  30
ATOM     30  C   UNL     1       7.046   6.480  17.681  0.00  0.00    +0.000 C 
BRANCH  30  31
ATOM     31  C   UNL     1       7.572   5.326  18.502  0.00  0.00    +0.000 C 
ATOM     32  O   UNL     1       8.195   4.372  18.065  0.00  0.00    +0.000 OA
BRANCH  31  33
ATOM     33  O   UNL     1       7.276   5.455  19.817  0.00  0.00    +0.000 OA
ATOM     34  H   UNL     1       7.178   6.381  20.107  0.00  0.00    +0.000 HD
ENDBRANCH  31  33
ENDBRANCH  30  31
ENDBRANCH  29  30
ENDBRANCH  28  29
ENDBRANCH  27  28
ENDBRANCH  26  27
ENDBRANCH  25  26
ENDBRANCH   5  25
TORSDOF 18
ENDMDL
MODEL 3
REMARK VINA RESULT:      -7.0      2.297      4.589
REMARK  Name = 
REMARK  19 active torsions:
REMARK  status: ('A' for Active; 'I' for Inactive)
REMARK    1  A    between atoms: C_1  and  O_2
REMARK    2  A    between atoms: O_2  and  C_3
REMARK    3  A    between atoms: C_7  and  C_8
REMARK    4  A    between atoms: C_8  and  C_9
REMARK    5  A    between atoms: C_9  and  C_10
REMARK    6  A    between atoms: C_10  and  O_11
REMARK    7  A    between atoms: C_10  and  C_12
REMARK    8  A    between atoms: C_12  and  C_13
REMARK    9  A    between atoms: C_13  and  C_14
REMARK   10  A    between atoms: C_15  and  O_16
REMARK   11  A    between atoms: C_18  and  O_19
REMARK   12  A    between atoms: C_20  and  C_21
REMARK   13  A    between atoms: C_21  and  C_22
REMARK   14  A    between atoms: C_22  and  C_23
REMARK   15  A    between atoms: C_23  and  C_24
REMARK   16  A    between atoms: C_24  and  C_25
REMARK   17  A    between atoms: C_25  and  C_26
REMARK   18  A    between atoms: C_26  and  C_27
REMARK   19  A    between atoms: C_27  and  O_29
REMARK                            x       y       z     vdW  Elec       q    Type
REMARK                         _______ _______ _______ _____ _____    ______ ____
ROOT
ATOM      1  C   UNL     1       4.466   6.246  17.692  0.00  0.00    +0.000 C 
ATOM      2  C   UNL     1       5.606   6.983  16.977  0.00  0.00    +0.000 C 
ATOM      3  C   UNL     1       6.750   5.995  16.927  0.00  0.00    +0.000 C 
ATOM      4  C   UNL     1       6.647   5.220  18.229  0.00  0.00    +0.000 C 
ATOM      5  C   UNL     1       5.158   5.243  18.657  0.00  0.00    +0.000 C 
ENDROOT
BRANCH   4   6
ATOM      6  O   UNL     1       7.222   3.938  18.074  0.00  0.00    +0.000 OA
ATOM      7  H   UNL     1       6.572   3.259  18.320  0.00  0.00    +0.000 HD
ENDBRANCH   4   6
BRANCH   2   8
ATOM      8  O   UNL     1       5.234   7.364  15.661  0.00  0.00    +0.000 OA
ATOM      9  H   UNL     1       5.813   6.897  15.028  0.00  0.00    +0.000 HD
ENDBRANCH   2   8
BRANCH   1  10
ATOM     10  C   UNL     1       3.526   7.222  18.436  0.00  0.00    +0.000 C 
BRANCH  10  11
ATOM     11  C   UNL     1       2.504   7.870  17.494  0.00  0.00    +0.000 C 
BRANCH  11  12
ATOM     12  C   UNL     1       1.896   9.165  18.043  0.00  0.00    +0.000 C 
BRANCH  12  13
ATOM     13  O   UNL     1       2.410  10.275  17.306  0.00  0.00    +0.000 OA
ATOM     14  H   UNL     1       3.347  10.098  17.112  0.00  0.00    +0.000 HD
ENDBRANCH  12  13
BRANCH  12  15
ATOM     15  C   UNL     1       0.363   9.181  17.937  0.00  0.00    +0.000 C 
BRANCH  15  16
ATOM     16  C   UNL     1      -0.269  10.394  18.622  0.00  0.00    +0.000 C 
BRANCH  16  21
ATOM     17  C   UNL     1      -0.586  11.228  22.325  0.00  0.00    +0.000 A 
ATOM     18  C   UNL     1      -0.421   9.966  22.896  0.00  0.00    +0.000 A 
ATOM     19  C   UNL     1      -0.207   8.847  22.097  0.00  0.00    +0.000 A 
ATOM     20  C   UNL     1      -0.156   8.980  20.708  0.00  0.00    +0.000 A 
ATOM     21  C   UNL     1      -0.322  10.236  20.118  0.00  0.00    +0.000 A 
ATOM     22  C   UNL     1      -0.532  11.361  20.935  0.00  0.00    +0.000 A 
BRANCH  17  24
ATOM     23  C   UNL     1      -0.807  13.567  22.671  0.00  0.00    +0.000 C 
ATOM     24  O   UNL     1      -0.790  12.251  23.212  0.00  0.00    +0.000 OA
ENDBRANCH  17  24
ENDBRANCH  16  21
ENDBRANCH  15  16
ENDBRANCH  12  15
ENDBRANCH  11  12
ENDBRANCH  10  11
ENDBRANCH   1  10
BRANCH   5  25
ATOM     25  C   UNL     1       4.412   3.895  18.697  0.00  0.00    +0.000 C 
BRANCH  25  26
ATOM     26  C   UNL     1       3.562   3.629  17.449  0.00  0.00    +0.000 C 
BRANCH  26  27
ATOM     27  C   UNL     1       2.063   3.672  17.752  0.00  0.00    +0.000 C 
BRANCH  27  28
ATOM     28  C   UNL     1       1.593   2.323  18.301  0.00  0.00    +0.000 C 
BRANCH  28  29
ATOM     29  C   UNL     1       1.050   2.455  19.721  0.00  0.00    +0.000 C 
BRANCH  29  30
ATOM     30  C   UNL     1       1.015   3.915  20.172  0.00  0.00    +0.000 C 
BRANCH  30  31
ATOM     31  C   UNL     1       1.954   4.163  21.329  0.00  0.00    +0.000 C 
ATOM     32  O   UNL     1       2.219   3.362  22.210  0.00  0.00    +0.000 OA
BRANCH  31  33
ATOM     33  O   UNL     1       2.491   5.405  21.295  0.00  0.00    +0.000 OA
ATOM     34  H   UNL     1       2.122   6.011  21.964  0.00  0.00    +0.000 HD
ENDBRANCH  31  33
ENDBRANCH  30  31
ENDBRANCH  29  30
ENDBRANCH  28  29
ENDBRANCH  27  28
ENDBRANCH  26  27
ENDBRANCH  25  26
ENDBRANCH   5  25
TORSDOF 18
ENDMDL
MODEL 4
REMARK VINA RESULT:      -7.0      2.193      4.508
REMARK  Name = 
REMARK  19 active torsions:
REMARK  status: ('A' for Active; 'I' for Inactive)
REMARK    1  A    between atoms: C_1  and  O_2
REMARK    2  A    between atoms: O_2  and  C_3
REMARK    3  A    between atoms: C_7  and  C_8
REMARK    4  A    between atoms: C_8  and  C_9
REMARK    5  A    between atoms: C_9  and  C_10
REMARK    6  A    between atoms: C_10  and  O_11
REMARK    7  A    between atoms: C_10  and  C_12
REMARK    8  A    between atoms: C_12  and  C_13
REMARK    9  A    between atoms: C_13  and  C_14
REMARK   10  A    between atoms: C_15  and  O_16
REMARK   11  A    between atoms: C_18  and  O_19
REMARK   12  A    between atoms: C_20  and  C_21
REMARK   13  A    between atoms: C_21  and  C_22
REMARK   14  A    between atoms: C_22  and  C_23
REMARK   15  A    between atoms: C_23  and  C_24
REMARK   16  A    between atoms: C_24  and  C_25
REMARK   17  A    between atoms: C_25  and  C_26
REMARK   18  A    between atoms: C_26  and  C_27
REMARK   19  A    between atoms: C_27  and  O_29
REMARK                            x       y       z     vdW  Elec       q    Type
REMARK                         _______ _______ _______ _____ _____    ______ ____
ROOT
ATOM      1  C   UNL     1       4.547   5.858  17.535  0.00  0.00    +0.000 C 
ATOM      2  C   UNL     1       5.532   6.720  16.733  0.00  0.00    +0.000 C 
ATOM      3  C   UNL     1       6.893   6.113  16.993  0.00  0.00    +0.000 C 
ATOM      4  C   UNL     1       6.835   5.639  18.434  0.00  0.00    +0.000 C 
ATOM      5  C   UNL     1       5.352   5.326  18.753  0.00  0.00    +0.000 C 
ENDROOT
BRANCH   4   6
ATOM      6  O   UNL     1       7.744   4.572  18.628  0.00  0.00    +0.000 OA
ATOM      7  H   UNL     1       8.090   4.603  19.535  0.00  0.00    +0.000 HD
ENDBRANCH   4   6
BRANCH   2   8
ATOM      8  O   UNL     1       5.241   6.687  15.345  0.00  0.00    +0.000 OA
ATOM      9  H   UNL     1       4.283   6.537  15.232  0.00  0.00    +0.000 HD
ENDBRANCH   2   8
BRANCH   1  10
ATOM     10  C   UNL     1       3.297   6.660  17.963  0.00  0.00    +0.000 C 
BRANCH  10  11
ATOM     11  C   UNL     1       3.315   8.093  17.418  0.00  0.00    +0.000 C 
BRANCH  11  12
ATOM     12  C   UNL     1       2.446   9.068  18.220  0.00  0.00    +0.000 C 
BRANCH  12  13
ATOM     13  O   UNL     1       1.896  10.045  17.335  0.00  0.00    +0.000 OA
ATOM     14  H   UNL     1       2.512  10.797  17.297  0.00  0.00    +0.000 HD
ENDBRANCH  12  13
BRANCH  12  15
ATOM     15  C   UNL     1       1.288   8.360  18.940  0.00  0.00    +0.000 C 
BRANCH  15  16
ATOM     16  C   UNL     1       1.174   8.753  20.415  0.00  0.00    +0.000 C 
BRANCH  16  21
ATOM     17  C   UNL     1      -0.605  11.700  22.046  0.00  0.00    +0.000 A 
ATOM     18  C   UNL     1      -1.466  12.090  21.022  0.00  0.00    +0.000 A 
ATOM     19  C   UNL     1      -1.480  11.410  19.807  0.00  0.00    +0.000 A 
ATOM     20  C   UNL     1      -0.625  10.326  19.605  0.00  0.00    +0.000 A 
ATOM     21  C   UNL     1       0.247   9.922  20.619  0.00  0.00    +0.000 A 
ATOM     22  C   UNL     1       0.249  10.612  21.845  0.00  0.00    +0.000 A 
BRANCH  17  24
ATOM     23  C   UNL     1      -1.829  13.276  23.335  0.00  0.00    +0.000 C 
ATOM     24  O   UNL     1      -0.682  12.445  23.193  0.00  0.00    +0.000 OA
ENDBRANCH  17  24
ENDBRANCH  16  21
ENDBRANCH  15  16
ENDBRANCH  12  15
ENDBRANCH  11  12
ENDBRANCH  10  11
ENDBRANCH   1  10
BRANCH   5  25
ATOM     25  C   UNL     1       4.989   3.862  19.070  0.00  0.00    +0.000 C 
BRANCH  25  26
ATOM     26  C   UNL     1       4.140   3.193  17.984  0.00  0.00    +0.000 C 
BRANCH  26  27
ATOM     27  C   UNL     1       3.261   2.074  18.546  0.00  0.00    +0.000 C 
BRANCH  27  28
ATOM     28  C   UNL     1       1.785   2.365  18.263  0.00  0.00    +0.000 C 
BRANCH  28  29
ATOM     29  C   UNL     1       1.003   2.602  19.552  0.00  0.00    +0.000 C 
BRANCH  29  30
ATOM     30  C   UNL     1       1.084   4.063  19.992  0.00  0.00    +0.000 C 
BRANCH  30  31
ATOM     31  C   UNL     1       1.999   4.237  21.182  0.00  0.00    +0.000 C 
ATOM     32  O   UNL     1       2.256   3.377  22.008  0.00  0.00    +0.000 OA
BRANCH  31  33
ATOM     33  O   UNL     1       2.525   5.483  21.246  0.00  0.00    +0.000 OA
ATOM     34  H   UNL     1       2.046   6.080  21.852  0.00  0.00    +0.000 HD
ENDBRANCH  31  33
ENDBRANCH  30  31
ENDBRANCH  29  30
ENDBRANCH  28  29
ENDBRANCH  27  28
ENDBRANCH  26  27
ENDBRANCH  25  26
ENDBRANCH   5  25
TORSDOF 18
ENDMDL
MODEL 5
REMARK VINA RESULT:      -6.9      2.617      4.891
REMARK  Name = 
REMARK  19 active torsions:
REMARK  status: ('A' for Active; 'I' for Inactive)
REMARK    1  A    between atoms: C_1  and  O_2
REMARK    2  A    between atoms: O_2  and  C_3
REMARK    3  A    between atoms: C_7  and  C_8
REMARK    4  A    between atoms: C_8  and  C_9
REMARK    5  A    between atoms: C_9  and  C_10
REMARK    6  A    between atoms: C_10  and  O_11
REMARK    7  A    between atoms: C_10  and  C_12
REMARK    8  A    between atoms: C_12  and  C_13
REMARK    9  A    between atoms: C_13  and  C_14
REMARK   10  A    between atoms: C_15  and  O_16
REMARK   11  A    between atoms: C_18  and  O_19
REMARK   12  A    between atoms: C_20  and  C_21
REMARK   13  A    between atoms: C_21  and  C_22
REMARK   14  A    between atoms: C_22  and  C_23
REMARK   15  A    between atoms: C_23  and  C_24
REMARK   16  A    between atoms: C_24  and  C_25
REMARK   17  A    between atoms: C_25  and  C_26
REMARK   18  A    between atoms: C_26  and  C_27
REMARK   19  A    between atoms: C_27  and  O_29
REMARK                            x       y       z     vdW  Elec       q    Type
REMARK                         _______ _______ _______ _____ _____    ______ ____
ROOT
ATOM      1  C   UNL     1       4.363   5.667  17.407  0.00  0.00    +0.000 C 
ATOM      2  C   UNL     1       5.323   6.669  16.751  0.00  0.00    +0.000 C 
ATOM      3  C   UNL     1       6.709   6.194  17.126  0.00  0.00    +0.000 C 
ATOM      4  C   UNL     1       6.561   5.640  18.531  0.00  0.00    +0.000 C 
ATOM      5  C   UNL     1       5.096   5.157  18.679  0.00  0.00    +0.000 C 
ENDROOT
BRANCH   4   6
ATOM      6  O   UNL     1       7.557   4.666  18.773  0.00  0.00    +0.000 OA
ATOM      7  H   UNL     1       7.231   3.794  18.497  0.00  0.00    +0.000 HD
ENDBRANCH   4   6
BRANCH   2   8
ATOM      8  O   UNL     1       5.177   6.680  15.340  0.00  0.00    +0.000 OA
ATOM      9  H   UNL     1       5.107   7.608  15.043  0.00  0.00    +0.000 HD
ENDBRANCH   2   8
BRANCH   1  10
ATOM     10  C   UNL     1       2.996   6.309  17.736  0.00  0.00    +0.000 C 
BRANCH  10  11
ATOM     11  C   UNL     1       3.128   7.474  18.724  0.00  0.00    +0.000 C 
BRANCH  11  12
ATOM     12  C   UNL     1       1.789   7.945  19.303  0.00  0.00    +0.000 C 
BRANCH  12  13
ATOM     13  O   UNL     1       1.910   8.077  20.720  0.00  0.00    +0.000 OA
ATOM     14  H   UNL     1       1.130   8.559  21.044  0.00  0.00    +0.000 HD
ENDBRANCH  12  13
BRANCH  12  15
ATOM     15  C   UNL     1       1.348   9.299  18.727  0.00  0.00    +0.000 C 
BRANCH  15  16
ATOM     16  C   UNL     1       0.445  10.086  19.678  0.00  0.00    +0.000 C 
BRANCH  16  21
ATOM     17  C   UNL     1       1.644  13.534  18.588  0.00  0.00    +0.000 A 
ATOM     18  C   UNL     1       0.501  14.297  18.819  0.00  0.00    +0.000 A 
ATOM     19  C   UNL     1      -0.656  13.711  19.325  0.00  0.00    +0.000 A 
ATOM     20  C   UNL     1      -0.680  12.343  19.606  0.00  0.00    +0.000 A 
ATOM     21  C   UNL     1       0.456  11.562  19.379  0.00  0.00    +0.000 A 
ATOM     22  C   UNL     1       1.621  12.166  18.873  0.00  0.00    +0.000 A 
BRANCH  17  24
ATOM     23  C   UNL     1       2.687  15.637  18.231  0.00  0.00    +0.000 C 
ATOM     24  O   UNL     1       2.718  14.221  18.089  0.00  0.00    +0.000 OA
ENDBRANCH  17  24
ENDBRANCH  16  21
ENDBRANCH  15  16
ENDBRANCH  12  15
ENDBRANCH  11  12
ENDBRANCH  10  11
ENDBRANCH   1  10
BRANCH   5  25
ATOM     25  C   UNL     1       4.867   3.648  18.894  0.00  0.00    +0.000 C 
BRANCH  25  26
ATOM     26  C   UNL     1       4.136   2.969  17.730  0.00  0.00    +0.000 C 
BRANCH  26  27
ATOM     27  C   UNL     1       3.018   2.043  18.212  0.00  0.00    +0.000 C 
BRANCH  27  28
ATOM     28  C   UNL     1       1.668   2.761  18.145  0.00  0.00    +0.000 C 
BRANCH  28  29
ATOM     29  C   UNL     1       0.911   2.655  19.466  0.00  0.00    +0.000 C 
BRANCH  29  30
ATOM     30  C   UNL     1       0.918   3.984  20.221  0.00  0.00    +0.000 C 
BRANCH  30  31
ATOM     31  C   UNL     1       1.992   4.016  21.283  0.00  0.00    +0.000 C 
ATOM     32  O   UNL     1       2.300   3.084  22.006  0.00  0.00    +0.000 OA
BRANCH  31  33
ATOM     33  O   UNL     1       2.603   5.222  21.357  0.00  0.00    +0.000 OA
ATOM     34  H   UNL     1       3.470   5.196  21.804  0.00  0.00    +0.000 HD
ENDBRANCH  31  33
ENDBRANCH  30  31
ENDBRANCH  29  30
ENDBRANCH  28  29
ENDBRANCH  27  28
ENDBRANCH  26  27
ENDBRANCH  25  26
ENDBRANCH   5  25
TORSDOF 18
ENDMDL
MODEL 6
REMARK VINA RESULT:      -6.8      4.938      8.704
REMARK  Name = 
REMARK  19 active torsions:
REMARK  status: ('A' for Active; 'I' for Inactive)
REMARK    1  A    between atoms: C_1  and  O_2
REMARK    2  A    between atoms: O_2  and  C_3
REMARK    3  A    between atoms: C_7  and  C_8
REMARK    4  A    between atoms: C_8  and  C_9
REMARK    5  A    between atoms: C_9  and  C_10
REMARK    6  A    between atoms: C_10  and  O_11
REMARK    7  A    between atoms: C_10  and  C_12
REMARK    8  A    between atoms: C_12  and  C_13
REMARK    9  A    between atoms: C_13  and  C_14
REMARK   10  A    between atoms: C_15  and  O_16
REMARK   11  A    between atoms: C_18  and  O_19
REMARK   12  A    between atoms: C_20  and  C_21
REMARK   13  A    between atoms: C_21  and  C_22
REMARK   14  A    between atoms: C_22  and  C_23
REMARK   15  A    between atoms: C_23  and  C_24
REMARK   16  A    between atoms: C_24  and  C_25
REMARK   17  A    between atoms: C_25  and  C_26
REMARK   18  A    between atoms: C_26  and  C_27
REMARK   19  A    between atoms: C_27  and  O_29
REMARK                            x       y       z     vdW  Elec       q    Type
REMARK                         _______ _______ _______ _____ _____    ______ ____
ROOT
ATOM      1  C   UNL     1       6.301   6.067  16.913  0.00  0.00    +0.000 C 
ATOM      2  C   UNL     1       6.965   4.953  16.091  0.00  0.00    +0.000 C 
ATOM      3  C   UNL     1       5.872   3.938  15.843  0.00  0.00    +0.000 C 
ATOM      4  C   UNL     1       5.030   3.959  17.107  0.00  0.00    +0.000 C 
ATOM      5  C   UNL     1       5.175   5.372  17.726  0.00  0.00    +0.000 C 
ENDROOT
BRANCH   4   6
ATOM      6  O   UNL     1       3.709   3.549  16.813  0.00  0.00    +0.000 OA
ATOM      7  H   UNL     1       3.666   3.227  15.898  0.00  0.00    +0.000 HD
ENDBRANCH   4   6
BRANCH   2   8
ATOM      8  O   UNL     1       7.463   5.444  14.857  0.00  0.00    +0.000 OA
ATOM      9  H   UNL     1       8.277   4.952  14.634  0.00  0.00    +0.000 HD
ENDBRANCH   2   8
BRANCH   1  10
ATOM     10  C   UNL     1       7.317   6.795  17.821  0.00  0.00    +0.000 C 
BRANCH  10  11
ATOM     11  C   UNL     1       7.670   8.190  17.291  0.00  0.00    +0.000 C 
BRANCH  11  12
ATOM     12  C   UNL     1       8.175   9.151  18.374  0.00  0.00    +0.000 C 
BRANCH  12  13
ATOM     13  O   UNL     1       9.021   8.438  19.277  0.00  0.00    +0.000 OA
ATOM     14  H   UNL     1       8.998   7.497  19.031  0.00  0.00    +0.000 HD
ENDBRANCH  12  13
BRANCH  12  15
ATOM     15  C   UNL     1       8.974  10.324  17.786  0.00  0.00    +0.000 C 
BRANCH  15  16
ATOM     16  C   UNL     1       9.803  11.067  18.836  0.00  0.00    +0.000 C 
BRANCH  16  21
ATOM     17  C   UNL     1      10.170  14.845  18.521  0.00  0.00    +0.000 A 
ATOM     18  C   UNL     1      11.074  14.936  17.464  0.00  0.00    +0.000 A 
ATOM     19  C   UNL     1      11.566  13.789  16.848  0.00  0.00    +0.000 A 
ATOM     20  C   UNL     1      11.156  12.529  17.289  0.00  0.00    +0.000 A 
ATOM     21  C   UNL     1      10.253  12.418  18.350  0.00  0.00    +0.000 A 
ATOM     22  C   UNL     1       9.758  13.584  18.961  0.00  0.00    +0.000 A 
BRANCH  17  24
ATOM     23  C   UNL     1       8.363  16.176  19.298  0.00  0.00    +0.000 C 
ATOM     24  O   UNL     1       9.757  16.041  19.045  0.00  0.00    +0.000 OA
ENDBRANCH  17  24
ENDBRANCH  16  21
ENDBRANCH  15  16
ENDBRANCH  12  15
ENDBRANCH  11  12
ENDBRANCH  10  11
ENDBRANCH   1  10
BRANCH   5  25
ATOM     25  C   UNL     1       3.909   6.248  17.796  0.00  0.00    +0.000 C 
BRANCH  25  26
ATOM     26  C   UNL     1       3.232   6.237  19.172  0.00  0.00    +0.000 C 
BRANCH  26  27
ATOM     27  C   UNL     1       1.950   5.403  19.177  0.00  0.00    +0.000 C 
BRANCH  27  28
ATOM     28  C   UNL     1       1.577   5.011  20.609  0.00  0.00    +0.000 C 
BRANCH  28  29
ATOM     29  C   UNL     1       1.404   3.500  20.749  0.00  0.00    +0.000 C 
BRANCH  29  30
ATOM     30  C   UNL     1       2.676   2.841  21.282  0.00  0.00    +0.000 C 
BRANCH  30  31
ATOM     31  C   UNL     1       3.565   2.357  20.160  0.00  0.00    +0.000 C 
ATOM     32  O   UNL     1       4.784   2.331  20.186  0.00  0.00    +0.000 OA
BRANCH  31  33
ATOM     33  O   UNL     1       2.854   1.941  19.086  0.00  0.00    +0.000 OA
ATOM     34  H   UNL     1       1.891   2.065  19.181  0.00  0.00    +0.000 HD
ENDBRANCH  31  33
ENDBRANCH  30  31
ENDBRANCH  29  30
ENDBRANCH  28  29
ENDBRANCH  27  28
ENDBRANCH  26  27
ENDBRANCH  25  26
ENDBRANCH   5  25
TORSDOF 18
ENDMDL
MODEL 7
REMARK VINA RESULT:      -6.8      1.853      2.339
REMARK  Name = 
REMARK  19 active torsions:
REMARK  status: ('A' for Active; 'I' for Inactive)
REMARK    1  A    between atoms: C_1  and  O_2
REMARK    2  A    between atoms: O_2  and  C_3
REMARK    3  A    between atoms: C_7  and  C_8
REMARK    4  A    between atoms: C_8  and  C_9
REMARK    5  A    between atoms: C_9  and  C_10
REMARK    6  A    between atoms: C_10  and  O_11
REMARK    7  A    between atoms: C_10  and  C_12
REMARK    8  A    between atoms: C_12  and  C_13
REMARK    9  A    between atoms: C_13  and  C_14
REMARK   10  A    between atoms: C_15  and  O_16
REMARK   11  A    between atoms: C_18  and  O_19
REMARK   12  A    between atoms: C_20  and  C_21
REMARK   13  A    between atoms: C_21  and  C_22
REMARK   14  A    between atoms: C_22  and  C_23
REMARK   15  A    between atoms: C_23  and  C_24
REMARK   16  A    between atoms: C_24  and  C_25
REMARK   17  A    between atoms: C_25  and  C_26
REMARK   18  A    between atoms: C_26  and  C_27
REMARK   19  A    between atoms: C_27  and  O_29
REMARK                            x       y       z     vdW  Elec       q    Type
REMARK                         _______ _______ _______ _____ _____    ______ ____
ROOT
ATOM      1  C   UNL     1       3.316   5.411  18.506  0.00  0.00    +0.000 C 
ATOM      2  C   UNL     1       2.135   5.136  19.447  0.00  0.00    +0.000 C 
ATOM      3  C   UNL     1       1.850   3.658  19.305  0.00  0.00    +0.000 C 
ATOM      4  C   UNL     1       2.131   3.349  17.845  0.00  0.00    +0.000 C 
ATOM      5  C   UNL     1       3.185   4.374  17.357  0.00  0.00    +0.000 C 
ENDROOT
BRANCH   4   6
ATOM      6  O   UNL     1       2.484   1.987  17.699  0.00  0.00    +0.000 OA
ATOM      7  H   UNL     1       3.403   1.922  17.392  0.00  0.00    +0.000 HD
ENDBRANCH   4   6
BRANCH   2   8
ATOM      8  O   UNL     1       2.462   5.442  20.794  0.00  0.00    +0.000 OA
ATOM      9  H   UNL     1       2.548   6.411  20.879  0.00  0.00    +0.000 HD
ENDBRANCH   2   8
BRANCH   1  10
ATOM     10  C   UNL     1       3.311   6.867  17.986  0.00  0.00    +0.000 C 
BRANCH  10  11
ATOM     11  C   UNL     1       1.959   7.556  18.210  0.00  0.00    +0.000 C 
BRANCH  11  12
ATOM     12  C   UNL     1       2.023   9.084  18.110  0.00  0.00    +0.000 C 
BRANCH  12  13
ATOM     13  O   UNL     1       0.992   9.542  17.235  0.00  0.00    +0.000 OA
ATOM     14  H   UNL     1       0.135   9.299  17.628  0.00  0.00    +0.000 HD
ENDBRANCH  12  13
BRANCH  12  15
ATOM     15  C   UNL     1       1.839   9.766  19.475  0.00  0.00    +0.000 C 
BRANCH  15  16
ATOM     16  C   UNL     1       0.866   9.017  20.388  0.00  0.00    +0.000 C 
BRANCH  16  21
ATOM     17  C   UNL     1      -1.429  11.946  21.208  0.00  0.00    +0.000 A 
ATOM     18  C   UNL     1      -1.685  11.712  22.558  0.00  0.00    +0.000 A 
ATOM     19  C   UNL     1      -1.123  10.617  23.209  0.00  0.00    +0.000 A 
ATOM     20  C   UNL     1      -0.294   9.739  22.509  0.00  0.00    +0.000 A 
ATOM     21  C   UNL     1      -0.027   9.956  21.155  0.00  0.00    +0.000 A 
ATOM     22  C   UNL     1      -0.595  11.068  20.508  0.00  0.00    +0.000 A 
BRANCH  17  24
ATOM     23  C   UNL     1      -2.766  13.871  21.585  0.00  0.00    +0.000 C 
ATOM     24  O   UNL     1      -2.037  13.052  20.678  0.00  0.00    +0.000 OA
ENDBRANCH  17  24
ENDBRANCH  16  21
ENDBRANCH  15  16
ENDBRANCH  12  15
ENDBRANCH  11  12
ENDBRANCH  10  11
ENDBRANCH   1  10
BRANCH   5  25
ATOM     25  C   UNL     1       4.563   3.826  16.934  0.00  0.00    +0.000 C 
BRANCH  25  26
ATOM     26  C   UNL     1       4.965   4.217  15.508  0.00  0.00    +0.000 C 
BRANCH  26  27
ATOM     27  C   UNL     1       5.817   5.487  15.477  0.00  0.00    +0.000 C 
BRANCH  27  28
ATOM     28  C   UNL     1       6.926   5.409  16.529  0.00  0.00    +0.000 C 
BRANCH  28  29
ATOM     29  C   UNL     1       6.963   6.663  17.399  0.00  0.00    +0.000 C 
BRANCH  29  30
ATOM     30  C   UNL     1       7.956   6.513  18.551  0.00  0.00    +0.000 C 
BRANCH  30  31
ATOM     31  C   UNL     1       7.409   5.627  19.646  0.00  0.00    +0.000 C 
ATOM     32  O   UNL     1       6.283   5.161  19.683  0.00  0.00    +0.000 OA
BRANCH  31  33
ATOM     33  O   UNL     1       8.322   5.392  20.618  0.00  0.00    +0.000 OA
ATOM     34  H   UNL     1       9.219   5.216  20.279  0.00  0.00    +0.000 HD
ENDBRANCH  31  33
ENDBRANCH  30  31
ENDBRANCH  29  30
ENDBRANCH  28  29
ENDBRANCH  27  28
ENDBRANCH  26  27
ENDBRANCH  25  26
ENDBRANCH   5  25
TORSDOF 18
ENDMDL
MODEL 8
REMARK VINA RESULT:      -6.7      5.742      8.601
REMARK  Name = 
REMARK  19 active torsions:
REMARK  status: ('A' for Active; 'I' for Inactive)
REMARK    1  A    between atoms: C_1  and  O_2
REMARK    2  A    between atoms: O_2  and  C_3
REMARK    3  A    between atoms: C_7  and  C_8
REMARK    4  A    between atoms: C_8  and  C_9
REMARK    5  A    between atoms: C_9  and  C_10
REMARK    6  A    between atoms: C_10  and  O_11
REMARK    7  A    between atoms: C_10  and  C_12
REMARK    8  A    between atoms: C_12  and  C_13
REMARK    9  A    between atoms: C_13  and  C_14
REMARK   10  A    between atoms: C_15  and  O_16
REMARK   11  A    between atoms: C_18  and  O_19
REMARK   12  A    between atoms: C_20  and  C_21
REMARK   13  A    between atoms: C_21  and  C_22
REMARK   14  A    between atoms: C_22  and  C_23
REMARK   15  A    between atoms: C_23  and  C_24
REMARK   16  A    between atoms: C_24  and  C_25
REMARK   17  A    between atoms: C_25  and  C_26
REMARK   18  A    between atoms: C_26  and  C_27
REMARK   19  A    between atoms: C_27  and  O_29
REMARK                            x       y       z     vdW  Elec       q    Type
REMARK                         _______ _______ _______ _____ _____    ______ ____
ROOT
ATOM      1  C   UNL     1       5.163   4.265  18.535  0.00  0.00    +0.000 C 
ATOM      2  C   UNL     1       4.381   3.418  19.548  0.00  0.00    +0.000 C 
ATOM      3  C   UNL     1       3.259   2.785  18.755  0.00  0.00    +0.000 C 
ATOM      4  C   UNL     1       2.867   3.838  17.734  0.00  0.00    +0.000 C 
ATOM      5  C   UNL     1       4.123   4.705  17.468  0.00  0.00    +0.000 C 
ENDROOT
BRANCH   4   6
ATOM      6  O   UNL     1       2.294   3.219  16.599  0.00  0.00    +0.000 OA
ATOM      7  H   UNL     1       2.462   2.263  16.633  0.00  0.00    +0.000 HD
ENDBRANCH   4   6
BRANCH   2   8
ATOM      8  O   UNL     1       5.198   2.411  20.124  0.00  0.00    +0.000 OA
ATOM      9  H   UNL     1       4.907   2.263  21.044  0.00  0.00    +0.000 HD
ENDBRANCH   2   8
BRANCH   1  10
ATOM     10  C   UNL     1       5.859   5.470  19.207  0.00  0.00    +0.000 C 
BRANCH  10  11
ATOM     11  C   UNL     1       7.317   5.620  18.756  0.00  0.00    +0.000 C 
BRANCH  11  12
ATOM     12  C   UNL     1       7.571   6.866  17.900  0.00  0.00    +0.000 C 
BRANCH  12  13
ATOM     13  O   UNL     1       6.319   7.419  17.491  0.00  0.00    +0.000 OA
ATOM     14  H   UNL     1       6.483   8.319  17.160  0.00  0.00    +0.000 HD
ENDBRANCH  12  13
BRANCH  12  15
ATOM     15  C   UNL     1       8.354   7.947  18.660  0.00  0.00    +0.000 C 
BRANCH  15  16
ATOM     16  C   UNL     1       8.270   9.322  17.995  0.00  0.00    +0.000 C 
BRANCH  16  21
ATOM     17  C   UNL     1      11.071  11.886  18.304  0.00  0.00    +0.000 A 
ATOM     18  C   UNL     1      11.068  12.118  19.679  0.00  0.00    +0.000 A 
ATOM     19  C   UNL     1      10.171  11.453  20.509  0.00  0.00    +0.000 A 
ATOM     20  C   UNL     1       9.260  10.544  19.968  0.00  0.00    +0.000 A 
ATOM     21  C   UNL     1       9.247  10.300  18.593  0.00  0.00    +0.000 A 
ATOM     22  C   UNL     1      10.162  10.973  17.763  0.00  0.00    +0.000 A 
BRANCH  17  24
ATOM     23  C   UNL     1      11.517  13.730  16.876  0.00  0.00    +0.000 C 
ATOM     24  O   UNL     1      11.998  12.598  17.591  0.00  0.00    +0.000 OA
ENDBRANCH  17  24
ENDBRANCH  16  21
ENDBRANCH  15  16
ENDBRANCH  12  15
ENDBRANCH  11  12
ENDBRANCH  10  11
ENDBRANCH   1  10
BRANCH   5  25
ATOM     25  C   UNL     1       4.723   4.665  16.048  0.00  0.00    +0.000 C 
BRANCH  25  26
ATOM     26  C   UNL     1       6.107   4.010  15.987  0.00  0.00    +0.000 C 
BRANCH  26  27
ATOM     27  C   UNL     1       6.489   3.602  14.563  0.00  0.00    +0.000 C 
BRANCH  27  28
ATOM     28  C   UNL     1       6.300   4.780  13.604  0.00  0.00    +0.000 C 
BRANCH  28  29
ATOM     29  C   UNL     1       6.462   4.348  12.149  0.00  0.00    +0.000 C 
BRANCH  29  30
ATOM     30  C   UNL     1       6.822   2.866  12.044  0.00  0.00    +0.000 C 
BRANCH  30  31
ATOM     31  C   UNL     1       5.684   2.056  11.468  0.00  0.00    +0.000 C 
ATOM     32  O   UNL     1       4.566   2.480  11.225  0.00  0.00    +0.000 OA
BRANCH  31  33
ATOM     33  O   UNL     1       6.035   0.769  11.240  0.00  0.00    +0.000 OA
ATOM     34  H   UNL     1       5.600   0.376  10.461  0.00  0.00    +0.000 HD
ENDBRANCH  31  33
ENDBRANCH  30  31
ENDBRANCH  29  30
ENDBRANCH  28  29
ENDBRANCH  27  28
ENDBRANCH  26  27
ENDBRANCH  25  26
ENDBRANCH   5  25
TORSDOF 18
ENDMDL
MODEL 9
REMARK VINA RESULT:      -6.7      1.326      1.763
REMARK  Name = 
REMARK  19 active torsions:
REMARK  status: ('A' for Active; 'I' for Inactive)
REMARK    1  A    between atoms: C_1  and  O_2
REMARK    2  A    between atoms: O_2  and  C_3
REMARK    3  A    between atoms: C_7  and  C_8
REMARK    4  A    between atoms: C_8  and  C_9
REMARK    5  A    between atoms: C_9  and  C_10
REMARK    6  A    between atoms: C_10  and  O_11
REMARK    7  A    between atoms: C_10  and  C_12
REMARK    8  A    between atoms: C_12  and  C_13
REMARK    9  A    between atoms: C_13  and  C_14
REMARK   10  A    between atoms: C_15  and  O_16
REMARK   11  A    between atoms: C_18  and  O_19
REMARK   12  A    between atoms: C_20  and  C_21
REMARK   13  A    between atoms: C_21  and  C_22
REMARK   14  A    between atoms: C_22  and  C_23
REMARK   15  A    between atoms: C_23  and  C_24
REMARK   16  A    between atoms: C_24  and  C_25
REMARK   17  A    between atoms: C_25  and  C_26
REMARK   18  A    between atoms: C_26  and  C_27
REMARK   19  A    between atoms: C_27  and  O_29
REMARK                            x       y       z     vdW  Elec       q    Type
REMARK                         _______ _______ _______ _____ _____    ______ ____
ROOT
ATOM      1  C   UNL     1       1.752   4.691  20.062  0.00  0.00    +0.000 C 
ATOM      2  C   UNL     1       1.401   3.526  20.997  0.00  0.00    +0.000 C 
ATOM      3  C   UNL     1       1.588   2.278  20.163  0.00  0.00    +0.000 C 
ATOM      4  C   UNL     1       1.151   2.678  18.765  0.00  0.00    +0.000 C 
ATOM      5  C   UNL     1       1.392   4.203  18.631  0.00  0.00    +0.000 C 
ENDROOT
BRANCH   4   6
ATOM      6  O   UNL     1       1.801   1.866  17.806  0.00  0.00    +0.000 OA
ATOM      7  H   UNL     1       1.331   1.929  16.958  0.00  0.00    +0.000 HD
ENDBRANCH   4   6
BRANCH   2   8
ATOM      8  O   UNL     1       2.258   3.490  22.127  0.00  0.00    +0.000 OA
ATOM      9  H   UNL     1       3.142   3.805  21.856  0.00  0.00    +0.000 HD
ENDBRANCH   2   8
BRANCH   1  10
ATOM     10  C   UNL     1       0.999   5.985  20.447  0.00  0.00    +0.000 C 
BRANCH  10  11
ATOM     11  C   UNL     1       1.955   7.102  20.882  0.00  0.00    +0.000 C 
BRANCH  11  12
ATOM     12  C   UNL     1       1.770   8.409  20.103  0.00  0.00    +0.000 C 
BRANCH  12  13
ATOM     13  O   UNL     1       1.816   8.133  18.702  0.00  0.00    +0.000 OA
ATOM     14  H   UNL     1       1.385   8.871  18.236  0.00  0.00    +0.000 HD
ENDBRANCH  12  13
BRANCH  12  15
ATOM     15  C   UNL     1       0.429   9.091  20.418  0.00  0.00    +0.000 C 
BRANCH  15  16
ATOM     16  C   UNL     1       0.289  10.464  19.757  0.00  0.00    +0.000 C 
BRANCH  16  21
ATOM     17  C   UNL     1      -3.170  11.414  18.474  0.00  0.00    +0.000 A 
ATOM     18  C   UNL     1      -3.207  10.714  17.269  0.00  0.00    +0.000 A 
ATOM     19  C   UNL     1      -2.126   9.936  16.865  0.00  0.00    +0.000 A 
ATOM     20  C   UNL     1      -0.988   9.851  17.669  0.00  0.00    +0.000 A 
ATOM     21  C   UNL     1      -0.932  10.547  18.879  0.00  0.00    +0.000 A 
ATOM     22  C   UNL     1      -2.033  11.326  19.281  0.00  0.00    +0.000 A 
BRANCH  17  24
ATOM     23  C   UNL     1      -5.530  11.442  18.741  0.00  0.00    +0.000 C 
ATOM     24  O   UNL     1      -4.292  12.144  18.763  0.00  0.00    +0.000 OA
ENDBRANCH  17  24
ENDBRANCH  16  21
ENDBRANCH  15  16
ENDBRANCH  12  15
ENDBRANCH  11  12
ENDBRANCH  10  11
ENDBRANCH   1  10
BRANCH   5  25
ATOM     25  C   UNL     1       2.438   4.667  17.599  0.00  0.00    +0.000 C 
BRANCH  25  26
ATOM     26  C   UNL     1       3.699   5.264  18.232  0.00  0.00    +0.000 C 
BRANCH  26  27
ATOM     27  C   UNL     1       4.435   6.204  17.275  0.00  0.00    +0.000 C 
BRANCH  27  28
ATOM     28  C   UNL     1       5.419   5.414  16.407  0.00  0.00    +0.000 C 
BRANCH  28  29
ATOM     29  C   UNL     1       6.244   4.439  17.242  0.00  0.00    +0.000 C 
BRANCH  29  30
ATOM     30  C   UNL     1       7.599   5.036  17.619  0.00  0.00    +0.000 C 
BRANCH  30  31
ATOM     31  C   UNL     1       7.566   5.668  18.991  0.00  0.00    +0.000 C 
ATOM     32  O   UNL     1       6.892   5.284  19.932  0.00  0.00    +0.000 OA
BRANCH  31  33
ATOM     33  O   UNL     1       8.387   6.741  19.080  0.00  0.00    +0.000 OA
ATOM     34  H   UNL     1       8.348   7.194  19.943  0.00  0.00    +0.000 HD
ENDBRANCH  31  33
ENDBRANCH  30  31
ENDBRANCH  29  30
ENDBRANCH  28  29
ENDBRANCH  27  28
ENDBRANCH  26  27
ENDBRANCH  25  26
ENDBRANCH   5  25
TORSDOF 18
ENDMDL
