MODEL 1
REMARK VINA RESULT:      -7.6      0.000      0.000
REMARK  Name = 
REMARK  6 active torsions:
REMARK  status: ('A' for Active; 'I' for Inactive)
REMARK    1  A    between atoms: C_1  and  C_2
REMARK    2  A    between atoms: C_2  and  C_3
REMARK    3  A    between atoms: C_3  and  N_4
REMARK    4  A    between atoms: C_8  and  O_9
REMARK    5  A    between atoms: O_9  and  C_10
REMARK    6  A    between atoms: C_16  and  C_17
REMARK                            x       y       z     vdW  Elec       q    Type
REMARK                         _______ _______ _______ _____ _____    ______ ____
ROOT
ATOM      1  N   UNL     1       6.011   6.243  16.990  0.00  0.00    +0.000 NA
ATOM      2  C   UNL     1       6.836   5.428  16.102  0.00  0.00    +0.000 C 
ATOM      3  O   UNL     1       6.555   4.040  16.142  0.00  0.00    +0.000 OA
ATOM      4  C   UNL     1       5.212   3.755  15.782  0.00  0.00    +0.000 C 
ATOM      5  C   UNL     1       4.271   4.298  16.857  0.00  0.00    +0.000 C 
ATOM      6  C   UNL     1       4.585   5.838  16.947  0.00  0.00    +0.000 C 
ENDROOT
BRANCH   6   7
ATOM      7  C   UNL     1       3.648   6.685  17.811  0.00  0.00    +0.000 A 
ATOM      8  C   UNL     1       3.216   6.305  19.089  0.00  0.00    +0.000 A 
ATOM      9  C   UNL     1       2.298   7.087  19.798  0.00  0.00    +0.000 A 
ATOM     10  C   UNL     1       1.811   8.270  19.248  0.00  0.00    +0.000 A 
ATOM     11  C   UNL     1       2.265   8.690  18.001  0.00  0.00    +0.000 A 
ATOM     12  C   UNL     1       3.181   7.910  17.295  0.00  0.00    +0.000 A 
ENDBRANCH   6   7
BRANCH   1  13
ATOM     13  C   UNL     1       6.613   6.445  18.306  0.00  0.00    +0.000 C 
BRANCH  13  15
ATOM     14  C   UNL     1       7.913   8.616  17.793  0.00  0.00    +0.000 C 
ATOM     15  C   UNL     1       7.989   7.152  18.223  0.00  0.00    +0.000 C 
ENDBRANCH  13  15
ENDBRANCH   1  13
BRANCH   5  16
ATOM     16  O   UNL     1       4.466   3.627  18.115  0.00  0.00    +0.000 OA
BRANCH  16  17
ATOM     17  C   UNL     1       3.373   3.196  18.833  0.00  0.00    +0.000 A 
ATOM     18  C   UNL     1       3.313   2.959  20.207  0.00  0.00    +0.000 A 
ATOM     19  C   UNL     1       2.092   2.651  20.825  0.00  0.00    +0.000 A 
ATOM     20  C   UNL     1       0.929   2.526  20.066  0.00  0.00    +0.000 A 
ATOM     21  C   UNL     1       0.994   2.693  18.684  0.00  0.00    +0.000 A 
ATOM     22  C   UNL     1       2.209   3.026  18.075  0.00  0.00    +0.000 A 
ENDBRANCH  16  17
ENDBRANCH   5  16
TORSDOF 5
ENDMDL
MODEL 2
REMARK VINA RESULT:      -7.3      0.266      1.043
REMARK  Name = 
REMARK  6 active torsions:
REMARK  status: ('A' for Active; 'I' for Inactive)
REMARK    1  A    between atoms: C_1  and  C_2
REMARK    2  A    between atoms: C_2  and  C_3
REMARK    3  A    between atoms: C_3  and  N_4
REMARK    4  A    between atoms: C_8  and  O_9
REMARK    5  A    between atoms: O_9  and  C_10
REMARK    6  A    between atoms: C_16  and  C_17
REMARK                            x       y       z     vdW  Elec       q    Type
REMARK                         _______ _______ _______ _____ _____    ______ ____
ROOT
ATOM      1  N   UNL     1       5.974   6.170  17.005  0.00  0.00    +0.000 NA
ATOM      2  C   UNL     1       6.775   5.335  16.114  0.00  0.00    +0.000 C 
ATOM      3  O   UNL     1       6.444   3.957  16.138  0.00  0.00    +0.000 OA
ATOM      4  C   UNL     1       5.094   3.725  15.766  0.00  0.00    +0.000 C 
ATOM      5  C   UNL     1       4.166   4.291  16.840  0.00  0.00    +0.000 C 
ATOM      6  C   UNL     1       4.535   5.817  16.948  0.00  0.00    +0.000 C 
ENDROOT
BRANCH   6   7
ATOM      7  C   UNL     1       3.622   6.689  17.814  0.00  0.00    +0.000 A 
ATOM      8  C   UNL     1       3.241   6.353  19.120  0.00  0.00    +0.000 A 
ATOM      9  C   UNL     1       2.343   7.155  19.834  0.00  0.00    +0.000 A 
ATOM     10  C   UNL     1       1.826   8.313  19.259  0.00  0.00    +0.000 A 
ATOM     11  C   UNL     1       2.231   8.690  17.982  0.00  0.00    +0.000 A 
ATOM     12  C   UNL     1       3.127   7.891  17.271  0.00  0.00    +0.000 A 
ENDBRANCH   6   7
BRANCH   1  13
ATOM     13  C   UNL     1       6.574   6.337  18.327  0.00  0.00    +0.000 C 
BRANCH  13  15
ATOM     14  C   UNL     1       7.848   8.498  17.721  0.00  0.00    +0.000 C 
ATOM     15  C   UNL     1       7.934   7.075  18.269  0.00  0.00    +0.000 C 
ENDBRANCH  13  15
ENDBRANCH   1  13
BRANCH   5  16
ATOM     16  O   UNL     1       4.327   3.600  18.092  0.00  0.00    +0.000 OA
BRANCH  16  17
ATOM     17  C   UNL     1       3.222   3.324  18.865  0.00  0.00    +0.000 A 
ATOM     18  C   UNL     1       1.900   3.214  18.429  0.00  0.00    +0.000 A 
ATOM     19  C   UNL     1       0.891   2.795  19.308  0.00  0.00    +0.000 A 
ATOM     20  C   UNL     1       1.186   2.531  20.645  0.00  0.00    +0.000 A 
ATOM     21  C   UNL     1       2.490   2.706  21.105  0.00  0.00    +0.000 A 
ATOM     22  C   UNL     1       3.499   3.099  20.218  0.00  0.00    +0.000 A 
ENDBRANCH  16  17
ENDBRANCH   5  16
TORSDOF 5
ENDMDL
MODEL 3
REMARK VINA RESULT:      -7.3      2.169      5.511
REMARK  Name = 
REMARK  6 active torsions:
REMARK  status: ('A' for Active; 'I' for Inactive)
REMARK    1  A    between atoms: C_1  and  C_2
REMARK    2  A    between atoms: C_2  and  C_3
REMARK    3  A    between atoms: C_3  and  N_4
REMARK    4  A    between atoms: C_8  and  O_9
REMARK    5  A    between atoms: O_9  and  C_10
REMARK    6  A    between atoms: C_16  and  C_17
REMARK                            x       y       z     vdW  Elec       q    Type
REMARK                         _______ _______ _______ _____ _____    ______ ____
ROOT
ATOM      1  N   UNL     1       3.453   2.751  18.635  0.00  0.00    +0.000 NA
ATOM      2  C   UNL     1       2.069   2.330  18.434  0.00  0.00    +0.000 C 
ATOM      3  O   UNL     1       1.117   3.378  18.503  0.00  0.00    +0.000 OA
ATOM      4  C   UNL     1       1.355   4.382  17.528  0.00  0.00    +0.000 C 
ATOM      5  C   UNL     1       2.655   5.115  17.861  0.00  0.00    +0.000 C 
ATOM      6  C   UNL     1       3.765   3.999  17.898  0.00  0.00    +0.000 C 
ENDROOT
BRANCH   6   7
ATOM      7  C   UNL     1       5.216   4.471  18.015  0.00  0.00    +0.000 A 
ATOM      8  C   UNL     1       6.193   4.222  17.041  0.00  0.00    +0.000 A 
ATOM      9  C   UNL     1       7.521   4.615  17.241  0.00  0.00    +0.000 A 
ATOM     10  C   UNL     1       7.889   5.277  18.410  0.00  0.00    +0.000 A 
ATOM     11  C   UNL     1       6.924   5.577  19.367  0.00  0.00    +0.000 A 
ATOM     12  C   UNL     1       5.600   5.186  19.166  0.00  0.00    +0.000 A 
ENDBRANCH   6   7
BRANCH   1  13
ATOM     13  C   UNL     1       3.880   2.668  20.029  0.00  0.00    +0.000 C 
BRANCH  13  15
ATOM     14  C   UNL     1       2.283   3.781  21.726  0.00  0.00    +0.000 C 
ATOM     15  C   UNL     1       2.687   2.496  21.003  0.00  0.00    +0.000 C 
ENDBRANCH  13  15
ENDBRANCH   1  13
BRANCH   5  16
ATOM     16  O   UNL     1       2.554   5.827  19.107  0.00  0.00    +0.000 OA
BRANCH  16  17
ATOM     17  C   UNL     1       2.186   7.153  19.105  0.00  0.00    +0.000 A 
ATOM     18  C   UNL     1       2.236   8.037  18.025  0.00  0.00    +0.000 A 
ATOM     19  C   UNL     1       1.701   9.328  18.134  0.00  0.00    +0.000 A 
ATOM     20  C   UNL     1       1.157   9.767  19.340  0.00  0.00    +0.000 A 
ATOM     21  C   UNL     1       1.165   8.915  20.443  0.00  0.00    +0.000 A 
ATOM     22  C   UNL     1       1.677   7.618  20.323  0.00  0.00    +0.000 A 
ENDBRANCH  16  17
ENDBRANCH   5  16
TORSDOF 5
ENDMDL
MODEL 4
REMARK VINA RESULT:      -7.3      0.113      1.031
REMARK  Name = 
REMARK  6 active torsions:
REMARK  status: ('A' for Active; 'I' for Inactive)
REMARK    1  A    between atoms: C_1  and  C_2
REMARK    2  A    between atoms: C_2  and  C_3
REMARK    3  A    between atoms: C_3  and  N_4
REMARK    4  A    between atoms: C_8  and  O_9
REMARK    5  A    between atoms: O_9  and  C_10
REMARK    6  A    between atoms: C_16  and  C_17
REMARK                            x       y       z     vdW  Elec       q    Type
REMARK                         _______ _______ _______ _____ _____    ______ ____
ROOT
ATOM      1  N   UNL     1       6.014   6.235  16.984  0.00  0.00    +0.000 NA
ATOM      2  C   UNL     1       6.882   5.437  16.122  0.00  0.00    +0.000 C 
ATOM      3  O   UNL     1       6.635   4.042  16.163  0.00  0.00    +0.000 OA
ATOM      4  C   UNL     1       5.309   3.722  15.770  0.00  0.00    +0.000 C 
ATOM      5  C   UNL     1       4.327   4.247  16.817  0.00  0.00    +0.000 C 
ATOM      6  C   UNL     1       4.600   5.795  16.906  0.00  0.00    +0.000 C 
ENDROOT
BRANCH   6   7
ATOM      7  C   UNL     1       3.620   6.623  17.740  0.00  0.00    +0.000 A 
ATOM      8  C   UNL     1       3.068   7.837  17.308  0.00  0.00    +0.000 A 
ATOM      9  C   UNL     1       2.236   8.585  18.149  0.00  0.00    +0.000 A 
ATOM     10  C   UNL     1       1.930   8.124  19.426  0.00  0.00    +0.000 A 
ATOM     11  C   UNL     1       2.428   6.897  19.855  0.00  0.00    +0.000 A 
ATOM     12  C   UNL     1       3.257   6.151  19.016  0.00  0.00    +0.000 A 
ENDBRANCH   6   7
BRANCH   1  13
ATOM     13  C   UNL     1       6.576   6.459  18.313  0.00  0.00    +0.000 C 
BRANCH  13  15
ATOM     14  C   UNL     1       7.915   8.597  17.760  0.00  0.00    +0.000 C 
ATOM     15  C   UNL     1       7.960   7.153  18.259  0.00  0.00    +0.000 C 
ENDBRANCH  13  15
ENDBRANCH   1  13
BRANCH   5  16
ATOM     16  O   UNL     1       4.505   3.587  18.084  0.00  0.00    +0.000 OA
BRANCH  16  17
ATOM     17  C   UNL     1       3.404   3.163  18.791  0.00  0.00    +0.000 A 
ATOM     18  C   UNL     1       3.327   2.932  20.166  0.00  0.00    +0.000 A 
ATOM     19  C   UNL     1       2.099   2.630  20.772  0.00  0.00    +0.000 A 
ATOM     20  C   UNL     1       0.944   2.507  20.001  0.00  0.00    +0.000 A 
ATOM     21  C   UNL     1       1.025   2.668  18.619  0.00  0.00    +0.000 A 
ATOM     22  C   UNL     1       2.247   2.995  18.021  0.00  0.00    +0.000 A 
ENDBRANCH  16  17
ENDBRANCH   5  16
TORSDOF 5
ENDMDL
MODEL 5
REMARK VINA RESULT:      -7.2      1.523      4.722
REMARK  Name = 
REMARK  6 active torsions:
REMARK  status: ('A' for Active; 'I' for Inactive)
REMARK    1  A    between atoms: C_1  and  C_2
REMARK    2  A    between atoms: C_2  and  C_3
REMARK    3  A    between atoms: C_3  and  N_4
REMARK    4  A    between atoms: C_8  and  O_9
REMARK    5  A    between atoms: O_9  and  C_10
REMARK    6  A    between atoms: C_16  and  C_17
REMARK                            x       y       z     vdW  Elec       q    Type
REMARK                         _______ _______ _______ _____ _____    ______ ____
ROOT
ATOM      1  N   UNL     1       6.273   4.142  16.280  0.00  0.00    +0.000 NA
ATOM      2  C   UNL     1       7.457   4.951  16.001  0.00  0.00    +0.000 C 
ATOM      3  O   UNL     1       7.310   6.331  16.285  0.00  0.00    +0.000 OA
ATOM      4  C   UNL     1       7.003   6.565  17.651  0.00  0.00    +0.000 C 
ATOM      5  C   UNL     1       5.604   6.030  17.956  0.00  0.00    +0.000 C 
ATOM      6  C   UNL     1       5.649   4.504  17.575  0.00  0.00    +0.000 C 
ENDROOT
BRANCH   6   7
ATOM      7  C   UNL     1       4.433   3.658  17.964  0.00  0.00    +0.000 A 
ATOM      8  C   UNL     1       3.288   3.534  17.166  0.00  0.00    +0.000 A 
ATOM      9  C   UNL     1       2.180   2.806  17.611  0.00  0.00    +0.000 A 
ATOM     10  C   UNL     1       2.204   2.179  18.854  0.00  0.00    +0.000 A 
ATOM     11  C   UNL     1       3.350   2.249  19.641  0.00  0.00    +0.000 A 
ATOM     12  C   UNL     1       4.456   2.974  19.195  0.00  0.00    +0.000 A 
ENDBRANCH   6   7
BRANCH   1  13
ATOM     13  C   UNL     1       5.391   3.999  15.124  0.00  0.00    +0.000 C 
BRANCH  13  15
ATOM     14  C   UNL     1       5.490   3.375  12.621  0.00  0.00    +0.000 C 
ATOM     15  C   UNL     1       6.154   4.116  13.781  0.00  0.00    +0.000 C 
ENDBRANCH  13  15
ENDBRANCH   1  13
BRANCH   5  16
ATOM     16  O   UNL     1       4.594   6.747  17.223  0.00  0.00    +0.000 OA
BRANCH  16  17
ATOM     17  C   UNL     1       3.582   7.385  17.903  0.00  0.00    +0.000 A 
ATOM     18  C   UNL     1       2.885   8.525  17.496  0.00  0.00    +0.000 A 
ATOM     19  C   UNL     1       1.784   8.988  18.231  0.00  0.00    +0.000 A 
ATOM     20  C   UNL     1       1.401   8.346  19.407  0.00  0.00    +0.000 A 
ATOM     21  C   UNL     1       2.134   7.250  19.858  0.00  0.00    +0.000 A 
ATOM     22  C   UNL     1       3.216   6.774  19.109  0.00  0.00    +0.000 A 
ENDBRANCH  16  17
ENDBRANCH   5  16
TORSDOF 5
ENDMDL
MODEL 6
REMARK VINA RESULT:      -7.2      2.166      5.425
REMARK  Name = 
REMARK  6 active torsions:
REMARK  status: ('A' for Active; 'I' for Inactive)
REMARK    1  A    between atoms: C_1  and  C_2
REMARK    2  A    between atoms: C_2  and  C_3
REMARK    3  A    between atoms: C_3  and  N_4
REMARK    4  A    between atoms: C_8  and  O_9
REMARK    5  A    between atoms: O_9  and  C_10
REMARK    6  A    between atoms: C_16  and  C_17
REMARK                            x       y       z     vdW  Elec       q    Type
REMARK                         _______ _______ _______ _____ _____    ______ ____
ROOT
ATOM      1  N   UNL     1       3.467   2.720  18.676  0.00  0.00    +0.000 NA
ATOM      2  C   UNL     1       2.086   2.312  18.429  0.00  0.00    +0.000 C 
ATOM      3  O   UNL     1       1.136   3.360  18.510  0.00  0.00    +0.000 OA
ATOM      4  C   UNL     1       1.400   4.394  17.575  0.00  0.00    +0.000 C 
ATOM      5  C   UNL     1       2.693   5.111  17.962  0.00  0.00    +0.000 C 
ATOM      6  C   UNL     1       3.799   3.991  17.989  0.00  0.00    +0.000 C 
ENDROOT
BRANCH   6   7
ATOM      7  C   UNL     1       5.249   4.455  18.156  0.00  0.00    +0.000 A 
ATOM      8  C   UNL     1       5.717   5.145  19.282  0.00  0.00    +0.000 A 
ATOM      9  C   UNL     1       7.036   5.608  19.341  0.00  0.00    +0.000 A 
ATOM     10  C   UNL     1       7.911   5.375  18.284  0.00  0.00    +0.000 A 
ATOM     11  C   UNL     1       7.479   4.648  17.178  0.00  0.00    +0.000 A 
ATOM     12  C   UNL     1       6.164   4.185  17.120  0.00  0.00    +0.000 A 
ENDBRANCH   6   7
BRANCH   1  13
ATOM     13  C   UNL     1       3.860   2.590  20.077  0.00  0.00    +0.000 C 
BRANCH  13  15
ATOM     14  C   UNL     1       2.245   3.660  21.783  0.00  0.00    +0.000 C 
ATOM     15  C   UNL     1       2.644   2.400  21.017  0.00  0.00    +0.000 C 
ENDBRANCH  13  15
ENDBRANCH   1  13
BRANCH   5  16
ATOM     16  O   UNL     1       2.565   5.782  19.229  0.00  0.00    +0.000 OA
BRANCH  16  17
ATOM     17  C   UNL     1       2.080   7.069  19.271  0.00  0.00    +0.000 A 
ATOM     18  C   UNL     1       1.495   7.711  20.366  0.00  0.00    +0.000 A 
ATOM     19  C   UNL     1       1.168   9.073  20.303  0.00  0.00    +0.000 A 
ATOM     20  C   UNL     1       1.374   9.795  19.128  0.00  0.00    +0.000 A 
ATOM     21  C   UNL     1       1.892   9.145  18.009  0.00  0.00    +0.000 A 
ATOM     22  C   UNL     1       2.242   7.792  18.084  0.00  0.00    +0.000 A 
ENDBRANCH  16  17
ENDBRANCH   5  16
TORSDOF 5
ENDMDL
MODEL 7
REMARK VINA RESULT:      -7.1      1.509      4.612
REMARK  Name = 
REMARK  6 active torsions:
REMARK  status: ('A' for Active; 'I' for Inactive)
REMARK    1  A    between atoms: C_1  and  C_2
REMARK    2  A    between atoms: C_2  and  C_3
REMARK    3  A    between atoms: C_3  and  N_4
REMARK    4  A    between atoms: C_8  and  O_9
REMARK    5  A    between atoms: O_9  and  C_10
REMARK    6  A    between atoms: C_16  and  C_17
REMARK                            x       y       z     vdW  Elec       q    Type
REMARK                         _______ _______ _______ _____ _____    ______ ____
ROOT
ATOM      1  N   UNL     1       5.985   3.951  16.600  0.00  0.00    +0.000 NA
ATOM      2  C   UNL     1       7.293   4.598  16.525  0.00  0.00    +0.000 C 
ATOM      3  O   UNL     1       7.305   5.956  16.931  0.00  0.00    +0.000 OA
ATOM      4  C   UNL     1       6.877   6.115  18.275  0.00  0.00    +0.000 C 
ATOM      5  C   UNL     1       5.393   5.768  18.381  0.00  0.00    +0.000 C 
ATOM      6  C   UNL     1       5.272   4.289  17.854  0.00  0.00    +0.000 C 
ENDROOT
BRANCH   6   7
ATOM      7  C   UNL     1       3.915   3.602  18.030  0.00  0.00    +0.000 A 
ATOM      8  C   UNL     1       2.723   4.085  17.474  0.00  0.00    +0.000 A 
ATOM      9  C   UNL     1       1.503   3.453  17.734  0.00  0.00    +0.000 A 
ATOM     10  C   UNL     1       1.457   2.319  18.540  0.00  0.00    +0.000 A 
ATOM     11  C   UNL     1       2.636   1.794  19.062  0.00  0.00    +0.000 A 
ATOM     12  C   UNL     1       3.853   2.425  18.801  0.00  0.00    +0.000 A 
ENDBRANCH   6   7
BRANCH   1  13
ATOM     13  C   UNL     1       5.231   4.039  15.352  0.00  0.00    +0.000 C 
BRANCH  13  15
ATOM     14  C   UNL     1       5.968   3.504  12.936  0.00  0.00    +0.000 C 
ATOM     15  C   UNL     1       6.125   4.424  14.146  0.00  0.00    +0.000 C 
ENDBRANCH  13  15
ENDBRANCH   1  13
BRANCH   5  16
ATOM     16  O   UNL     1       4.582   6.685  17.624  0.00  0.00    +0.000 OA
BRANCH  16  17
ATOM     17  C   UNL     1       3.490   7.278  18.218  0.00  0.00    +0.000 A 
ATOM     18  C   UNL     1       2.907   6.931  19.438  0.00  0.00    +0.000 A 
ATOM     19  C   UNL     1       1.878   7.711  19.985  0.00  0.00    +0.000 A 
ATOM     20  C   UNL     1       1.388   8.817  19.293  0.00  0.00    +0.000 A 
ATOM     21  C   UNL     1       1.918   9.130  18.042  0.00  0.00    +0.000 A 
ATOM     22  C   UNL     1       2.962   8.364  17.511  0.00  0.00    +0.000 A 
ENDBRANCH  16  17
ENDBRANCH   5  16
TORSDOF 5
ENDMDL
MODEL 8
REMARK VINA RESULT:      -7.1      1.508      4.583
REMARK  Name = 
REMARK  6 active torsions:
REMARK  status: ('A' for Active; 'I' for Inactive)
REMARK    1  A    between atoms: C_1  and  C_2
REMARK    2  A    between atoms: C_2  and  C_3
REMARK    3  A    between atoms: C_3  and  N_4
REMARK    4  A    between atoms: C_8  and  O_9
REMARK    5  A    between atoms: O_9  and  C_10
REMARK    6  A    between atoms: C_16  and  C_17
REMARK                            x       y       z     vdW  Elec       q    Type
REMARK                         _______ _______ _______ _____ _____    ______ ____
ROOT
ATOM      1  N   UNL     1       6.292   4.138  16.355  0.00  0.00    +0.000 NA
ATOM      2  C   UNL     1       7.467   4.942  16.029  0.00  0.00    +0.000 C 
ATOM      3  O   UNL     1       7.331   6.326  16.304  0.00  0.00    +0.000 OA
ATOM      4  C   UNL     1       7.068   6.575  17.676  0.00  0.00    +0.000 C 
ATOM      5  C   UNL     1       5.679   6.045  18.032  0.00  0.00    +0.000 C 
ATOM      6  C   UNL     1       5.710   4.515  17.666  0.00  0.00    +0.000 C 
ENDROOT
BRANCH   6   7
ATOM      7  C   UNL     1       4.507   3.675  18.102  0.00  0.00    +0.000 A 
ATOM      8  C   UNL     1       4.438   2.998  19.328  0.00  0.00    +0.000 A 
ATOM      9  C   UNL     1       3.342   2.185  19.637  0.00  0.00    +0.000 A 
ATOM     10  C   UNL     1       2.291   2.048  18.733  0.00  0.00    +0.000 A 
ATOM     11  C   UNL     1       2.318   2.751  17.532  0.00  0.00    +0.000 A 
ATOM     12  C   UNL     1       3.411   3.563  17.225  0.00  0.00    +0.000 A 
ENDBRANCH   6   7
BRANCH   1  13
ATOM     13  C   UNL     1       5.373   3.984  15.230  0.00  0.00    +0.000 C 
BRANCH  13  15
ATOM     14  C   UNL     1       5.234   3.550  12.689  0.00  0.00    +0.000 C 
ATOM     15  C   UNL     1       6.104   3.993  13.864  0.00  0.00    +0.000 C 
ENDBRANCH  13  15
ENDBRANCH   1  13
BRANCH   5  16
ATOM     16  O   UNL     1       4.647   6.756  17.323  0.00  0.00    +0.000 OA
BRANCH  16  17
ATOM     17  C   UNL     1       3.562   7.247  18.013  0.00  0.00    +0.000 A 
ATOM     18  C   UNL     1       3.035   6.755  19.209  0.00  0.00    +0.000 A 
ATOM     19  C   UNL     1       2.006   7.440  19.871  0.00  0.00    +0.000 A 
ATOM     20  C   UNL     1       1.458   8.596  19.317  0.00  0.00    +0.000 A 
ATOM     21  C   UNL     1       1.932   9.055  18.089  0.00  0.00    +0.000 A 
ATOM     22  C   UNL     1       2.976   8.384  17.445  0.00  0.00    +0.000 A 
ENDBRANCH  16  17
ENDBRANCH   5  16
TORSDOF 5
ENDMDL
MODEL 9
REMARK VINA RESULT:      -7.1      2.167      5.457
REMARK  Name = 
REMARK  6 active torsions:
REMARK  status: ('A' for Active; 'I' for Inactive)
REMARK    1  A    between atoms: C_1  and  C_2
REMARK    2  A    between atoms: C_2  and  C_3
REMARK    3  A    between atoms: C_3  and  N_4
REMARK    4  A    between atoms: C_8  and  O_9
REMARK    5  A    between atoms: O_9  and  C_10
REMARK    6  A    between atoms: C_16  and  C_17
REMARK                            x       y       z     vdW  Elec       q    Type
REMARK                         _______ _______ _______ _____ _____    ______ ____
ROOT
ATOM      1  N   UNL     1       3.472   2.800  18.614  0.00  0.00    +0.000 NA
ATOM      2  C   UNL     1       2.079   2.407  18.416  0.00  0.00    +0.000 C 
ATOM      3  O   UNL     1       1.144   3.467  18.527  0.00  0.00    +0.000 OA
ATOM      4  C   UNL     1       1.388   4.495  17.580  0.00  0.00    +0.000 C 
ATOM      5  C   UNL     1       2.702   5.198  17.919  0.00  0.00    +0.000 C 
ATOM      6  C   UNL     1       3.795   4.065  17.911  0.00  0.00    +0.000 C 
ENDROOT
BRANCH   6   7
ATOM      7  C   UNL     1       5.255   4.512  18.025  0.00  0.00    +0.000 A 
ATOM      8  C   UNL     1       6.227   4.240  17.052  0.00  0.00    +0.000 A 
ATOM      9  C   UNL     1       7.561   4.610  17.250  0.00  0.00    +0.000 A 
ATOM     10  C   UNL     1       7.942   5.271  18.415  0.00  0.00    +0.000 A 
ATOM     11  C   UNL     1       6.983   5.593  19.371  0.00  0.00    +0.000 A 
ATOM     12  C   UNL     1       5.652   5.225  19.173  0.00  0.00    +0.000 A 
ENDBRANCH   6   7
BRANCH   1  13
ATOM     13  C   UNL     1       3.913   2.670  20.000  0.00  0.00    +0.000 C 
BRANCH  13  15
ATOM     14  C   UNL     1       2.297   3.689  21.737  0.00  0.00    +0.000 C 
ATOM     15  C   UNL     1       2.733   2.437  20.976  0.00  0.00    +0.000 C 
ENDBRANCH  13  15
ENDBRANCH   1  13
BRANCH   5  16
ATOM     16  O   UNL     1       2.626   5.875  19.187  0.00  0.00    +0.000 OA
BRANCH  16  17
ATOM     17  C   UNL     1       2.099   7.144  19.250  0.00  0.00    +0.000 A 
ATOM     18  C   UNL     1       1.505   7.753  20.358  0.00  0.00    +0.000 A 
ATOM     19  C   UNL     1       1.132   9.103  20.316  0.00  0.00    +0.000 A 
ATOM     20  C   UNL     1       1.301   9.846  19.148  0.00  0.00    +0.000 A 
ATOM     21  C   UNL     1       1.829   9.228  18.016  0.00  0.00    +0.000 A 
ATOM     22  C   UNL     1       2.224   7.887  18.070  0.00  0.00    +0.000 A 
ENDBRANCH  16  17
ENDBRANCH   5  16
TORSDOF 5
ENDMDL
