MODEL 1
REMARK VINA RESULT:      -8.0      0.000      0.000
REMARK  Name = 
REMARK  3 active torsions:
REMARK  status: ('A' for Active; 'I' for Inactive)
REMARK    1  A    between atoms: C_2  and  C_3
REMARK    2  A    between atoms: C_3  and  C_4
REMARK    3  A    between atoms: C_7  and  N_8
REMARK                            x       y       z     vdW  Elec       q    Type
REMARK                         _______ _______ _______ _____ _____    ______ ____
ROOT
ATOM      1  O   UNL     1       3.795   1.489  17.695  0.00  0.00    +0.000 OA
ATOM      2  C   UNL     1       3.671   2.724  17.674  0.00  0.00    +0.000 C 
ATOM      3  N   UNL     1       2.783   3.308  18.614  0.00  0.00    +0.000 N 
ATOM      4  C   UNL     1       2.091   2.274  19.428  0.00  0.00    +0.000 C 
ATOM      5  C   UNL     1       1.971   2.624  20.894  0.00  0.00    +0.000 C 
ATOM      6  C   UNL     1       1.072   3.818  20.959  0.00  0.00    +0.000 C 
ATOM      7  C   UNL     1       1.752   4.926  20.204  0.00  0.00    +0.000 A 
ATOM      8  C   UNL     1       1.616   6.209  20.769  0.00  0.00    +0.000 A 
ATOM      9  C   UNL     1       1.978   7.320  20.043  0.00  0.00    +0.000 A 
ATOM     10  C   UNL     1       2.430   7.133  18.736  0.00  0.00    +0.000 A 
ATOM     11  C   UNL     1       2.680   5.836  18.209  0.00  0.00    +0.000 A 
ATOM     12  C   UNL     1       2.425   4.687  18.961  0.00  0.00    +0.000 A 
ENDROOT
BRANCH   2  13
ATOM     13  C   UNL     1       4.463   3.465  16.591  0.00  0.00    +0.000 C 
BRANCH  13  14
ATOM     14  C   UNL     1       5.453   4.610  17.012  0.00  0.00    +0.000 A 
ATOM     15  C   UNL     1       6.487   4.505  17.975  0.00  0.00    +0.000 A 
ATOM     16  C   UNL     1       7.340   5.582  18.297  0.00  0.00    +0.000 A 
ATOM     17  C   UNL     1       7.190   6.787  17.619  0.00  0.00    +0.000 A 
ATOM     18  C   UNL     1       6.216   6.922  16.630  0.00  0.00    +0.000 A 
ATOM     19  C   UNL     1       5.359   5.840  16.330  0.00  0.00    +0.000 A 
BRANCH  17  20
ATOM     20  N   UNL     1       8.037   7.959  17.967  0.00  0.00    +0.000 N 
ATOM     21  O   UNL     1       8.701   7.882  19.006  0.00  0.00    +0.000 OA
ATOM     22  O   UNL     1       8.012   8.936  17.205  0.00  0.00    +0.000 OA
ENDBRANCH  17  20
ENDBRANCH  13  14
ENDBRANCH   2  13
TORSDOF 3
ENDMDL
MODEL 2
REMARK VINA RESULT:      -8.0      0.264      1.238
REMARK  Name = 
REMARK  3 active torsions:
REMARK  status: ('A' for Active; 'I' for Inactive)
REMARK    1  A    between atoms: C_2  and  C_3
REMARK    2  A    between atoms: C_3  and  C_4
REMARK    3  A    between atoms: C_7  and  N_8
REMARK                            x       y       z     vdW  Elec       q    Type
REMARK                         _______ _______ _______ _____ _____    ______ ____
ROOT
ATOM      1  O   UNL     1       3.677   1.329  17.882  0.00  0.00    +0.000 OA
ATOM      2  C   UNL     1       3.565   2.562  17.784  0.00  0.00    +0.000 C 
ATOM      3  N   UNL     1       2.725   3.218  18.721  0.00  0.00    +0.000 N 
ATOM      4  C   UNL     1       2.060   2.250  19.633  0.00  0.00    +0.000 C 
ATOM      5  C   UNL     1       2.011   2.698  21.076  0.00  0.00    +0.000 C 
ATOM      6  C   UNL     1       1.127   3.905  21.100  0.00  0.00    +0.000 C 
ATOM      7  C   UNL     1       1.784   4.952  20.243  0.00  0.00    +0.000 A 
ATOM      8  C   UNL     1       1.685   6.271  20.727  0.00  0.00    +0.000 A 
ATOM      9  C   UNL     1       2.026   7.327  19.912  0.00  0.00    +0.000 A 
ATOM     10  C   UNL     1       2.416   7.048  18.602  0.00  0.00    +0.000 A 
ATOM     11  C   UNL     1       2.630   5.715  18.153  0.00  0.00    +0.000 A 
ATOM     12  C   UNL     1       2.397   4.622  18.990  0.00  0.00    +0.000 A 
ENDROOT
BRANCH   2  13
ATOM     13  C   UNL     1       4.314   3.219  16.620  0.00  0.00    +0.000 C 
BRANCH  13  14
ATOM     14  C   UNL     1       5.243   4.453  16.904  0.00  0.00    +0.000 A 
ATOM     15  C   UNL     1       5.338   5.624  16.112  0.00  0.00    +0.000 A 
ATOM     16  C   UNL     1       6.198   6.695  16.437  0.00  0.00    +0.000 A 
ATOM     17  C   UNL     1       6.958   6.622  17.599  0.00  0.00    +0.000 A 
ATOM     18  C   UNL     1       6.861   5.509  18.435  0.00  0.00    +0.000 A 
ATOM     19  C   UNL     1       6.009   4.437  18.088  0.00  0.00    +0.000 A 
BRANCH  17  20
ATOM     20  N   UNL     1       7.912   7.709  17.947  0.00  0.00    +0.000 N 
ATOM     21  O   UNL     1       7.943   8.688  17.195  0.00  0.00    +0.000 OA
ATOM     22  O   UNL     1       8.619   7.556  18.954  0.00  0.00    +0.000 OA
ENDBRANCH  17  20
ENDBRANCH  13  14
ENDBRANCH   2  13
TORSDOF 3
ENDMDL
MODEL 3
REMARK VINA RESULT:      -7.7      4.041      6.036
REMARK  Name = 
REMARK  3 active torsions:
REMARK  status: ('A' for Active; 'I' for Inactive)
REMARK    1  A    between atoms: C_2  and  C_3
REMARK    2  A    between atoms: C_3  and  C_4
REMARK    3  A    between atoms: C_7  and  N_8
REMARK                            x       y       z     vdW  Elec       q    Type
REMARK                         _______ _______ _______ _____ _____    ______ ____
ROOT
ATOM      1  O   UNL     1       4.410   7.586  17.335  0.00  0.00    +0.000 OA
ATOM      2  C   UNL     1       3.443   7.000  17.849  0.00  0.00    +0.000 C 
ATOM      3  N   UNL     1       3.666   5.693  18.355  0.00  0.00    +0.000 N 
ATOM      4  C   UNL     1       5.057   5.235  18.098  0.00  0.00    +0.000 C 
ATOM      5  C   UNL     1       5.687   4.500  19.259  0.00  0.00    +0.000 C 
ATOM      6  C   UNL     1       4.900   3.239  19.422  0.00  0.00    +0.000 C 
ATOM      7  C   UNL     1       3.488   3.637  19.752  0.00  0.00    +0.000 A 
ATOM      8  C   UNL     1       2.842   2.823  20.703  0.00  0.00    +0.000 A 
ATOM      9  C   UNL     1       1.484   2.939  20.895  0.00  0.00    +0.000 A 
ATOM     10  C   UNL     1       0.781   3.840  20.093  0.00  0.00    +0.000 A 
ATOM     11  C   UNL     1       1.448   4.743  19.221  0.00  0.00    +0.000 A 
ATOM     12  C   UNL     1       2.838   4.726  19.083  0.00  0.00    +0.000 A 
ENDROOT
BRANCH   2  13
ATOM     13  C   UNL     1       2.107   7.749  17.823  0.00  0.00    +0.000 C 
BRANCH  13  14
ATOM     14  C   UNL     1       1.572   8.410  19.145  0.00  0.00    +0.000 A 
ATOM     15  C   UNL     1       1.731   7.897  20.455  0.00  0.00    +0.000 A 
ATOM     16  C   UNL     1       1.222   8.553  21.597  0.00  0.00    +0.000 A 
ATOM     17  C   UNL     1       0.569   9.771  21.440  0.00  0.00    +0.000 A 
ATOM     18  C   UNL     1       0.430  10.337  20.173  0.00  0.00    +0.000 A 
ATOM     19  C   UNL     1       0.931   9.660  19.038  0.00  0.00    +0.000 A 
BRANCH  17  20
ATOM     20  N   UNL     1      -0.024  10.466  22.613  0.00  0.00    +0.000 N 
ATOM     21  O   UNL     1       0.109   9.921  23.713  0.00  0.00    +0.000 OA
ATOM     22  O   UNL     1      -0.621  11.533  22.411  0.00  0.00    +0.000 OA
ENDBRANCH  17  20
ENDBRANCH  13  14
ENDBRANCH   2  13
TORSDOF 3
ENDMDL
MODEL 4
REMARK VINA RESULT:      -7.5      3.759      5.639
REMARK  Name = 
REMARK  3 active torsions:
REMARK  status: ('A' for Active; 'I' for Inactive)
REMARK    1  A    between atoms: C_2  and  C_3
REMARK    2  A    between atoms: C_3  and  C_4
REMARK    3  A    between atoms: C_7  and  N_8
REMARK                            x       y       z     vdW  Elec       q    Type
REMARK                         _______ _______ _______ _____ _____    ______ ____
ROOT
ATOM      1  O   UNL     1       2.118   9.170  17.252  0.00  0.00    +0.000 OA
ATOM      2  C   UNL     1       1.833   8.860  18.420  0.00  0.00    +0.000 C 
ATOM      3  N   UNL     1       1.315   9.881  19.259  0.00  0.00    +0.000 N 
ATOM      4  C   UNL     1       1.280  11.195  18.564  0.00  0.00    +0.000 C 
ATOM      5  C   UNL     1       0.025  11.996  18.828  0.00  0.00    +0.000 C 
ATOM      6  C   UNL     1       0.057  12.341  20.283  0.00  0.00    +0.000 C 
ATOM      7  C   UNL     1       0.026  11.045  21.045  0.00  0.00    +0.000 A 
ATOM      8  C   UNL     1      -0.751  11.058  22.220  0.00  0.00    +0.000 A 
ATOM      9  C   UNL     1      -0.653  10.021  23.119  0.00  0.00    +0.000 A 
ATOM     10  C   UNL     1       0.263   9.002  22.850  0.00  0.00    +0.000 A 
ATOM     11  C   UNL     1       0.957   8.928  21.611  0.00  0.00    +0.000 A 
ATOM     12  C   UNL     1       0.797   9.910  20.630  0.00  0.00    +0.000 A 
ENDROOT
BRANCH   2  13
ATOM     13  C   UNL     1       2.127   7.412  18.826  0.00  0.00    +0.000 C 
BRANCH  13  14
ATOM     14  C   UNL     1       3.492   6.758  18.403  0.00  0.00    +0.000 A 
ATOM     15  C   UNL     1       4.222   7.045  17.224  0.00  0.00    +0.000 A 
ATOM     16  C   UNL     1       5.446   6.414  16.915  0.00  0.00    +0.000 A 
ATOM     17  C   UNL     1       5.982   5.501  17.817  0.00  0.00    +0.000 A 
ATOM     18  C   UNL     1       5.322   5.223  19.013  0.00  0.00    +0.000 A 
ATOM     19  C   UNL     1       4.088   5.850  19.301  0.00  0.00    +0.000 A 
BRANCH  17  20
ATOM     20  N   UNL     1       7.245   4.781  17.501  0.00  0.00    +0.000 N 
ATOM     21  O   UNL     1       7.928   4.404  18.457  0.00  0.00    +0.000 OA
ATOM     22  O   UNL     1       7.533   4.618  16.307  0.00  0.00    +0.000 OA
ENDBRANCH  17  20
ENDBRANCH  13  14
ENDBRANCH   2  13
TORSDOF 3
ENDMDL
MODEL 5
REMARK VINA RESULT:      -7.5      3.008      3.850
REMARK  Name = 
REMARK  3 active torsions:
REMARK  status: ('A' for Active; 'I' for Inactive)
REMARK    1  A    between atoms: C_2  and  C_3
REMARK    2  A    between atoms: C_3  and  C_4
REMARK    3  A    between atoms: C_7  and  N_8
REMARK                            x       y       z     vdW  Elec       q    Type
REMARK                         _______ _______ _______ _____ _____    ______ ____
ROOT
ATOM      1  O   UNL     1       5.540   3.385  19.463  0.00  0.00    +0.000 OA
ATOM      2  C   UNL     1       5.199   4.473  18.973  0.00  0.00    +0.000 C 
ATOM      3  N   UNL     1       3.898   4.949  19.280  0.00  0.00    +0.000 N 
ATOM      4  C   UNL     1       3.140   3.975  20.108  0.00  0.00    +0.000 C 
ATOM      5  C   UNL     1       2.336   4.608  21.221  0.00  0.00    +0.000 C 
ATOM      6  C   UNL     1       1.283   5.431  20.550  0.00  0.00    +0.000 C 
ATOM      7  C   UNL     1       1.991   6.484  19.744  0.00  0.00    +0.000 A 
ATOM      8  C   UNL     1       1.377   7.752  19.743  0.00  0.00    +0.000 A 
ATOM      9  C   UNL     1       1.793   8.714  18.851  0.00  0.00    +0.000 A 
ATOM     10  C   UNL     1       2.789   8.375  17.934  0.00  0.00    +0.000 A 
ATOM     11  C   UNL     1       3.489   7.139  18.013  0.00  0.00    +0.000 A 
ATOM     12  C   UNL     1       3.165   6.183  18.978  0.00  0.00    +0.000 A 
ENDROOT
BRANCH   2  13
ATOM     13  C   UNL     1       6.218   5.147  18.047  0.00  0.00    +0.000 C 
BRANCH  13  14
ATOM     14  C   UNL     1       6.243   4.763  16.524  0.00  0.00    +0.000 A 
ATOM     15  C   UNL     1       7.200   5.192  15.573  0.00  0.00    +0.000 A 
ATOM     16  C   UNL     1       7.156   4.800  14.218  0.00  0.00    +0.000 A 
ATOM     17  C   UNL     1       6.157   3.927  13.800  0.00  0.00    +0.000 A 
ATOM     18  C   UNL     1       5.221   3.440  14.712  0.00  0.00    +0.000 A 
ATOM     19  C   UNL     1       5.268   3.856  16.062  0.00  0.00    +0.000 A 
BRANCH  17  20
ATOM     20  N   UNL     1       6.050   3.532  12.370  0.00  0.00    +0.000 N 
ATOM     21  O   UNL     1       7.107   3.352  11.758  0.00  0.00    +0.000 OA
ATOM     22  O   UNL     1       4.914   3.422  11.886  0.00  0.00    +0.000 OA
ENDBRANCH  17  20
ENDBRANCH  13  14
ENDBRANCH   2  13
TORSDOF 3
ENDMDL
MODEL 6
REMARK VINA RESULT:      -7.4      3.984      6.131
REMARK  Name = 
REMARK  3 active torsions:
REMARK  status: ('A' for Active; 'I' for Inactive)
REMARK    1  A    between atoms: C_2  and  C_3
REMARK    2  A    between atoms: C_3  and  C_4
REMARK    3  A    between atoms: C_7  and  N_8
REMARK                            x       y       z     vdW  Elec       q    Type
REMARK                         _______ _______ _______ _____ _____    ______ ____
ROOT
ATOM      1  O   UNL     1       4.499   7.716  17.341  0.00  0.00    +0.000 OA
ATOM      2  C   UNL     1       3.523   7.092  17.787  0.00  0.00    +0.000 C 
ATOM      3  N   UNL     1       3.756   5.783  18.283  0.00  0.00    +0.000 N 
ATOM      4  C   UNL     1       5.173   5.372  18.100  0.00  0.00    +0.000 C 
ATOM      5  C   UNL     1       5.758   4.635  19.284  0.00  0.00    +0.000 C 
ATOM      6  C   UNL     1       5.002   3.348  19.379  0.00  0.00    +0.000 C 
ATOM      7  C   UNL     1       3.562   3.697  19.633  0.00  0.00    +0.000 A 
ATOM      8  C   UNL     1       2.887   2.847  20.531  0.00  0.00    +0.000 A 
ATOM      9  C   UNL     1       1.518   2.918  20.645  0.00  0.00    +0.000 A 
ATOM     10  C   UNL     1       0.835   3.812  19.819  0.00  0.00    +0.000 A 
ATOM     11  C   UNL     1       1.523   4.751  19.002  0.00  0.00    +0.000 A 
ATOM     12  C   UNL     1       2.918   4.778  18.946  0.00  0.00    +0.000 A 
ENDROOT
BRANCH   2  13
ATOM     13  C   UNL     1       2.168   7.801  17.696  0.00  0.00    +0.000 C 
BRANCH  13  14
ATOM     14  C   UNL     1       1.570   8.482  18.980  0.00  0.00    +0.000 A 
ATOM     15  C   UNL     1       0.789   9.663  19.009  0.00  0.00    +0.000 A 
ATOM     16  C   UNL     1       0.285  10.213  20.207  0.00  0.00    +0.000 A 
ATOM     17  C   UNL     1       0.528   9.553  21.407  0.00  0.00    +0.000 A 
ATOM     18  C   UNL     1       1.251   8.361  21.421  0.00  0.00    +0.000 A 
ATOM     19  C   UNL     1       1.765   7.832  20.216  0.00  0.00    +0.000 A 
BRANCH  17  20
ATOM     20  N   UNL     1       0.055  10.130  22.694  0.00  0.00    +0.000 N 
ATOM     21  O   UNL     1      -0.819  10.999  22.631  0.00  0.00    +0.000 OA
ATOM     22  O   UNL     1       0.575   9.712  23.739  0.00  0.00    +0.000 OA
ENDBRANCH  17  20
ENDBRANCH  13  14
ENDBRANCH   2  13
TORSDOF 3
ENDMDL
MODEL 7
REMARK VINA RESULT:      -7.3      3.795      5.733
REMARK  Name = 
REMARK  3 active torsions:
REMARK  status: ('A' for Active; 'I' for Inactive)
REMARK    1  A    between atoms: C_2  and  C_3
REMARK    2  A    between atoms: C_3  and  C_4
REMARK    3  A    between atoms: C_7  and  N_8
REMARK                            x       y       z     vdW  Elec       q    Type
REMARK                         _______ _______ _______ _____ _____    ______ ____
ROOT
ATOM      1  O   UNL     1       2.005   9.059  17.260  0.00  0.00    +0.000 OA
ATOM      2  C   UNL     1       1.818   8.824  18.465  0.00  0.00    +0.000 C 
ATOM      3  N   UNL     1       1.197   9.838  19.239  0.00  0.00    +0.000 N 
ATOM      4  C   UNL     1       0.944  11.063  18.436  0.00  0.00    +0.000 C 
ATOM      5  C   UNL     1      -0.400  11.704  18.698  0.00  0.00    +0.000 C 
ATOM      6  C   UNL     1      -0.355  12.186  20.114  0.00  0.00    +0.000 C 
ATOM      7  C   UNL     1      -0.166  10.976  20.987  0.00  0.00    +0.000 A 
ATOM      8  C   UNL     1      -0.885  10.993  22.198  0.00  0.00    +0.000 A 
ATOM      9  C   UNL     1      -0.601  10.068  23.177  0.00  0.00    +0.000 A 
ATOM     10  C   UNL     1       0.439   9.166  22.947  0.00  0.00    +0.000 A 
ATOM     11  C   UNL     1       1.082   9.072  21.682  0.00  0.00    +0.000 A 
ATOM     12  C   UNL     1       0.740   9.925  20.630  0.00  0.00    +0.000 A 
ENDROOT
BRANCH   2  13
ATOM     13  C   UNL     1       2.334   7.476  18.979  0.00  0.00    +0.000 C 
BRANCH  13  14
ATOM     14  C   UNL     1       3.350   6.658  18.103  0.00  0.00    +0.000 A 
ATOM     15  C   UNL     1       3.232   5.291  17.750  0.00  0.00    +0.000 A 
ATOM     16  C   UNL     1       4.189   4.625  16.954  0.00  0.00    +0.000 A 
ATOM     17  C   UNL     1       5.274   5.343  16.462  0.00  0.00    +0.000 A 
ATOM     18  C   UNL     1       5.405   6.702  16.744  0.00  0.00    +0.000 A 
ATOM     19  C   UNL     1       4.448   7.351  17.556  0.00  0.00    +0.000 A 
BRANCH  17  20
ATOM     20  N   UNL     1       6.327   4.663  15.662  0.00  0.00    +0.000 N 
ATOM     21  O   UNL     1       7.288   5.350  15.303  0.00  0.00    +0.000 OA
ATOM     22  O   UNL     1       6.167   3.462  15.398  0.00  0.00    +0.000 OA
ENDBRANCH  17  20
ENDBRANCH  13  14
ENDBRANCH   2  13
TORSDOF 3
ENDMDL
MODEL 8
REMARK VINA RESULT:      -7.3      3.053      5.702
REMARK  Name = 
REMARK  3 active torsions:
REMARK  status: ('A' for Active; 'I' for Inactive)
REMARK    1  A    between atoms: C_2  and  C_3
REMARK    2  A    between atoms: C_3  and  C_4
REMARK    3  A    between atoms: C_7  and  N_8
REMARK                            x       y       z     vdW  Elec       q    Type
REMARK                         _______ _______ _______ _____ _____    ______ ____
ROOT
ATOM      1  O   UNL     1       2.554   3.151  16.649  0.00  0.00    +0.000 OA
ATOM      2  C   UNL     1       3.304   3.708  17.466  0.00  0.00    +0.000 C 
ATOM      3  N   UNL     1       4.608   4.056  17.026  0.00  0.00    +0.000 N 
ATOM      4  C   UNL     1       4.854   3.602  15.631  0.00  0.00    +0.000 C 
ATOM      5  C   UNL     1       5.592   4.609  14.778  0.00  0.00    +0.000 C 
ATOM      6  C   UNL     1       6.956   4.734  15.379  0.00  0.00    +0.000 C 
ATOM      7  C   UNL     1       6.777   5.255  16.778  0.00  0.00    +0.000 A 
ATOM      8  C   UNL     1       7.746   6.188  17.199  0.00  0.00    +0.000 A 
ATOM      9  C   UNL     1       7.828   6.540  18.527  0.00  0.00    +0.000 A 
ATOM     10  C   UNL     1       6.965   5.913  19.427  0.00  0.00    +0.000 A 
ATOM     11  C   UNL     1       5.912   5.065  18.988  0.00  0.00    +0.000 A 
ATOM     12  C   UNL     1       5.733   4.773  17.634  0.00  0.00    +0.000 A 
ENDROOT
BRANCH   2  13
ATOM     13  C   UNL     1       2.740   3.905  18.877  0.00  0.00    +0.000 C 
BRANCH  13  14
ATOM     14  C   UNL     1       2.367   5.353  19.360  0.00  0.00    +0.000 A 
ATOM     15  C   UNL     1       2.569   6.551  18.632  0.00  0.00    +0.000 A 
ATOM     16  C   UNL     1       2.204   7.818  19.135  0.00  0.00    +0.000 A 
ATOM     17  C   UNL     1       1.586   7.898  20.379  0.00  0.00    +0.000 A 
ATOM     18  C   UNL     1       1.324   6.740  21.110  0.00  0.00    +0.000 A 
ATOM     19  C   UNL     1       1.711   5.480  20.601  0.00  0.00    +0.000 A 
BRANCH  17  20
ATOM     20  N   UNL     1       1.233   9.220  20.962  0.00  0.00    +0.000 N 
ATOM     21  O   UNL     1       0.701  10.041  20.208  0.00  0.00    +0.000 OA
ATOM     22  O   UNL     1       1.507   9.416  22.155  0.00  0.00    +0.000 OA
ENDBRANCH  17  20
ENDBRANCH  13  14
ENDBRANCH   2  13
TORSDOF 3
ENDMDL
MODEL 9
REMARK VINA RESULT:      -7.3      3.000      5.539
REMARK  Name = 
REMARK  3 active torsions:
REMARK  status: ('A' for Active; 'I' for Inactive)
REMARK    1  A    between atoms: C_2  and  C_3
REMARK    2  A    between atoms: C_3  and  C_4
REMARK    3  A    between atoms: C_7  and  N_8
REMARK                            x       y       z     vdW  Elec       q    Type
REMARK                         _______ _______ _______ _____ _____    ______ ____
ROOT
ATOM      1  O   UNL     1       2.469   3.050  16.694  0.00  0.00    +0.000 OA
ATOM      2  C   UNL     1       3.225   3.589  17.519  0.00  0.00    +0.000 C 
ATOM      3  N   UNL     1       4.528   3.940  17.079  0.00  0.00    +0.000 N 
ATOM      4  C   UNL     1       4.766   3.512  15.676  0.00  0.00    +0.000 C 
ATOM      5  C   UNL     1       5.505   4.532  14.839  0.00  0.00    +0.000 C 
ATOM      6  C   UNL     1       6.872   4.639  15.436  0.00  0.00    +0.000 C 
ATOM      7  C   UNL     1       6.702   5.135  16.846  0.00  0.00    +0.000 A 
ATOM      8  C   UNL     1       7.676   6.055  17.280  0.00  0.00    +0.000 A 
ATOM      9  C   UNL     1       7.765   6.381  18.613  0.00  0.00    +0.000 A 
ATOM     10  C   UNL     1       6.904   5.741  19.506  0.00  0.00    +0.000 A 
ATOM     11  C   UNL     1       5.845   4.906  19.055  0.00  0.00    +0.000 A 
ATOM     12  C   UNL     1       5.659   4.641  17.696  0.00  0.00    +0.000 A 
ENDROOT
BRANCH   2  13
ATOM     13  C   UNL     1       2.668   3.761  18.936  0.00  0.00    +0.000 C 
BRANCH  13  14
ATOM     14  C   UNL     1       2.249   5.193  19.428  0.00  0.00    +0.000 A 
ATOM     15  C   UNL     1       1.663   5.506  20.679  0.00  0.00    +0.000 A 
ATOM     16  C   UNL     1       1.316   6.823  21.049  0.00  0.00    +0.000 A 
ATOM     17  C   UNL     1       1.593   7.866  20.172  0.00  0.00    +0.000 A 
ATOM     18  C   UNL     1       2.213   7.611  18.949  0.00  0.00    +0.000 A 
ATOM     19  C   UNL     1       2.538   6.285  18.585  0.00  0.00    +0.000 A 
BRANCH  17  20
ATOM     20  N   UNL     1       1.196   9.259  20.507  0.00  0.00    +0.000 N 
ATOM     21  O   UNL     1       1.300   9.602  21.688  0.00  0.00    +0.000 OA
ATOM     22  O   UNL     1       0.776   9.977  19.587  0.00  0.00    +0.000 OA
ENDBRANCH  17  20
ENDBRANCH  13  14
ENDBRANCH   2  13
TORSDOF 3
ENDMDL
