MODEL 1
REMARK VINA RESULT:      -8.1      0.000      0.000
REMARK  Name = 
REMARK  6 active torsions:
REMARK  status: ('A' for Active; 'I' for Inactive)
REMARK    1  A    between atoms: C_1  and  N_2
REMARK    2  A    between atoms: C_3  and  C_5
REMARK    3  A    between atoms: C_9  and  N_10
REMARK    4  A    between atoms: C_15  and  N_16
REMARK    5  A    between atoms: C_18  and  O_19
REMARK    6  A    between atoms: O_19  and  C_20
REMARK                            x       y       z     vdW  Elec       q    Type
REMARK                         _______ _______ _______ _____ _____    ______ ____
ROOT
ATOM      1  N   UNL     1       3.862   5.488  18.862  0.00  0.00    +0.000 N 
ATOM      2  C   UNL     1       3.139   6.683  18.941  0.00  0.00    +0.000 A 
ATOM      3  N   UNL     1       3.254   7.566  17.931  0.00  0.00    +0.000 NA
ATOM      4  C   UNL     1       2.533   8.690  18.002  0.00  0.00    +0.000 A 
ATOM      5  C   UNL     1       1.696   8.967  19.046  0.00  0.00    +0.000 A 
ATOM      6  C   UNL     1       1.628   8.021  20.053  0.00  0.00    +0.000 A 
ATOM      7  N   UNL     1       2.357   6.885  20.014  0.00  0.00    +0.000 NA
ATOM      8  H   UNL     1       3.786   4.986  19.738  0.00  0.00    +0.000 HD
ENDROOT
BRANCH   1  13
ATOM      9  C   UNL     1       6.299   4.944  16.095  0.00  0.00    +0.000 A 
ATOM     10  C   UNL     1       7.496   4.856  16.810  0.00  0.00    +0.000 A 
ATOM     11  C   UNL     1       7.488   5.020  18.197  0.00  0.00    +0.000 A 
ATOM     12  C   UNL     1       6.285   5.256  18.873  0.00  0.00    +0.000 A 
ATOM     13  C   UNL     1       5.076   5.315  18.173  0.00  0.00    +0.000 A 
ATOM     14  C   UNL     1       5.107   5.209  16.777  0.00  0.00    +0.000 A 
BRANCH   9  17
ATOM     15  C   UNL     1       7.546   5.111  12.525  0.00  0.00    +0.000 C 
ATOM     16  N   UNL     1       7.449   5.184  13.959  0.00  0.00    +0.000 N 
ATOM     17  C   UNL     1       6.314   4.751  14.617  0.00  0.00    +0.000 C 
ATOM     18  O   UNL     1       5.346   4.263  14.044  0.00  0.00    +0.000 OA
ATOM     19  H   UNL     1       8.110   5.772  14.449  0.00  0.00    +0.000 HD
ENDBRANCH   9  17
ENDBRANCH   1  13
BRANCH   6  20
ATOM     20  N   UNL     1       0.774   8.300  21.151  0.00  0.00    +0.000 N 
ATOM     21  C   UNL     1      -0.480   8.993  21.076  0.00  0.00    +0.000 C 
ATOM     22  C   UNL     1      -0.053   9.878  22.256  0.00  0.00    +0.000 C 
ATOM     23  C   UNL     1       1.217   9.020  22.313  0.00  0.00    +0.000 C 
BRANCH  22  24
ATOM     24  O   UNL     1       0.090  11.283  21.936  0.00  0.00    +0.000 OA
BRANCH  24  25
ATOM     25  C   UNL     1      -0.805  12.189  22.445  0.00  0.00    +0.000 A 
ATOM     26  C   UNL     1      -0.390  13.525  22.384  0.00  0.00    +0.000 A 
ATOM     27  C   UNL     1      -1.204  14.545  22.884  0.00  0.00    +0.000 A 
ATOM     28  C   UNL     1      -2.436  14.227  23.451  0.00  0.00    +0.000 A 
ATOM     29 CL   UNL     1      -3.431  15.481  24.081  0.00  0.00    +0.000 Cl
ATOM     30  C   UNL     1      -2.847  12.897  23.503  0.00  0.00    +0.000 A 
ATOM     31  F   UNL     1      -4.029  12.566  24.045  0.00  0.00    +0.000 F 
ATOM     32  C   UNL     1      -2.041  11.875  23.000  0.00  0.00    +0.000 A 
ENDBRANCH  24  25
ENDBRANCH  22  24
ENDBRANCH   6  20
TORSDOF 5
ENDMDL
MODEL 2
REMARK VINA RESULT:      -8.1      0.819      1.199
REMARK  Name = 
REMARK  6 active torsions:
REMARK  status: ('A' for Active; 'I' for Inactive)
REMARK    1  A    between atoms: C_1  and  N_2
REMARK    2  A    between atoms: C_3  and  C_5
REMARK    3  A    between atoms: C_9  and  N_10
REMARK    4  A    between atoms: C_15  and  N_16
REMARK    5  A    between atoms: C_18  and  O_19
REMARK    6  A    between atoms: O_19  and  C_20
REMARK                            x       y       z     vdW  Elec       q    Type
REMARK                         _______ _______ _______ _____ _____    ______ ____
ROOT
ATOM      1  N   UNL     1       3.890   5.484  18.965  0.00  0.00    +0.000 N 
ATOM      2  C   UNL     1       3.146   6.667  19.012  0.00  0.00    +0.000 A 
ATOM      3  N   UNL     1       3.239   7.522  17.976  0.00  0.00    +0.000 NA
ATOM      4  C   UNL     1       2.498   8.635  18.018  0.00  0.00    +0.000 A 
ATOM      5  C   UNL     1       1.662   8.928  19.059  0.00  0.00    +0.000 A 
ATOM      6  C   UNL     1       1.618   8.012  20.094  0.00  0.00    +0.000 A 
ATOM      7  N   UNL     1       2.367   6.888  20.084  0.00  0.00    +0.000 NA
ATOM      8  H   UNL     1       3.828   5.008  19.856  0.00  0.00    +0.000 HD
ENDROOT
BRANCH   1  13
ATOM      9  C   UNL     1       6.320   4.918  16.196  0.00  0.00    +0.000 A 
ATOM     10  C   UNL     1       7.520   4.855  16.908  0.00  0.00    +0.000 A 
ATOM     11  C   UNL     1       7.517   5.042  18.292  0.00  0.00    +0.000 A 
ATOM     12  C   UNL     1       6.315   5.278  18.968  0.00  0.00    +0.000 A 
ATOM     13  C   UNL     1       5.102   5.312  18.273  0.00  0.00    +0.000 A 
ATOM     14  C   UNL     1       5.128   5.182  16.879  0.00  0.00    +0.000 A 
BRANCH   9  17
ATOM     15  C   UNL     1       7.546   5.042  12.617  0.00  0.00    +0.000 C 
ATOM     16  N   UNL     1       7.456   5.138  14.050  0.00  0.00    +0.000 N 
ATOM     17  C   UNL     1       6.331   4.700  14.722  0.00  0.00    +0.000 C 
ATOM     18  O   UNL     1       5.368   4.187  14.163  0.00  0.00    +0.000 OA
ATOM     19  H   UNL     1       8.109   5.745  14.527  0.00  0.00    +0.000 HD
ENDBRANCH   9  17
ENDBRANCH   1  13
BRANCH   6  20
ATOM     20  N   UNL     1       0.765   8.309  21.189  0.00  0.00    +0.000 N 
ATOM     21  C   UNL     1      -0.503   8.971  21.101  0.00  0.00    +0.000 C 
ATOM     22  C   UNL     1      -0.087   9.903  22.248  0.00  0.00    +0.000 C 
ATOM     23  C   UNL     1       1.201   9.076  22.324  0.00  0.00    +0.000 C 
BRANCH  22  24
ATOM     24  O   UNL     1       0.023  11.300  21.881  0.00  0.00    +0.000 OA
BRANCH  24  25
ATOM     25  C   UNL     1      -0.792  12.226  22.481  0.00  0.00    +0.000 A 
ATOM     26  C   UNL     1      -2.006  11.721  22.960  0.00  0.00    +0.000 A 
ATOM     27  C   UNL     1      -2.933  12.566  23.577  0.00  0.00    +0.000 A 
ATOM     28  C   UNL     1      -2.645  13.923  23.711  0.00  0.00    +0.000 A 
ATOM     29 CL   UNL     1      -3.792  14.965  24.456  0.00  0.00    +0.000 Cl
ATOM     30  C   UNL     1      -1.432  14.418  23.238  0.00  0.00    +0.000 A 
ATOM     31  F   UNL     1      -1.134  15.721  23.356  0.00  0.00    +0.000 F 
ATOM     32  C   UNL     1      -0.501  13.579  22.627  0.00  0.00    +0.000 A 
ENDBRANCH  24  25
ENDBRANCH  22  24
ENDBRANCH   6  20
TORSDOF 5
ENDMDL
MODEL 3
REMARK VINA RESULT:      -8.0      1.210      1.300
REMARK  Name = 
REMARK  6 active torsions:
REMARK  status: ('A' for Active; 'I' for Inactive)
REMARK    1  A    between atoms: C_1  and  N_2
REMARK    2  A    between atoms: C_3  and  C_5
REMARK    3  A    between atoms: C_9  and  N_10
REMARK    4  A    between atoms: C_15  and  N_16
REMARK    5  A    between atoms: C_18  and  O_19
REMARK    6  A    between atoms: O_19  and  C_20
REMARK                            x       y       z     vdW  Elec       q    Type
REMARK                         _______ _______ _______ _____ _____    ______ ____
ROOT
ATOM      1  N   UNL     1       3.988   5.317  18.799  0.00  0.00    +0.000 N 
ATOM      2  C   UNL     1       3.244   6.497  18.896  0.00  0.00    +0.000 A 
ATOM      3  N   UNL     1       3.301   7.374  17.875  0.00  0.00    +0.000 NA
ATOM      4  C   UNL     1       2.561   8.484  17.966  0.00  0.00    +0.000 A 
ATOM      5  C   UNL     1       1.760   8.753  19.040  0.00  0.00    +0.000 A 
ATOM      6  C   UNL     1       1.752   7.816  20.057  0.00  0.00    +0.000 A 
ATOM      7  N   UNL     1       2.501   6.694  19.998  0.00  0.00    +0.000 NA
ATOM      8  H   UNL     1       3.957   4.821  19.681  0.00  0.00    +0.000 HD
ENDROOT
BRANCH   1  13
ATOM      9  C   UNL     1       6.327   4.865  15.932  0.00  0.00    +0.000 A 
ATOM     10  C   UNL     1       7.546   4.738  16.604  0.00  0.00    +0.000 A 
ATOM     11  C   UNL     1       7.585   4.845  17.996  0.00  0.00    +0.000 A 
ATOM     12  C   UNL     1       6.407   5.064  18.720  0.00  0.00    +0.000 A 
ATOM     13  C   UNL     1       5.176   5.161  18.063  0.00  0.00    +0.000 A 
ATOM     14  C   UNL     1       5.161   5.112  16.663  0.00  0.00    +0.000 A 
BRANCH   9  17
ATOM     15  C   UNL     1       5.218   3.660  12.519  0.00  0.00    +0.000 C 
ATOM     16  N   UNL     1       5.304   3.916  13.933  0.00  0.00    +0.000 N 
ATOM     17  C   UNL     1       6.293   4.733  14.448  0.00  0.00    +0.000 C 
ATOM     18  O   UNL     1       7.127   5.303  13.754  0.00  0.00    +0.000 OA
ATOM     19  H   UNL     1       4.793   3.307  14.557  0.00  0.00    +0.000 HD
ENDBRANCH   9  17
ENDBRANCH   1  13
BRANCH   6  20
ATOM     20  N   UNL     1       0.936   8.087  21.185  0.00  0.00    +0.000 N 
ATOM     21  C   UNL     1      -0.425   8.536  21.140  0.00  0.00    +0.000 C 
ATOM     22  C   UNL     1      -0.090   9.631  22.162  0.00  0.00    +0.000 C 
ATOM     23  C   UNL     1       1.316   9.022  22.208  0.00  0.00    +0.000 C 
BRANCH  22  24
ATOM     24  O   UNL     1      -0.228  10.984  21.665  0.00  0.00    +0.000 OA
BRANCH  24  25
ATOM     25  C   UNL     1      -1.396  11.671  21.881  0.00  0.00    +0.000 A 
ATOM     26  C   UNL     1      -1.919  12.313  20.753  0.00  0.00    +0.000 A 
ATOM     27  C   UNL     1      -3.097  13.061  20.843  0.00  0.00    +0.000 A 
ATOM     28  C   UNL     1      -3.750  13.170  22.068  0.00  0.00    +0.000 A 
ATOM     29 CL   UNL     1      -5.190  14.103  22.184  0.00  0.00    +0.000 Cl
ATOM     30  C   UNL     1      -3.228  12.524  23.187  0.00  0.00    +0.000 A 
ATOM     31  F   UNL     1      -3.839  12.616  24.378  0.00  0.00    +0.000 F 
ATOM     32  C   UNL     1      -2.057  11.771  23.101  0.00  0.00    +0.000 A 
ENDBRANCH  24  25
ENDBRANCH  22  24
ENDBRANCH   6  20
TORSDOF 5
ENDMDL
MODEL 4
REMARK VINA RESULT:      -8.0      4.439      9.930
REMARK  Name = 
REMARK  6 active torsions:
REMARK  status: ('A' for Active; 'I' for Inactive)
REMARK    1  A    between atoms: C_1  and  N_2
REMARK    2  A    between atoms: C_3  and  C_5
REMARK    3  A    between atoms: C_9  and  N_10
REMARK    4  A    between atoms: C_15  and  N_16
REMARK    5  A    between atoms: C_18  and  O_19
REMARK    6  A    between atoms: O_19  and  C_20
REMARK                            x       y       z     vdW  Elec       q    Type
REMARK                         _______ _______ _______ _____ _____    ______ ____
ROOT
ATOM      1  N   UNL     1       1.495   8.207  21.651  0.00  0.00    +0.000 N 
ATOM      2  C   UNL     1       1.796   7.678  20.392  0.00  0.00    +0.000 A 
ATOM      3  N   UNL     1       1.834   8.517  19.339  0.00  0.00    +0.000 NA
ATOM      4  C   UNL     1       2.153   8.004  18.146  0.00  0.00    +0.000 A 
ATOM      5  C   UNL     1       2.441   6.681  17.962  0.00  0.00    +0.000 A 
ATOM      6  C   UNL     1       2.378   5.873  19.082  0.00  0.00    +0.000 A 
ATOM      7  N   UNL     1       2.043   6.361  20.296  0.00  0.00    +0.000 NA
ATOM      8  H   UNL     1       1.372   7.454  22.316  0.00  0.00    +0.000 HD
ENDROOT
BRANCH   1  13
ATOM      9  C   UNL     1       0.203  11.697  21.447  0.00  0.00    +0.000 A 
ATOM     10  C   UNL     1      -0.776  11.674  22.444  0.00  0.00    +0.000 A 
ATOM     11  C   UNL     1      -1.025  10.492  23.145  0.00  0.00    +0.000 A 
ATOM     12  C   UNL     1      -0.289   9.336  22.861  0.00  0.00    +0.000 A 
ATOM     13  C   UNL     1       0.715   9.353  21.888  0.00  0.00    +0.000 A 
ATOM     14  C   UNL     1       0.912  10.529  21.153  0.00  0.00    +0.000 A 
BRANCH   9  17
ATOM     15  C   UNL     1       0.927  15.372  20.904  0.00  0.00    +0.000 C 
ATOM     16  N   UNL     1       0.721  14.079  21.500  0.00  0.00    +0.000 N 
ATOM     17  C   UNL     1       0.473  12.967  20.717  0.00  0.00    +0.000 C 
ATOM     18  O   UNL     1       0.440  12.999  19.492  0.00  0.00    +0.000 OA
ATOM     19  H   UNL     1       0.519  14.039  22.489  0.00  0.00    +0.000 HD
ENDBRANCH   9  17
ENDBRANCH   1  13
BRANCH   6  20
ATOM     20  N   UNL     1       2.660   4.493  18.905  0.00  0.00    +0.000 N 
ATOM     21  C   UNL     1       3.911   3.855  19.193  0.00  0.00    +0.000 C 
ATOM     22  C   UNL     1       3.868   3.169  17.821  0.00  0.00    +0.000 C 
ATOM     23  C   UNL     1       2.494   3.825  17.644  0.00  0.00    +0.000 C 
BRANCH  22  24
ATOM     24  O   UNL     1       4.929   3.561  16.916  0.00  0.00    +0.000 OA
BRANCH  24  25
ATOM     25  C   UNL     1       5.693   4.663  17.202  0.00  0.00    +0.000 A 
ATOM     26  C   UNL     1       5.368   5.811  16.470  0.00  0.00    +0.000 A 
ATOM     27  C   UNL     1       6.082   6.998  16.655  0.00  0.00    +0.000 A 
ATOM     28  C   UNL     1       7.130   7.035  17.574  0.00  0.00    +0.000 A 
ATOM     29 CL   UNL     1       8.020   8.491  17.790  0.00  0.00    +0.000 Cl
ATOM     30  C   UNL     1       7.445   5.891  18.303  0.00  0.00    +0.000 A 
ATOM     31  F   UNL     1       8.450   5.903  19.193  0.00  0.00    +0.000 F 
ATOM     32  C   UNL     1       6.731   4.706  18.128  0.00  0.00    +0.000 A 
ENDBRANCH  24  25
ENDBRANCH  22  24
ENDBRANCH   6  20
TORSDOF 5
ENDMDL
MODEL 5
REMARK VINA RESULT:      -7.9      2.602      3.881
REMARK  Name = 
REMARK  6 active torsions:
REMARK  status: ('A' for Active; 'I' for Inactive)
REMARK    1  A    between atoms: C_1  and  N_2
REMARK    2  A    between atoms: C_3  and  C_5
REMARK    3  A    between atoms: C_9  and  N_10
REMARK    4  A    between atoms: C_15  and  N_16
REMARK    5  A    between atoms: C_18  and  O_19
REMARK    6  A    between atoms: O_19  and  C_20
REMARK                            x       y       z     vdW  Elec       q    Type
REMARK                         _______ _______ _______ _____ _____    ______ ____
ROOT
ATOM      1  N   UNL     1       3.170   8.085  17.681  0.00  0.00    +0.000 N 
ATOM      2  C   UNL     1       2.251   8.428  18.678  0.00  0.00    +0.000 A 
ATOM      3  N   UNL     1       2.204   7.671  19.790  0.00  0.00    +0.000 NA
ATOM      4  C   UNL     1       1.344   8.028  20.750  0.00  0.00    +0.000 A 
ATOM      5  C   UNL     1       0.527   9.118  20.643  0.00  0.00    +0.000 A 
ATOM      6  C   UNL     1       0.620   9.849  19.473  0.00  0.00    +0.000 A 
ATOM      7  N   UNL     1       1.469   9.502  18.482  0.00  0.00    +0.000 NA
ATOM      8  H   UNL     1       3.006   8.651  16.857  0.00  0.00    +0.000 HD
ENDROOT
BRANCH   1  13
ATOM      9  C   UNL     1       3.420   4.367  17.603  0.00  0.00    +0.000 A 
ATOM     10  C   UNL     1       4.686   4.200  17.035  0.00  0.00    +0.000 A 
ATOM     11  C   UNL     1       5.425   5.319  16.645  0.00  0.00    +0.000 A 
ATOM     12  C   UNL     1       4.908   6.606  16.836  0.00  0.00    +0.000 A 
ATOM     13  C   UNL     1       3.657   6.789  17.432  0.00  0.00    +0.000 A 
ATOM     14  C   UNL     1       2.903   5.656  17.763  0.00  0.00    +0.000 A 
BRANCH   9  17
ATOM     15  C   UNL     1       0.541   2.326  18.971  0.00  0.00    +0.000 C 
ATOM     16  N   UNL     1       1.356   3.401  18.469  0.00  0.00    +0.000 N 
ATOM     17  C   UNL     1       2.646   3.168  18.031  0.00  0.00    +0.000 C 
ATOM     18  O   UNL     1       3.163   2.057  18.014  0.00  0.00    +0.000 OA
ATOM     19  H   UNL     1       1.067   4.349  18.668  0.00  0.00    +0.000 HD
ENDBRANCH   9  17
ENDBRANCH   1  13
BRANCH   6  20
ATOM     20  N   UNL     1      -0.232  10.976  19.341  0.00  0.00    +0.000 N 
ATOM     21  C   UNL     1      -0.099  12.210  20.059  0.00  0.00    +0.000 C 
ATOM     22  C   UNL     1      -1.595  12.163  20.400  0.00  0.00    +0.000 C 
ATOM     23  C   UNL     1      -1.654  10.898  19.536  0.00  0.00    +0.000 C 
BRANCH  22  24
ATOM     24  O   UNL     1      -1.889  12.035  21.813  0.00  0.00    +0.000 OA
BRANCH  24  25
ATOM     25  C   UNL     1      -3.123  12.402  22.286  0.00  0.00    +0.000 A 
ATOM     26  C   UNL     1      -3.272  12.311  23.675  0.00  0.00    +0.000 A 
ATOM     27  C   UNL     1      -4.488  12.641  24.281  0.00  0.00    +0.000 A 
ATOM     28  C   UNL     1      -5.559  13.059  23.495  0.00  0.00    +0.000 A 
ATOM     29 CL   UNL     1      -7.059  13.449  24.239  0.00  0.00    +0.000 Cl
ATOM     30  C   UNL     1      -5.402  13.154  22.114  0.00  0.00    +0.000 A 
ATOM     31  F   UNL     1      -6.420  13.553  21.336  0.00  0.00    +0.000 F 
ATOM     32  C   UNL     1      -4.190  12.832  21.503  0.00  0.00    +0.000 A 
ENDBRANCH  24  25
ENDBRANCH  22  24
ENDBRANCH   6  20
TORSDOF 5
ENDMDL
MODEL 6
REMARK VINA RESULT:      -7.9      6.770      9.174
REMARK  Name = 
REMARK  6 active torsions:
REMARK  status: ('A' for Active; 'I' for Inactive)
REMARK    1  A    between atoms: C_1  and  N_2
REMARK    2  A    between atoms: C_3  and  C_5
REMARK    3  A    between atoms: C_9  and  N_10
REMARK    4  A    between atoms: C_15  and  N_16
REMARK    5  A    between atoms: C_18  and  O_19
REMARK    6  A    between atoms: O_19  and  C_20
REMARK                            x       y       z     vdW  Elec       q    Type
REMARK                         _______ _______ _______ _____ _____    ______ ____
ROOT
ATOM      1  N   UNL     1       4.077  14.363  17.687  0.00  0.00    +0.000 N 
ATOM      2  C   UNL     1       3.257  13.684  18.594  0.00  0.00    +0.000 A 
ATOM      3  N   UNL     1       3.122  14.188  19.835  0.00  0.00    +0.000 NA
ATOM      4  C   UNL     1       2.311  13.546  20.683  0.00  0.00    +0.000 A 
ATOM      5  C   UNL     1       1.623  12.418  20.337  0.00  0.00    +0.000 A 
ATOM      6  C   UNL     1       1.811  11.948  19.049  0.00  0.00    +0.000 A 
ATOM      7  N   UNL     1       2.636  12.567  18.178  0.00  0.00    +0.000 NA
ATOM      8  H   UNL     1       4.191  13.808  16.848  0.00  0.00    +0.000 HD
ENDROOT
BRANCH   1  13
ATOM      9  C   UNL     1       7.589  15.478  18.251  0.00  0.00    +0.000 A 
ATOM     10  C   UNL     1       7.378  16.735  18.822  0.00  0.00    +0.000 A 
ATOM     11  C   UNL     1       6.077  17.218  18.977  0.00  0.00    +0.000 A 
ATOM     12  C   UNL     1       4.985  16.440  18.574  0.00  0.00    +0.000 A 
ATOM     13  C   UNL     1       5.180  15.167  18.030  0.00  0.00    +0.000 A 
ATOM     14  C   UNL     1       6.492  14.722  17.827  0.00  0.00    +0.000 A 
BRANCH   9  17
ATOM     15  C   UNL     1      11.136  15.206  16.957  0.00  0.00    +0.000 C 
ATOM     16  N   UNL     1       9.795  15.653  17.228  0.00  0.00    +0.000 N 
ATOM     17  C   UNL     1       8.981  14.964  18.106  0.00  0.00    +0.000 C 
ATOM     18  O   UNL     1       9.342  13.967  18.721  0.00  0.00    +0.000 OA
ATOM     19  H   UNL     1       9.381  16.322  16.593  0.00  0.00    +0.000 HD
ENDBRANCH   9  17
ENDBRANCH   1  13
BRANCH   6  20
ATOM     20  N   UNL     1       1.114  10.769  18.679  0.00  0.00    +0.000 N 
ATOM     21  C   UNL     1       0.595   9.788  19.588  0.00  0.00    +0.000 C 
ATOM     22  C   UNL     1       1.235   8.678  18.743  0.00  0.00    +0.000 C 
ATOM     23  C   UNL     1       1.669   9.791  17.783  0.00  0.00    +0.000 C 
BRANCH  22  24
ATOM     24  O   UNL     1       2.269   7.923  19.420  0.00  0.00    +0.000 OA
BRANCH  24  25
ATOM     25  C   UNL     1       2.202   6.554  19.450  0.00  0.00    +0.000 A 
ATOM     26  C   UNL     1       2.504   5.921  18.239  0.00  0.00    +0.000 A 
ATOM     27  C   UNL     1       2.456   4.528  18.133  0.00  0.00    +0.000 A 
ATOM     28  C   UNL     1       2.100   3.766  19.242  0.00  0.00    +0.000 A 
ATOM     29 CL   UNL     1       2.024   2.053  19.108  0.00  0.00    +0.000 Cl
ATOM     30  C   UNL     1       1.806   4.400  20.447  0.00  0.00    +0.000 A 
ATOM     31  F   UNL     1       1.459   3.686  21.529  0.00  0.00    +0.000 F 
ATOM     32  C   UNL     1       1.858   5.789  20.561  0.00  0.00    +0.000 A 
ENDBRANCH  24  25
ENDBRANCH  22  24
ENDBRANCH   6  20
TORSDOF 5
ENDMDL
MODEL 7
REMARK VINA RESULT:      -7.9      1.377      1.529
REMARK  Name = 
REMARK  6 active torsions:
REMARK  status: ('A' for Active; 'I' for Inactive)
REMARK    1  A    between atoms: C_1  and  N_2
REMARK    2  A    between atoms: C_3  and  C_5
REMARK    3  A    between atoms: C_9  and  N_10
REMARK    4  A    between atoms: C_15  and  N_16
REMARK    5  A    between atoms: C_18  and  O_19
REMARK    6  A    between atoms: O_19  and  C_20
REMARK                            x       y       z     vdW  Elec       q    Type
REMARK                         _______ _______ _______ _____ _____    ______ ____
ROOT
ATOM      1  N   UNL     1       3.818   5.428  18.553  0.00  0.00    +0.000 N 
ATOM      2  C   UNL     1       3.106   6.615  18.751  0.00  0.00    +0.000 A 
ATOM      3  N   UNL     1       3.083   7.520  17.753  0.00  0.00    +0.000 NA
ATOM      4  C   UNL     1       2.374   8.637  17.942  0.00  0.00    +0.000 A 
ATOM      5  C   UNL     1       1.681   8.887  19.092  0.00  0.00    +0.000 A 
ATOM      6  C   UNL     1       1.751   7.922  20.080  0.00  0.00    +0.000 A 
ATOM      7  N   UNL     1       2.472   6.792  19.922  0.00  0.00    +0.000 NA
ATOM      8  H   UNL     1       3.860   4.908  19.421  0.00  0.00    +0.000 HD
ENDROOT
BRANCH   1  13
ATOM      9  C   UNL     1       5.882   4.646  15.550  0.00  0.00    +0.000 A 
ATOM     10  C   UNL     1       7.169   4.867  16.049  0.00  0.00    +0.000 A 
ATOM     11  C   UNL     1       7.336   5.311  17.363  0.00  0.00    +0.000 A 
ATOM     12  C   UNL     1       6.222   5.523  18.183  0.00  0.00    +0.000 A 
ATOM     13  C   UNL     1       4.930   5.276  17.706  0.00  0.00    +0.000 A 
ATOM     14  C   UNL     1       4.775   4.888  16.369  0.00  0.00    +0.000 A 
BRANCH   9  17
ATOM     15  C   UNL     1       6.839   3.427  12.096  0.00  0.00    +0.000 C 
ATOM     16  N   UNL     1       6.877   3.844  13.474  0.00  0.00    +0.000 N 
ATOM     17  C   UNL     1       5.714   4.156  14.153  0.00  0.00    +0.000 C 
ATOM     18  O   UNL     1       4.598   4.075  13.653  0.00  0.00    +0.000 OA
ATOM     19  H   UNL     1       7.765   4.138  13.856  0.00  0.00    +0.000 HD
ENDBRANCH   9  17
ENDBRANCH   1  13
BRANCH   6  20
ATOM     20  N   UNL     1       1.048   8.173  21.287  0.00  0.00    +0.000 N 
ATOM     21  C   UNL     1      -0.299   8.655  21.381  0.00  0.00    +0.000 C 
ATOM     22  C   UNL     1       0.156   9.706  22.403  0.00  0.00    +0.000 C 
ATOM     23  C   UNL     1       1.544   9.063  22.300  0.00  0.00    +0.000 C 
BRANCH  22  24
ATOM     24  O   UNL     1       0.009  11.078  21.964  0.00  0.00    +0.000 OA
BRANCH  24  25
ATOM     25  C   UNL     1      -1.226  11.674  21.998  0.00  0.00    +0.000 A 
ATOM     26  C   UNL     1      -1.831  11.706  23.260  0.00  0.00    +0.000 A 
ATOM     27  C   UNL     1      -3.098  12.272  23.426  0.00  0.00    +0.000 A 
ATOM     28  C   UNL     1      -3.765  12.804  22.325  0.00  0.00    +0.000 A 
ATOM     29 CL   UNL     1      -5.331  13.485  22.526  0.00  0.00    +0.000 Cl
ATOM     30  C   UNL     1      -3.155  12.775  21.072  0.00  0.00    +0.000 A 
ATOM     31  F   UNL     1      -3.778  13.280  19.997  0.00  0.00    +0.000 F 
ATOM     32  C   UNL     1      -1.888  12.218  20.901  0.00  0.00    +0.000 A 
ENDBRANCH  24  25
ENDBRANCH  22  24
ENDBRANCH   6  20
TORSDOF 5
ENDMDL
MODEL 8
REMARK VINA RESULT:      -7.9      5.793     11.939
REMARK  Name = 
REMARK  6 active torsions:
REMARK  status: ('A' for Active; 'I' for Inactive)
REMARK    1  A    between atoms: C_1  and  N_2
REMARK    2  A    between atoms: C_3  and  C_5
REMARK    3  A    between atoms: C_9  and  N_10
REMARK    4  A    between atoms: C_15  and  N_16
REMARK    5  A    between atoms: C_18  and  O_19
REMARK    6  A    between atoms: O_19  and  C_20
REMARK                            x       y       z     vdW  Elec       q    Type
REMARK                         _______ _______ _______ _____ _____    ______ ____
ROOT
ATOM      1  N   UNL     1      -3.286  12.488  19.465  0.00  0.00    +0.000 N 
ATOM      2  C   UNL     1      -2.573  11.502  18.777  0.00  0.00    +0.000 A 
ATOM      3  N   UNL     1      -3.197  10.837  17.786  0.00  0.00    +0.000 NA
ATOM      4  C   UNL     1      -2.495   9.918  17.114  0.00  0.00    +0.000 A 
ATOM      5  C   UNL     1      -1.187   9.638  17.392  0.00  0.00    +0.000 A 
ATOM      6  C   UNL     1      -0.607  10.351  18.426  0.00  0.00    +0.000 A 
ATOM      7  N   UNL     1      -1.297  11.273  19.130  0.00  0.00    +0.000 NA
ATOM      8  H   UNL     1      -2.745  12.808  20.259  0.00  0.00    +0.000 HD
ENDROOT
BRANCH   1  13
ATOM      9  C   UNL     1      -6.636  12.546  21.099  0.00  0.00    +0.000 A 
ATOM     10  C   UNL     1      -7.474  12.450  19.986  0.00  0.00    +0.000 A 
ATOM     11  C   UNL     1      -6.922  12.409  18.703  0.00  0.00    +0.000 A 
ATOM     12  C   UNL     1      -5.534  12.449  18.532  0.00  0.00    +0.000 A 
ATOM     13  C   UNL     1      -4.682  12.513  19.639  0.00  0.00    +0.000 A 
ATOM     14  C   UNL     1      -5.251  12.614  20.915  0.00  0.00    +0.000 A 
BRANCH   9  17
ATOM     15  C   UNL     1      -7.917  13.964  24.367  0.00  0.00    +0.000 C 
ATOM     16  N   UNL     1      -7.412  13.821  23.026  0.00  0.00    +0.000 N 
ATOM     17  C   UNL     1      -7.233  12.572  22.464  0.00  0.00    +0.000 C 
ATOM     18  O   UNL     1      -7.508  11.526  23.042  0.00  0.00    +0.000 OA
ATOM     19  H   UNL     1      -6.967  14.622  22.599  0.00  0.00    +0.000 HD
ENDBRANCH   9  17
ENDBRANCH   1  13
BRANCH   6  20
ATOM     20  N   UNL     1       0.747  10.061  18.737  0.00  0.00    +0.000 N 
ATOM     21  C   UNL     1       1.787   9.817  17.780  0.00  0.00    +0.000 C 
ATOM     22  C   UNL     1       2.208   8.569  18.568  0.00  0.00    +0.000 C 
ATOM     23  C   UNL     1       1.129   8.964  19.583  0.00  0.00    +0.000 C 
BRANCH  22  24
ATOM     24  O   UNL     1       2.045   7.320  17.854  0.00  0.00    +0.000 OA
BRANCH  24  25
ATOM     25  C   UNL     1       2.703   6.198  18.289  0.00  0.00    +0.000 A 
ATOM     26  C   UNL     1       1.953   5.018  18.238  0.00  0.00    +0.000 A 
ATOM     27  C   UNL     1       2.502   3.807  18.669  0.00  0.00    +0.000 A 
ATOM     28  C   UNL     1       3.807   3.778  19.156  0.00  0.00    +0.000 A 
ATOM     29 CL   UNL     1       4.478   2.291  19.701  0.00  0.00    +0.000 Cl
ATOM     30  C   UNL     1       4.551   4.955  19.199  0.00  0.00    +0.000 A 
ATOM     31  F   UNL     1       5.809   4.952  19.665  0.00  0.00    +0.000 F 
ATOM     32  C   UNL     1       4.010   6.165  18.765  0.00  0.00    +0.000 A 
ENDBRANCH  24  25
ENDBRANCH  22  24
ENDBRANCH   6  20
TORSDOF 5
ENDMDL
MODEL 9
REMARK VINA RESULT:      -7.8      4.613      9.955
REMARK  Name = 
REMARK  6 active torsions:
REMARK  status: ('A' for Active; 'I' for Inactive)
REMARK    1  A    between atoms: C_1  and  N_2
REMARK    2  A    between atoms: C_3  and  C_5
REMARK    3  A    between atoms: C_9  and  N_10
REMARK    4  A    between atoms: C_15  and  N_16
REMARK    5  A    between atoms: C_18  and  O_19
REMARK    6  A    between atoms: O_19  and  C_20
REMARK                            x       y       z     vdW  Elec       q    Type
REMARK                         _______ _______ _______ _____ _____    ______ ____
ROOT
ATOM      1  N   UNL     1       1.151   9.848  17.692  0.00  0.00    +0.000 N 
ATOM      2  C   UNL     1       1.912   8.778  18.173  0.00  0.00    +0.000 A 
ATOM      3  N   UNL     1       1.503   8.157  19.296  0.00  0.00    +0.000 NA
ATOM      4  C   UNL     1       2.223   7.116  19.729  0.00  0.00    +0.000 A 
ATOM      5  C   UNL     1       3.337   6.666  19.079  0.00  0.00    +0.000 A 
ATOM      6  C   UNL     1       3.707   7.352  17.936  0.00  0.00    +0.000 A 
ATOM      7  N   UNL     1       3.008   8.416  17.486  0.00  0.00    +0.000 NA
ATOM      8  H   UNL     1       1.640  10.298  16.929  0.00  0.00    +0.000 HD
ENDROOT
BRANCH   1  13
ATOM      9  C   UNL     1      -1.810  11.715  18.972  0.00  0.00    +0.000 A 
ATOM     10  C   UNL     1      -1.222  12.481  19.982  0.00  0.00    +0.000 A 
ATOM     11  C   UNL     1       0.140  12.341  20.256  0.00  0.00    +0.000 A 
ATOM     12  C   UNL     1       0.919  11.447  19.513  0.00  0.00    +0.000 A 
ATOM     13  C   UNL     1       0.351  10.697  18.478  0.00  0.00    +0.000 A 
ATOM     14  C   UNL     1      -1.028  10.805  18.255  0.00  0.00    +0.000 A 
BRANCH   9  17
ATOM     15  C   UNL     1      -5.002  11.907  16.946  0.00  0.00    +0.000 C 
ATOM     16  N   UNL     1      -3.638  11.702  17.360  0.00  0.00    +0.000 N 
ATOM     17  C   UNL     1      -3.261  11.885  18.676  0.00  0.00    +0.000 C 
ATOM     18  O   UNL     1      -4.044  12.199  19.566  0.00  0.00    +0.000 OA
ATOM     19  H   UNL     1      -2.926  11.663  16.643  0.00  0.00    +0.000 HD
ENDBRANCH   9  17
ENDBRANCH   1  13
BRANCH   6  20
ATOM     20  N   UNL     1       4.871   6.906  17.258  0.00  0.00    +0.000 N 
ATOM     21  C   UNL     1       4.892   6.249  15.983  0.00  0.00    +0.000 C 
ATOM     22  C   UNL     1       5.828   5.178  16.559  0.00  0.00    +0.000 C 
ATOM     23  C   UNL     1       5.814   5.999  17.853  0.00  0.00    +0.000 C 
BRANCH  22  24
ATOM     24  O   UNL     1       5.268   3.843  16.595  0.00  0.00    +0.000 OA
BRANCH  24  25
ATOM     25  C   UNL     1       4.317   3.530  17.532  0.00  0.00    +0.000 A 
ATOM     26  C   UNL     1       2.994   3.647  17.091  0.00  0.00    +0.000 A 
ATOM     27  C   UNL     1       1.930   3.373  17.955  0.00  0.00    +0.000 A 
ATOM     28  C   UNL     1       2.191   2.984  19.267  0.00  0.00    +0.000 A 
ATOM     29 CL   UNL     1       0.882   2.662  20.335  0.00  0.00    +0.000 Cl
ATOM     30  C   UNL     1       3.510   2.864  19.699  0.00  0.00    +0.000 A 
ATOM     31  F   UNL     1       3.786   2.492  20.958  0.00  0.00    +0.000 F 
ATOM     32  C   UNL     1       4.576   3.130  18.839  0.00  0.00    +0.000 A 
ENDBRANCH  24  25
ENDBRANCH  22  24
ENDBRANCH   6  20
TORSDOF 5
ENDMDL
