MODEL 1
REMARK VINA RESULT:      -7.8      0.000      0.000
REMARK  Name = 
REMARK  6 active torsions:
REMARK  status: ('A' for Active; 'I' for Inactive)
REMARK    1  A    between atoms: C_1  and  C_2
REMARK    2  A    between atoms: C_2  and  C_3
REMARK    3  A    between atoms: C_8  and  C_9
REMARK    4  A    between atoms: C_13  and  O_14
REMARK    5  A    between atoms: O_14  and  C_15
REMARK    6  A    between atoms: C_22  and  O_23
REMARK                            x       y       z     vdW  Elec       q    Type
REMARK                         _______ _______ _______ _____ _____    ______ ____
ROOT
ATOM      1  C   UNL     1       6.298   5.220  17.250  0.00  0.00    +0.000 A 
ATOM      2  C   UNL     1       6.768   4.510  16.138  0.00  0.00    +0.000 A 
ATOM      3  C   UNL     1       5.965   3.546  15.528  0.00  0.00    +0.000 A 
ATOM      4  C   UNL     1       4.670   3.319  15.996  0.00  0.00    +0.000 A 
ATOM      5  C   UNL     1       4.185   4.047  17.084  0.00  0.00    +0.000 A 
ATOM      6  C   UNL     1       5.020   4.954  17.745  0.00  0.00    +0.000 A 
ENDROOT
BRANCH   1  12
ATOM      7  C   UNL     1       8.466   9.589  18.195  0.00  0.00    +0.000 C 
ATOM      8  C   UNL     1       8.099   8.308  18.290  0.00  0.00    +0.000 C 
ATOM      9  N   UNL     1       8.593   7.395  19.170  0.00  0.00    +0.000 N 
ATOM     10  C   UNL     1       8.051   6.143  18.968  0.00  0.00    +0.000 C 
ATOM     11  O   UNL     1       8.301   5.129  19.587  0.00  0.00    +0.000 OA
ATOM     12  C   UNL     1       7.095   6.283  17.834  0.00  0.00    +0.000 C 
ATOM     13  C   UNL     1       7.146   7.583  17.491  0.00  0.00    +0.000 C 
ATOM     14  H   UNL     1       9.278   7.570  19.887  0.00  0.00    +0.000 HD
BRANCH   7  16
ATOM     15  C   UNL     1      10.270  11.312  18.208  0.00  0.00    +0.000 C 
ATOM     16  C   UNL     1       9.500  10.287  19.029  0.00  0.00    +0.000 C 
ENDBRANCH   7  16
BRANCH  13  17
ATOM     17  O   UNL     1       6.434   8.228  16.519  0.00  0.00    +0.000 OA
ATOM     18  H   UNL     1       5.904   8.922  16.949  0.00  0.00    +0.000 HD
ENDBRANCH  13  17
ENDBRANCH   1  12
BRANCH   5  19
ATOM     19  O   UNL     1       2.883   3.799  17.459  0.00  0.00    +0.000 OA
BRANCH  19  20
ATOM     20  C   UNL     1       2.600   3.608  18.796  0.00  0.00    +0.000 A 
ATOM     21  C   UNL     1       3.305   2.732  19.628  0.00  0.00    +0.000 A 
ATOM     22  C   UNL     1       2.909   2.554  20.954  0.00  0.00    +0.000 A 
ATOM     23  C   UNL     1       1.850   3.298  21.469  0.00  0.00    +0.000 A 
ATOM     24  C   UNL     1       1.192   4.226  20.662  0.00  0.00    +0.000 A 
ATOM     25  C   UNL     1       1.566   4.381  19.326  0.00  0.00    +0.000 A 
ENDBRANCH  19  20
ENDBRANCH   5  19
TORSDOF 5
ENDMDL
MODEL 2
REMARK VINA RESULT:      -7.7      0.112      1.010
REMARK  Name = 
REMARK  6 active torsions:
REMARK  status: ('A' for Active; 'I' for Inactive)
REMARK    1  A    between atoms: C_1  and  C_2
REMARK    2  A    between atoms: C_2  and  C_3
REMARK    3  A    between atoms: C_8  and  C_9
REMARK    4  A    between atoms: C_13  and  O_14
REMARK    5  A    between atoms: O_14  and  C_15
REMARK    6  A    between atoms: C_22  and  O_23
REMARK                            x       y       z     vdW  Elec       q    Type
REMARK                         _______ _______ _______ _____ _____    ______ ____
ROOT
ATOM      1  C   UNL     1       6.284   5.223  17.229  0.00  0.00    +0.000 A 
ATOM      2  C   UNL     1       6.757   4.513  16.120  0.00  0.00    +0.000 A 
ATOM      3  C   UNL     1       5.948   3.561  15.496  0.00  0.00    +0.000 A 
ATOM      4  C   UNL     1       4.647   3.347  15.951  0.00  0.00    +0.000 A 
ATOM      5  C   UNL     1       4.158   4.077  17.036  0.00  0.00    +0.000 A 
ATOM      6  C   UNL     1       4.997   4.971  17.710  0.00  0.00    +0.000 A 
ENDROOT
BRANCH   1  12
ATOM      7  C   UNL     1       8.489   9.564  18.220  0.00  0.00    +0.000 C 
ATOM      8  C   UNL     1       8.109   8.285  18.303  0.00  0.00    +0.000 C 
ATOM      9  N   UNL     1       8.588   7.362  19.180  0.00  0.00    +0.000 N 
ATOM     10  C   UNL     1       8.034   6.117  18.965  0.00  0.00    +0.000 C 
ATOM     11  O   UNL     1       8.270   5.096  19.579  0.00  0.00    +0.000 OA
ATOM     12  C   UNL     1       7.088   6.274  17.826  0.00  0.00    +0.000 C 
ATOM     13  C   UNL     1       7.154   7.576  17.492  0.00  0.00    +0.000 C 
ATOM     14  H   UNL     1       9.269   7.524  19.902  0.00  0.00    +0.000 HD
BRANCH   7  16
ATOM     15  C   UNL     1      10.165  11.409  18.322  0.00  0.00    +0.000 C 
ATOM     16  C   UNL     1       9.524  10.246  19.065  0.00  0.00    +0.000 C 
ENDBRANCH   7  16
BRANCH  13  17
ATOM     17  O   UNL     1       6.455   8.235  16.520  0.00  0.00    +0.000 OA
ATOM     18  H   UNL     1       7.071   8.434  15.793  0.00  0.00    +0.000 HD
ENDBRANCH  13  17
ENDBRANCH   1  12
BRANCH   5  19
ATOM     19  O   UNL     1       2.850   3.843  17.397  0.00  0.00    +0.000 OA
BRANCH  19  20
ATOM     20  C   UNL     1       2.547   3.676  18.732  0.00  0.00    +0.000 A 
ATOM     21  C   UNL     1       1.505   4.340  19.389  0.00  0.00    +0.000 A 
ATOM     22  C   UNL     1       1.311   4.159  20.758  0.00  0.00    +0.000 A 
ATOM     23  C   UNL     1       2.115   3.264  21.462  0.00  0.00    +0.000 A 
ATOM     24  C   UNL     1       3.107   2.546  20.795  0.00  0.00    +0.000 A 
ATOM     25  C   UNL     1       3.324   2.751  19.431  0.00  0.00    +0.000 A 
ENDBRANCH  19  20
ENDBRANCH   5  19
TORSDOF 5
ENDMDL
MODEL 3
REMARK VINA RESULT:      -7.6      3.610      6.613
REMARK  Name = 
REMARK  6 active torsions:
REMARK  status: ('A' for Active; 'I' for Inactive)
REMARK    1  A    between atoms: C_1  and  C_2
REMARK    2  A    between atoms: C_2  and  C_3
REMARK    3  A    between atoms: C_8  and  C_9
REMARK    4  A    between atoms: C_13  and  O_14
REMARK    5  A    between atoms: O_14  and  C_15
REMARK    6  A    between atoms: C_22  and  O_23
REMARK                            x       y       z     vdW  Elec       q    Type
REMARK                         _______ _______ _______ _____ _____    ______ ____
ROOT
ATOM      1  C   UNL     1       2.595   6.131  18.254  0.00  0.00    +0.000 A 
ATOM      2  C   UNL     1       1.801   5.007  18.002  0.00  0.00    +0.000 A 
ATOM      3  C   UNL     1       2.351   3.881  17.387  0.00  0.00    +0.000 A 
ATOM      4  C   UNL     1       3.707   3.857  17.062  0.00  0.00    +0.000 A 
ATOM      5  C   UNL     1       4.511   4.964  17.340  0.00  0.00    +0.000 A 
ATOM      6  C   UNL     1       3.941   6.121  17.882  0.00  0.00    +0.000 A 
ENDROOT
BRANCH   1  12
ATOM      7  C   UNL     1       0.621   9.079  21.733  0.00  0.00    +0.000 C 
ATOM      8  C   UNL     1       1.144   8.650  20.581  0.00  0.00    +0.000 C 
ATOM      9  N   UNL     1       1.250   9.371  19.432  0.00  0.00    +0.000 N 
ATOM     10  C   UNL     1       1.780   8.620  18.403  0.00  0.00    +0.000 C 
ATOM     11  O   UNL     1       1.985   8.983  17.263  0.00  0.00    +0.000 OA
ATOM     12  C   UNL     1       2.050   7.270  18.972  0.00  0.00    +0.000 C 
ATOM     13  C   UNL     1       1.680   7.352  20.263  0.00  0.00    +0.000 C 
ATOM     14  H   UNL     1       0.977  10.331  19.304  0.00  0.00    +0.000 HD
BRANCH   7  16
ATOM     15  C   UNL     1      -0.927  10.396  23.179  0.00  0.00    +0.000 C 
ATOM     16  C   UNL     1       0.035  10.434  22.001  0.00  0.00    +0.000 C 
ENDBRANCH   7  16
BRANCH  13  17
ATOM     17  O   UNL     1       1.753   6.386  21.225  0.00  0.00    +0.000 OA
ATOM     18  H   UNL     1       2.504   6.599  21.806  0.00  0.00    +0.000 HD
ENDBRANCH  13  17
ENDBRANCH   1  12
BRANCH   5  19
ATOM     19  O   UNL     1       5.848   4.848  17.032  0.00  0.00    +0.000 OA
BRANCH  19  20
ATOM     20  C   UNL     1       6.740   5.740  17.590  0.00  0.00    +0.000 A 
ATOM     21  C   UNL     1       7.515   5.469  18.722  0.00  0.00    +0.000 A 
ATOM     22  C   UNL     1       8.344   6.455  19.256  0.00  0.00    +0.000 A 
ATOM     23  C   UNL     1       8.452   7.692  18.623  0.00  0.00    +0.000 A 
ATOM     24  C   UNL     1       7.735   7.939  17.452  0.00  0.00    +0.000 A 
ATOM     25  C   UNL     1       6.879   6.965  16.935  0.00  0.00    +0.000 A 
ENDBRANCH  19  20
ENDBRANCH   5  19
TORSDOF 5
ENDMDL
MODEL 4
REMARK VINA RESULT:      -7.6      4.897      7.143
REMARK  Name = 
REMARK  6 active torsions:
REMARK  status: ('A' for Active; 'I' for Inactive)
REMARK    1  A    between atoms: C_1  and  C_2
REMARK    2  A    between atoms: C_2  and  C_3
REMARK    3  A    between atoms: C_8  and  C_9
REMARK    4  A    between atoms: C_13  and  O_14
REMARK    5  A    between atoms: O_14  and  C_15
REMARK    6  A    between atoms: C_22  and  O_23
REMARK                            x       y       z     vdW  Elec       q    Type
REMARK                         _______ _______ _______ _____ _____    ______ ____
ROOT
ATOM      1  C   UNL     1       2.419   7.345  18.879  0.00  0.00    +0.000 A 
ATOM      2  C   UNL     1       2.070   7.106  20.213  0.00  0.00    +0.000 A 
ATOM      3  C   UNL     1       1.326   8.048  20.925  0.00  0.00    +0.000 A 
ATOM      4  C   UNL     1       0.889   9.213  20.293  0.00  0.00    +0.000 A 
ATOM      5  C   UNL     1       1.208   9.442  18.954  0.00  0.00    +0.000 A 
ATOM      6  C   UNL     1       2.022   8.535  18.266  0.00  0.00    +0.000 A 
ENDROOT
BRANCH   1  12
ATOM      7  C   UNL     1       5.707   4.927  16.046  0.00  0.00    +0.000 C 
ATOM      8  C   UNL     1       4.641   5.194  16.805  0.00  0.00    +0.000 C 
ATOM      9  N   UNL     1       3.598   4.354  17.046  0.00  0.00    +0.000 N 
ATOM     10  C   UNL     1       2.626   4.954  17.820  0.00  0.00    +0.000 C 
ATOM     11  O   UNL     1       1.580   4.463  18.191  0.00  0.00    +0.000 OA
ATOM     12  C   UNL     1       3.117   6.331  18.109  0.00  0.00    +0.000 C 
ATOM     13  C   UNL     1       4.318   6.408  17.508  0.00  0.00    +0.000 C 
ATOM     14  H   UNL     1       3.504   3.410  16.711  0.00  0.00    +0.000 HD
BRANCH   7  16
ATOM     15  C   UNL     1       6.022   3.898  13.795  0.00  0.00    +0.000 C 
ATOM     16  C   UNL     1       5.976   3.654  15.297  0.00  0.00    +0.000 C 
ENDBRANCH   7  16
BRANCH  13  17
ATOM     17  O   UNL     1       5.191   7.459  17.498  0.00  0.00    +0.000 OA
ATOM     18  H   UNL     1       5.765   7.363  16.718  0.00  0.00    +0.000 HD
ENDBRANCH  13  17
ENDBRANCH   1  12
BRANCH   5  19
ATOM     19  O   UNL     1       0.703  10.591  18.388  0.00  0.00    +0.000 OA
BRANCH  19  20
ATOM     20  C   UNL     1      -0.665  10.738  18.285  0.00  0.00    +0.000 A 
ATOM     21  C   UNL     1      -1.396  11.743  18.926  0.00  0.00    +0.000 A 
ATOM     22  C   UNL     1      -2.786  11.777  18.817  0.00  0.00    +0.000 A 
ATOM     23  C   UNL     1      -3.444  10.847  18.015  0.00  0.00    +0.000 A 
ATOM     24  C   UNL     1      -2.710   9.888  17.315  0.00  0.00    +0.000 A 
ATOM     25  C   UNL     1      -1.322   9.832  17.450  0.00  0.00    +0.000 A 
ENDBRANCH  19  20
ENDBRANCH   5  19
TORSDOF 5
ENDMDL
MODEL 5
REMARK VINA RESULT:      -7.6      4.873      7.080
REMARK  Name = 
REMARK  6 active torsions:
REMARK  status: ('A' for Active; 'I' for Inactive)
REMARK    1  A    between atoms: C_1  and  C_2
REMARK    2  A    between atoms: C_2  and  C_3
REMARK    3  A    between atoms: C_8  and  C_9
REMARK    4  A    between atoms: C_13  and  O_14
REMARK    5  A    between atoms: O_14  and  C_15
REMARK    6  A    between atoms: C_22  and  O_23
REMARK                            x       y       z     vdW  Elec       q    Type
REMARK                         _______ _______ _______ _____ _____    ______ ____
ROOT
ATOM      1  C   UNL     1       2.470   7.303  18.830  0.00  0.00    +0.000 A 
ATOM      2  C   UNL     1       2.143   7.054  20.168  0.00  0.00    +0.000 A 
ATOM      3  C   UNL     1       1.390   7.980  20.892  0.00  0.00    +0.000 A 
ATOM      4  C   UNL     1       0.922   9.138  20.269  0.00  0.00    +0.000 A 
ATOM      5  C   UNL     1       1.219   9.375  18.926  0.00  0.00    +0.000 A 
ATOM      6  C   UNL     1       2.041   8.487  18.225  0.00  0.00    +0.000 A 
ENDROOT
BRANCH   1  12
ATOM      7  C   UNL     1       5.763   4.959  15.940  0.00  0.00    +0.000 C 
ATOM      8  C   UNL     1       4.704   5.202  16.718  0.00  0.00    +0.000 C 
ATOM      9  N   UNL     1       3.686   4.339  16.980  0.00  0.00    +0.000 N 
ATOM     10  C   UNL     1       2.715   4.917  17.770  0.00  0.00    +0.000 C 
ATOM     11  O   UNL     1       1.687   4.401  18.161  0.00  0.00    +0.000 OA
ATOM     12  C   UNL     1       3.178   6.305  18.049  0.00  0.00    +0.000 C 
ATOM     13  C   UNL     1       4.366   6.410  17.426  0.00  0.00    +0.000 C 
ATOM     14  H   UNL     1       3.608   3.392  16.648  0.00  0.00    +0.000 HD
BRANCH   7  16
ATOM     15  C   UNL     1       5.831   3.878  13.693  0.00  0.00    +0.000 C 
ATOM     16  C   UNL     1       6.047   3.692  15.188  0.00  0.00    +0.000 C 
ENDBRANCH   7  16
BRANCH  13  17
ATOM     17  O   UNL     1       5.213   7.481  17.398  0.00  0.00    +0.000 OA
ATOM     18  H   UNL     1       5.915   7.290  16.753  0.00  0.00    +0.000 HD
ENDBRANCH  13  17
ENDBRANCH   1  12
BRANCH   5  19
ATOM     19  O   UNL     1       0.684  10.516  18.369  0.00  0.00    +0.000 OA
BRANCH  19  20
ATOM     20  C   UNL     1      -0.684  10.601  18.210  0.00  0.00    +0.000 A 
ATOM     21  C   UNL     1      -1.436   9.730  17.415  0.00  0.00    +0.000 A 
ATOM     22  C   UNL     1      -2.807   9.929  17.261  0.00  0.00    +0.000 A 
ATOM     23  C   UNL     1      -3.443  10.959  17.952  0.00  0.00    +0.000 A 
ATOM     24  C   UNL     1      -2.707  11.784  18.803  0.00  0.00    +0.000 A 
ATOM     25  C   UNL     1      -1.329  11.607  18.932  0.00  0.00    +0.000 A 
ENDBRANCH  19  20
ENDBRANCH   5  19
TORSDOF 5
ENDMDL
MODEL 6
REMARK VINA RESULT:      -7.6      3.840      6.836
REMARK  Name = 
REMARK  6 active torsions:
REMARK  status: ('A' for Active; 'I' for Inactive)
REMARK    1  A    between atoms: C_1  and  C_2
REMARK    2  A    between atoms: C_2  and  C_3
REMARK    3  A    between atoms: C_8  and  C_9
REMARK    4  A    between atoms: C_13  and  O_14
REMARK    5  A    between atoms: O_14  and  C_15
REMARK    6  A    between atoms: C_22  and  O_23
REMARK                            x       y       z     vdW  Elec       q    Type
REMARK                         _______ _______ _______ _____ _____    ______ ____
ROOT
ATOM      1  C   UNL     1       3.171   5.814  17.921  0.00  0.00    +0.000 A 
ATOM      2  C   UNL     1       2.564   4.554  17.863  0.00  0.00    +0.000 A 
ATOM      3  C   UNL     1       3.183   3.505  17.180  0.00  0.00    +0.000 A 
ATOM      4  C   UNL     1       4.433   3.699  16.591  0.00  0.00    +0.000 A 
ATOM      5  C   UNL     1       5.057   4.945  16.673  0.00  0.00    +0.000 A 
ATOM      6  C   UNL     1       4.399   6.016  17.287  0.00  0.00    +0.000 A 
ENDROOT
BRANCH   1  12
ATOM      7  C   UNL     1       1.077   8.462  21.566  0.00  0.00    +0.000 C 
ATOM      8  C   UNL     1       1.611   8.124  20.389  0.00  0.00    +0.000 C 
ATOM      9  N   UNL     1       1.670   8.910  19.280  0.00  0.00    +0.000 N 
ATOM     10  C   UNL     1       2.229   8.245  18.210  0.00  0.00    +0.000 C 
ATOM     11  O   UNL     1       2.405   8.679  17.089  0.00  0.00    +0.000 OA
ATOM     12  C   UNL     1       2.573   6.882  18.702  0.00  0.00    +0.000 C 
ATOM     13  C   UNL     1       2.211   6.875  19.998  0.00  0.00    +0.000 C 
ATOM     14  H   UNL     1       1.346   9.860  19.206  0.00  0.00    +0.000 HD
BRANCH   7  16
ATOM     15  C   UNL     1      -0.316   9.682  23.237  0.00  0.00    +0.000 C 
ATOM     16  C   UNL     1       0.424   9.768  21.910  0.00  0.00    +0.000 C 
ENDBRANCH   7  16
BRANCH  13  17
ATOM     17  O   UNL     1       2.342   5.863  20.906  0.00  0.00    +0.000 OA
ATOM     18  H   UNL     1       1.676   5.185  20.696  0.00  0.00    +0.000 HD
ENDBRANCH  13  17
ENDBRANCH   1  12
BRANCH   5  19
ATOM     19  O   UNL     1       6.309   5.046  16.107  0.00  0.00    +0.000 OA
BRANCH  19  20
ATOM     20  C   UNL     1       6.463   4.730  14.773  0.00  0.00    +0.000 A 
ATOM     21  C   UNL     1       5.612   3.873  14.067  0.00  0.00    +0.000 A 
ATOM     22  C   UNL     1       5.882   3.559  12.735  0.00  0.00    +0.000 A 
ATOM     23  C   UNL     1       6.963   4.150  12.086  0.00  0.00    +0.000 A 
ATOM     24  C   UNL     1       7.770   5.062  12.767  0.00  0.00    +0.000 A 
ATOM     25  C   UNL     1       7.522   5.352  14.109  0.00  0.00    +0.000 A 
ENDBRANCH  19  20
ENDBRANCH   5  19
TORSDOF 5
ENDMDL
MODEL 7
REMARK VINA RESULT:      -7.5      3.698      6.731
REMARK  Name = 
REMARK  6 active torsions:
REMARK  status: ('A' for Active; 'I' for Inactive)
REMARK    1  A    between atoms: C_1  and  C_2
REMARK    2  A    between atoms: C_2  and  C_3
REMARK    3  A    between atoms: C_8  and  C_9
REMARK    4  A    between atoms: C_13  and  O_14
REMARK    5  A    between atoms: O_14  and  C_15
REMARK    6  A    between atoms: C_22  and  O_23
REMARK                            x       y       z     vdW  Elec       q    Type
REMARK                         _______ _______ _______ _____ _____    ______ ____
ROOT
ATOM      1  C   UNL     1       2.550   6.278  18.275  0.00  0.00    +0.000 A 
ATOM      2  C   UNL     1       1.779   5.130  18.057  0.00  0.00    +0.000 A 
ATOM      3  C   UNL     1       2.343   4.010  17.443  0.00  0.00    +0.000 A 
ATOM      4  C   UNL     1       3.692   4.016  17.088  0.00  0.00    +0.000 A 
ATOM      5  C   UNL     1       4.473   5.146  17.333  0.00  0.00    +0.000 A 
ATOM      6  C   UNL     1       3.887   6.296  17.873  0.00  0.00    +0.000 A 
ENDROOT
BRANCH   1  12
ATOM      7  C   UNL     1       0.572   9.220  21.757  0.00  0.00    +0.000 C 
ATOM      8  C   UNL     1       1.085   8.790  20.600  0.00  0.00    +0.000 C 
ATOM      9  N   UNL     1       1.155   9.500  19.441  0.00  0.00    +0.000 N 
ATOM     10  C   UNL     1       1.683   8.750  18.412  0.00  0.00    +0.000 C 
ATOM     11  O   UNL     1       1.861   9.104  17.264  0.00  0.00    +0.000 OA
ATOM     12  C   UNL     1       1.992   7.412  18.990  0.00  0.00    +0.000 C 
ATOM     13  C   UNL     1       1.642   7.501  20.286  0.00  0.00    +0.000 C 
ATOM     14  H   UNL     1       0.859  10.453  19.308  0.00  0.00    +0.000 HD
BRANCH   7  16
ATOM     15  C   UNL     1      -1.023  10.507  23.179  0.00  0.00    +0.000 C 
ATOM     16  C   UNL     1      -0.038  10.565  22.020  0.00  0.00    +0.000 C 
ENDBRANCH   7  16
BRANCH  13  17
ATOM     17  O   UNL     1       1.753   6.547  21.258  0.00  0.00    +0.000 OA
ATOM     18  H   UNL     1       1.458   5.700  20.879  0.00  0.00    +0.000 HD
ENDBRANCH  13  17
ENDBRANCH   1  12
BRANCH   5  19
ATOM     19  O   UNL     1       5.806   5.059  16.997  0.00  0.00    +0.000 OA
BRANCH  19  20
ATOM     20  C   UNL     1       6.688   5.977  17.528  0.00  0.00    +0.000 A 
ATOM     21  C   UNL     1       6.912   7.250  16.992  0.00  0.00    +0.000 A 
ATOM     22  C   UNL     1       7.871   8.089  17.558  0.00  0.00    +0.000 A 
ATOM     23  C   UNL     1       8.562   7.687  18.699  0.00  0.00    +0.000 A 
ATOM     24  C   UNL     1       8.288   6.448  19.279  0.00  0.00    +0.000 A 
ATOM     25  C   UNL     1       7.353   5.593  18.694  0.00  0.00    +0.000 A 
ENDBRANCH  19  20
ENDBRANCH   5  19
TORSDOF 5
ENDMDL
MODEL 8
REMARK VINA RESULT:      -7.4      5.710      7.480
REMARK  Name = 
REMARK  6 active torsions:
REMARK  status: ('A' for Active; 'I' for Inactive)
REMARK    1  A    between atoms: C_1  and  C_2
REMARK    2  A    between atoms: C_2  and  C_3
REMARK    3  A    between atoms: C_8  and  C_9
REMARK    4  A    between atoms: C_13  and  O_14
REMARK    5  A    between atoms: O_14  and  C_15
REMARK    6  A    between atoms: C_22  and  O_23
REMARK                            x       y       z     vdW  Elec       q    Type
REMARK                         _______ _______ _______ _____ _____    ______ ____
ROOT
ATOM      1  C   UNL     1       1.444   8.837  19.483  0.00  0.00    +0.000 A 
ATOM      2  C   UNL     1       1.847   9.116  18.172  0.00  0.00    +0.000 A 
ATOM      3  C   UNL     1       2.700   8.241  17.497  0.00  0.00    +0.000 A 
ATOM      4  C   UNL     1       3.117   7.061  18.112  0.00  0.00    +0.000 A 
ATOM      5  C   UNL     1       2.692   6.762  19.408  0.00  0.00    +0.000 A 
ATOM      6  C   UNL     1       1.904   7.678  20.112  0.00  0.00    +0.000 A 
ENDROOT
BRANCH   1  12
ATOM      7  C   UNL     1      -1.029  11.467  22.896  0.00  0.00    +0.000 C 
ATOM      8  C   UNL     1      -0.661  10.931  21.729  0.00  0.00    +0.000 C 
ATOM      9  N   UNL     1      -1.340  11.026  20.554  0.00  0.00    +0.000 N 
ATOM     10  C   UNL     1      -0.726  10.309  19.548  0.00  0.00    +0.000 C 
ATOM     11  O   UNL     1      -1.098  10.196  18.398  0.00  0.00    +0.000 OA
ATOM     12  C   UNL     1       0.489   9.698  20.157  0.00  0.00    +0.000 C 
ATOM     13  C   UNL     1       0.490  10.118  21.435  0.00  0.00    +0.000 C 
ATOM     14  H   UNL     1      -2.193  11.536  20.399  0.00  0.00    +0.000 HD
BRANCH   7  16
ATOM     15  C   UNL     1      -1.921  13.713  23.515  0.00  0.00    +0.000 C 
ATOM     16  C   UNL     1      -2.266  12.274  23.159  0.00  0.00    +0.000 C 
ENDBRANCH   7  16
BRANCH  13  17
ATOM     17  O   UNL     1       1.411   9.856  22.409  0.00  0.00    +0.000 OA
ATOM     18  H   UNL     1       1.149  10.346  23.208  0.00  0.00    +0.000 HD
ENDBRANCH  13  17
ENDBRANCH   1  12
BRANCH   5  19
ATOM     19  O   UNL     1       3.109   5.558  19.931  0.00  0.00    +0.000 OA
BRANCH  19  20
ATOM     20  C   UNL     1       2.490   4.399  19.510  0.00  0.00    +0.000 A 
ATOM     21  C   UNL     1       3.017   3.535  18.543  0.00  0.00    +0.000 A 
ATOM     22  C   UNL     1       2.292   2.418  18.132  0.00  0.00    +0.000 A 
ATOM     23  C   UNL     1       1.068   2.124  18.730  0.00  0.00    +0.000 A 
ATOM     24  C   UNL     1       0.575   2.942  19.746  0.00  0.00    +0.000 A 
ATOM     25  C   UNL     1       1.284   4.080  20.136  0.00  0.00    +0.000 A 
ENDBRANCH  19  20
ENDBRANCH   5  19
TORSDOF 5
ENDMDL
MODEL 9
REMARK VINA RESULT:      -7.3      6.153      8.060
REMARK  Name = 
REMARK  6 active torsions:
REMARK  status: ('A' for Active; 'I' for Inactive)
REMARK    1  A    between atoms: C_1  and  C_2
REMARK    2  A    between atoms: C_2  and  C_3
REMARK    3  A    between atoms: C_8  and  C_9
REMARK    4  A    between atoms: C_13  and  O_14
REMARK    5  A    between atoms: O_14  and  C_15
REMARK    6  A    between atoms: C_22  and  O_23
REMARK                            x       y       z     vdW  Elec       q    Type
REMARK                         _______ _______ _______ _____ _____    ______ ____
ROOT
ATOM      1  C   UNL     1       0.942   9.403  20.020  0.00  0.00    +0.000 A 
ATOM      2  C   UNL     1       0.943   9.803  18.678  0.00  0.00    +0.000 A 
ATOM      3  C   UNL     1       1.644   9.064  17.724  0.00  0.00    +0.000 A 
ATOM      4  C   UNL     1       2.310   7.897  18.099  0.00  0.00    +0.000 A 
ATOM      5  C   UNL     1       2.286   7.476  19.429  0.00  0.00    +0.000 A 
ATOM      6  C   UNL     1       1.652   8.261  20.398  0.00  0.00    +0.000 A 
ENDROOT
BRANCH   1  12
ATOM      7  C   UNL     1      -2.360  12.396  22.215  0.00  0.00    +0.000 C 
ATOM      8  C   UNL     1      -1.391  11.495  22.030  0.00  0.00    +0.000 C 
ATOM      9  N   UNL     1      -0.638  10.916  23.004  0.00  0.00    +0.000 N 
ATOM     10  C   UNL     1       0.319  10.074  22.478  0.00  0.00    +0.000 C 
ATOM     11  O   UNL     1       1.142   9.426  23.093  0.00  0.00    +0.000 OA
ATOM     12  C   UNL     1       0.144  10.118  20.999  0.00  0.00    +0.000 C 
ATOM     13  C   UNL     1      -0.893  10.951  20.794  0.00  0.00    +0.000 C 
ATOM     14  H   UNL     1      -0.729  11.065  23.995  0.00  0.00    +0.000 HD
BRANCH   7  16
ATOM     15  C   UNL     1      -4.026  12.215  24.064  0.00  0.00    +0.000 C 
ATOM     16  C   UNL     1      -2.815  12.964  23.528  0.00  0.00    +0.000 C 
ENDBRANCH   7  16
BRANCH  13  17
ATOM     17  O   UNL     1      -1.467  11.307  19.606  0.00  0.00    +0.000 OA
ATOM     18  H   UNL     1      -0.794  11.213  18.909  0.00  0.00    +0.000 HD
ENDBRANCH  13  17
ENDBRANCH   1  12
BRANCH   5  19
ATOM     19  O   UNL     1       2.928   6.290  19.713  0.00  0.00    +0.000 OA
BRANCH  19  20
ATOM     20  C   UNL     1       2.238   5.106  19.557  0.00  0.00    +0.000 A 
ATOM     21  C   UNL     1       2.057   4.460  18.329  0.00  0.00    +0.000 A 
ATOM     22  C   UNL     1       1.290   3.298  18.255  0.00  0.00    +0.000 A 
ATOM     23  C   UNL     1       0.757   2.741  19.416  0.00  0.00    +0.000 A 
ATOM     24  C   UNL     1       0.998   3.342  20.651  0.00  0.00    +0.000 A 
ATOM     25  C   UNL     1       1.737   4.524  20.723  0.00  0.00    +0.000 A 
ENDBRANCH  19  20
ENDBRANCH   5  19
TORSDOF 5
ENDMDL
