MODEL 1
REMARK VINA RESULT:      -6.3      0.000      0.000
REMARK  Name = 
REMARK  6 active torsions:
REMARK  status: ('A' for Active; 'I' for Inactive)
REMARK    1  A    between atoms: C_1  and  C_2
REMARK    2  A    between atoms: C_2  and  N_3
REMARK    3  A    between atoms: C_4  and  C_6
REMARK    4  A    between atoms: C_10  and  C_11
REMARK    5  A    between atoms: N_13  and  C_14
REMARK    6  A    between atoms: C_14  and  C_15
REMARK                            x       y       z     vdW  Elec       q    Type
REMARK                         _______ _______ _______ _____ _____    ______ ____
ROOT
ATOM      1  C   UNL     1       6.312   4.639  18.163  0.00  0.00    +0.000 A 
ATOM      2  N   UNL     1       5.452   4.008  19.056  0.00  0.00    +0.000 NA
ATOM      3  C   UNL     1       4.587   3.360  18.312  0.00  0.00    +0.000 A 
ATOM      4  N   UNL     1       4.875   3.494  16.987  0.00  0.00    +0.000 N 
ATOM      5  C   UNL     1       5.999   4.282  16.855  0.00  0.00    +0.000 A 
ATOM      6  H   UNL     1       4.381   3.068  16.212  0.00  0.00    +0.000 HD
ENDROOT
BRANCH   1   8
ATOM      7  N   UNL     1       7.422   6.745  17.998  0.00  0.00    +0.000 N 
ATOM      8  C   UNL     1       7.396   5.515  18.611  0.00  0.00    +0.000 C 
ATOM      9  O   UNL     1       8.190   5.195  19.492  0.00  0.00    +0.000 OA
ATOM     10  H   UNL     1       6.691   6.935  17.320  0.00  0.00    +0.000 HD
BRANCH   7  12
ATOM     11  C   UNL     1       8.012   9.124  17.804  0.00  0.00    +0.000 C 
ATOM     12  C   UNL     1       8.344   7.774  18.419  0.00  0.00    +0.000 C 
ENDBRANCH   7  12
ENDBRANCH   1   8
BRANCH   5  13
ATOM     13  C   UNL     1       6.600   4.521  15.564  0.00  0.00    +0.000 C 
ATOM     14  O   UNL     1       7.432   5.414  15.409  0.00  0.00    +0.000 OA
ATOM     15  N   UNL     1       6.170   3.733  14.527  0.00  0.00    +0.000 N 
ATOM     16  H   UNL     1       5.641   2.892  14.741  0.00  0.00    +0.000 HD
BRANCH  15  17
ATOM     17  C   UNL     1       6.651   3.852  13.173  0.00  0.00    +0.000 C 
ATOM     18  C   UNL     1       5.670   3.250  12.187  0.00  0.00    +0.000 C 
ENDBRANCH  15  17
ENDBRANCH   5  13
TORSDOF 4
ENDMDL
MODEL 2
REMARK VINA RESULT:      -6.3      2.292      5.021
REMARK  Name = 
REMARK  6 active torsions:
REMARK  status: ('A' for Active; 'I' for Inactive)
REMARK    1  A    between atoms: C_1  and  C_2
REMARK    2  A    between atoms: C_2  and  N_3
REMARK    3  A    between atoms: C_4  and  C_6
REMARK    4  A    between atoms: C_10  and  C_11
REMARK    5  A    between atoms: N_13  and  C_14
REMARK    6  A    between atoms: C_14  and  C_15
REMARK                            x       y       z     vdW  Elec       q    Type
REMARK                         _______ _______ _______ _____ _____    ______ ____
ROOT
ATOM      1  C   UNL     1       6.556   4.563  16.340  0.00  0.00    +0.000 A 
ATOM      2  N   UNL     1       7.865   4.673  16.797  0.00  0.00    +0.000 NA
ATOM      3  C   UNL     1       7.795   4.526  18.099  0.00  0.00    +0.000 A 
ATOM      4  N   UNL     1       6.518   4.272  18.502  0.00  0.00    +0.000 N 
ATOM      5  C   UNL     1       5.699   4.255  17.392  0.00  0.00    +0.000 A 
ATOM      6  H   UNL     1       6.204   4.090  19.447  0.00  0.00    +0.000 HD
ENDROOT
BRANCH   1   8
ATOM      7  N   UNL     1       6.314   3.578  14.179  0.00  0.00    +0.000 N 
ATOM      8  C   UNL     1       6.206   4.726  14.927  0.00  0.00    +0.000 C 
ATOM      9  O   UNL     1       5.807   5.790  14.459  0.00  0.00    +0.000 OA
ATOM     10  H   UNL     1       6.601   2.737  14.669  0.00  0.00    +0.000 HD
BRANCH   7  12
ATOM     11  C   UNL     1       7.031   3.762  11.835  0.00  0.00    +0.000 C 
ATOM     12  C   UNL     1       5.880   3.537  12.802  0.00  0.00    +0.000 C 
ENDBRANCH   7  12
ENDBRANCH   1   8
BRANCH   5  13
ATOM     13  C   UNL     1       4.300   3.913  17.498  0.00  0.00    +0.000 C 
ATOM     14  O   UNL     1       3.429   4.777  17.398  0.00  0.00    +0.000 OA
ATOM     15  N   UNL     1       4.003   2.599  17.751  0.00  0.00    +0.000 N 
ATOM     16  H   UNL     1       4.731   1.902  17.627  0.00  0.00    +0.000 HD
BRANCH  15  17
ATOM     17  C   UNL     1       2.661   2.093  17.906  0.00  0.00    +0.000 C 
ATOM     18  C   UNL     1       2.211   2.163  19.351  0.00  0.00    +0.000 C 
ENDBRANCH  15  17
ENDBRANCH   5  13
TORSDOF 4
ENDMDL
MODEL 3
REMARK VINA RESULT:      -6.2      2.017      3.942
REMARK  Name = 
REMARK  6 active torsions:
REMARK  status: ('A' for Active; 'I' for Inactive)
REMARK    1  A    between atoms: C_1  and  C_2
REMARK    2  A    between atoms: C_2  and  N_3
REMARK    3  A    between atoms: C_4  and  C_6
REMARK    4  A    between atoms: C_10  and  C_11
REMARK    5  A    between atoms: N_13  and  C_14
REMARK    6  A    between atoms: C_14  and  C_15
REMARK                            x       y       z     vdW  Elec       q    Type
REMARK                         _______ _______ _______ _____ _____    ______ ____
ROOT
ATOM      1  C   UNL     1       6.145   4.948  18.561  0.00  0.00    +0.000 A 
ATOM      2  N   UNL     1       6.823   5.277  19.730  0.00  0.00    +0.000 NA
ATOM      3  C   UNL     1       7.893   5.929  19.343  0.00  0.00    +0.000 A 
ATOM      4  N   UNL     1       7.915   6.088  17.991  0.00  0.00    +0.000 N 
ATOM      5  C   UNL     1       6.788   5.499  17.456  0.00  0.00    +0.000 A 
ATOM      6  H   UNL     1       8.614   6.581  17.447  0.00  0.00    +0.000 HD
ENDROOT
BRANCH   1   8
ATOM      7  N   UNL     1       4.982   3.002  19.307  0.00  0.00    +0.000 N 
ATOM      8  C   UNL     1       4.911   4.159  18.569  0.00  0.00    +0.000 C 
ATOM      9  O   UNL     1       3.885   4.523  18.000  0.00  0.00    +0.000 OA
ATOM     10  H   UNL     1       5.858   2.816  19.784  0.00  0.00    +0.000 HD
BRANCH   7  12
ATOM     11  C   UNL     1       2.978   2.678  20.693  0.00  0.00    +0.000 C 
ATOM     12  C   UNL     1       3.815   2.180  19.526  0.00  0.00    +0.000 C 
ENDBRANCH   7  12
ENDBRANCH   1   8
BRANCH   5  13
ATOM     13  C   UNL     1       6.489   5.592  16.046  0.00  0.00    +0.000 C 
ATOM     14  O   UNL     1       5.575   6.308  15.640  0.00  0.00    +0.000 OA
ATOM     15  N   UNL     1       7.247   4.821  15.203  0.00  0.00    +0.000 N 
ATOM     16  H   UNL     1       8.106   4.410  15.558  0.00  0.00    +0.000 HD
BRANCH  15  17
ATOM     17  C   UNL     1       7.068   4.781  13.773  0.00  0.00    +0.000 C 
ATOM     18  C   UNL     1       6.069   3.714  13.374  0.00  0.00    +0.000 C 
ENDBRANCH  15  17
ENDBRANCH   5  13
TORSDOF 4
ENDMDL
MODEL 4
REMARK VINA RESULT:      -6.1      0.735      4.733
REMARK  Name = 
REMARK  6 active torsions:
REMARK  status: ('A' for Active; 'I' for Inactive)
REMARK    1  A    between atoms: C_1  and  C_2
REMARK    2  A    between atoms: C_2  and  N_3
REMARK    3  A    between atoms: C_4  and  C_6
REMARK    4  A    between atoms: C_10  and  C_11
REMARK    5  A    between atoms: N_13  and  C_14
REMARK    6  A    between atoms: C_14  and  C_15
REMARK                            x       y       z     vdW  Elec       q    Type
REMARK                         _______ _______ _______ _____ _____    ______ ____
ROOT
ATOM      1  C   UNL     1       5.342   4.318  17.143  0.00  0.00    +0.000 A 
ATOM      2  N   UNL     1       4.251   3.464  17.254  0.00  0.00    +0.000 NA
ATOM      3  C   UNL     1       4.170   3.162  18.529  0.00  0.00    +0.000 A 
ATOM      4  N   UNL     1       5.117   3.819  19.254  0.00  0.00    +0.000 N 
ATOM      5  C   UNL     1       5.868   4.599  18.400  0.00  0.00    +0.000 A 
ATOM      6  H   UNL     1       5.248   3.783  20.258  0.00  0.00    +0.000 HD
ENDROOT
BRANCH   1   8
ATOM      7  N   UNL     1       6.259   3.880  14.983  0.00  0.00    +0.000 N 
ATOM      8  C   UNL     1       5.797   4.839  15.852  0.00  0.00    +0.000 C 
ATOM      9  O   UNL     1       5.730   6.029  15.554  0.00  0.00    +0.000 OA
ATOM     10  H   UNL     1       6.225   2.917  15.303  0.00  0.00    +0.000 HD
BRANCH   7  12
ATOM     11  C   UNL     1       5.799   3.427  12.611  0.00  0.00    +0.000 C 
ATOM     12  C   UNL     1       6.619   4.210  13.624  0.00  0.00    +0.000 C 
ENDBRANCH   7  12
ENDBRANCH   1   8
BRANCH   5  13
ATOM     13  C   UNL     1       6.891   5.488  18.899  0.00  0.00    +0.000 C 
ATOM     14  O   UNL     1       7.388   5.318  20.012  0.00  0.00    +0.000 OA
ATOM     15  N   UNL     1       7.246   6.537  18.091  0.00  0.00    +0.000 N 
ATOM     16  H   UNL     1       6.961   6.519  17.116  0.00  0.00    +0.000 HD
BRANCH  15  17
ATOM     17  C   UNL     1       8.234   7.526  18.444  0.00  0.00    +0.000 C 
ATOM     18  C   UNL     1       7.961   8.847  17.753  0.00  0.00    +0.000 C 
ENDBRANCH  15  17
ENDBRANCH   5  13
TORSDOF 4
ENDMDL
MODEL 5
REMARK VINA RESULT:      -6.1      1.906      3.733
REMARK  Name = 
REMARK  6 active torsions:
REMARK  status: ('A' for Active; 'I' for Inactive)
REMARK    1  A    between atoms: C_1  and  C_2
REMARK    2  A    between atoms: C_2  and  N_3
REMARK    3  A    between atoms: C_4  and  C_6
REMARK    4  A    between atoms: C_10  and  C_11
REMARK    5  A    between atoms: N_13  and  C_14
REMARK    6  A    between atoms: C_14  and  C_15
REMARK                            x       y       z     vdW  Elec       q    Type
REMARK                         _______ _______ _______ _____ _____    ______ ____
ROOT
ATOM      1  C   UNL     1       6.098   4.871  18.515  0.00  0.00    +0.000 A 
ATOM      2  N   UNL     1       6.749   5.195  19.701  0.00  0.00    +0.000 NA
ATOM      3  C   UNL     1       7.812   5.876  19.342  0.00  0.00    +0.000 A 
ATOM      4  N   UNL     1       7.854   6.055  17.993  0.00  0.00    +0.000 N 
ATOM      5  C   UNL     1       6.748   5.451  17.430  0.00  0.00    +0.000 A 
ATOM      6  H   UNL     1       8.551   6.571  17.469  0.00  0.00    +0.000 HD
ENDROOT
BRANCH   1   8
ATOM      7  N   UNL     1       4.002   4.378  17.484  0.00  0.00    +0.000 N 
ATOM      8  C   UNL     1       4.881   4.056  18.490  0.00  0.00    +0.000 C 
ATOM      9  O   UNL     1       4.683   3.133  19.276  0.00  0.00    +0.000 OA
ATOM     10  H   UNL     1       4.281   5.122  16.852  0.00  0.00    +0.000 HD
BRANCH   7  12
ATOM     11  C   UNL     1       1.566   4.249  17.787  0.00  0.00    +0.000 C 
ATOM     12  C   UNL     1       2.820   3.586  17.239  0.00  0.00    +0.000 C 
ENDBRANCH   7  12
ENDBRANCH   1   8
BRANCH   5  13
ATOM     13  C   UNL     1       6.472   5.560  16.017  0.00  0.00    +0.000 C 
ATOM     14  O   UNL     1       5.557   6.272  15.605  0.00  0.00    +0.000 OA
ATOM     15  N   UNL     1       7.250   4.807  15.176  0.00  0.00    +0.000 N 
ATOM     16  H   UNL     1       8.107   4.399  15.540  0.00  0.00    +0.000 HD
BRANCH  15  17
ATOM     17  C   UNL     1       7.096   4.783  13.743  0.00  0.00    +0.000 C 
ATOM     18  C   UNL     1       6.121   3.705  13.314  0.00  0.00    +0.000 C 
ENDBRANCH  15  17
ENDBRANCH   5  13
TORSDOF 4
ENDMDL
MODEL 6
REMARK VINA RESULT:      -6.0      1.563      5.141
REMARK  Name = 
REMARK  6 active torsions:
REMARK  status: ('A' for Active; 'I' for Inactive)
REMARK    1  A    between atoms: C_1  and  C_2
REMARK    2  A    between atoms: C_2  and  N_3
REMARK    3  A    between atoms: C_4  and  C_6
REMARK    4  A    between atoms: C_10  and  C_11
REMARK    5  A    between atoms: N_13  and  C_14
REMARK    6  A    between atoms: C_14  and  C_15
REMARK                            x       y       z     vdW  Elec       q    Type
REMARK                         _______ _______ _______ _____ _____    ______ ____
ROOT
ATOM      1  C   UNL     1       5.583   4.398  15.948  0.00  0.00    +0.000 A 
ATOM      2  N   UNL     1       5.549   3.939  14.635  0.00  0.00    +0.000 NA
ATOM      3  C   UNL     1       6.618   4.440  14.061  0.00  0.00    +0.000 A 
ATOM      4  N   UNL     1       7.368   5.153  14.947  0.00  0.00    +0.000 N 
ATOM      5  C   UNL     1       6.751   5.118  16.180  0.00  0.00    +0.000 A 
ATOM      6  H   UNL     1       8.253   5.612  14.763  0.00  0.00    +0.000 HD
ENDROOT
BRANCH   1   8
ATOM      7  N   UNL     1       4.528   2.803  17.377  0.00  0.00    +0.000 N 
ATOM      8  C   UNL     1       4.520   4.095  16.908  0.00  0.00    +0.000 C 
ATOM      9  O   UNL     1       3.715   4.938  17.296  0.00  0.00    +0.000 OA
ATOM     10  H   UNL     1       5.266   2.197  17.035  0.00  0.00    +0.000 HD
BRANCH   7  12
ATOM     11  C   UNL     1       4.271   2.484  19.801  0.00  0.00    +0.000 C 
ATOM     12  C   UNL     1       3.630   2.380  18.426  0.00  0.00    +0.000 C 
ENDBRANCH   7  12
ENDBRANCH   1   8
BRANCH   5  13
ATOM     13  C   UNL     1       7.368   5.709  17.344  0.00  0.00    +0.000 C 
ATOM     14  O   UNL     1       7.652   5.023  18.326  0.00  0.00    +0.000 OA
ATOM     15  N   UNL     1       7.582   7.063  17.310  0.00  0.00    +0.000 N 
ATOM     16  H   UNL     1       7.519   7.544  16.417  0.00  0.00    +0.000 HD
BRANCH  15  17
ATOM     17  C   UNL     1       8.169   7.813  18.392  0.00  0.00    +0.000 C 
ATOM     18  C   UNL     1       8.323   9.276  18.027  0.00  0.00    +0.000 C 
ENDBRANCH  15  17
ENDBRANCH   5  13
TORSDOF 4
ENDMDL
MODEL 7
REMARK VINA RESULT:      -6.0      3.247      4.790
REMARK  Name = 
REMARK  6 active torsions:
REMARK  status: ('A' for Active; 'I' for Inactive)
REMARK    1  A    between atoms: C_1  and  C_2
REMARK    2  A    between atoms: C_2  and  N_3
REMARK    3  A    between atoms: C_4  and  C_6
REMARK    4  A    between atoms: C_10  and  C_11
REMARK    5  A    between atoms: N_13  and  C_14
REMARK    6  A    between atoms: C_14  and  C_15
REMARK                            x       y       z     vdW  Elec       q    Type
REMARK                         _______ _______ _______ _____ _____    ______ ____
ROOT
ATOM      1  C   UNL     1       3.748   4.866  19.325  0.00  0.00    +0.000 A 
ATOM      2  N   UNL     1       2.995   3.764  19.718  0.00  0.00    +0.000 NA
ATOM      3  C   UNL     1       3.841   2.761  19.765  0.00  0.00    +0.000 A 
ATOM      4  N   UNL     1       5.108   3.168  19.477  0.00  0.00    +0.000 N 
ATOM      5  C   UNL     1       5.092   4.524  19.222  0.00  0.00    +0.000 A 
ATOM      6  H   UNL     1       5.945   2.597  19.476  0.00  0.00    +0.000 HD
ENDROOT
BRANCH   1   8
ATOM      7  N   UNL     1       2.383   6.642  20.149  0.00  0.00    +0.000 N 
ATOM      8  C   UNL     1       3.146   6.182  19.103  0.00  0.00    +0.000 C 
ATOM      9  O   UNL     1       3.343   6.840  18.084  0.00  0.00    +0.000 OA
ATOM     10  H   UNL     1       2.324   6.047  20.970  0.00  0.00    +0.000 HD
BRANCH   7  12
ATOM     11  C   UNL     1       1.017   8.260  21.399  0.00  0.00    +0.000 C 
ATOM     12  C   UNL     1       1.830   7.976  20.146  0.00  0.00    +0.000 C 
ENDBRANCH   7  12
ENDBRANCH   1   8
BRANCH   5  13
ATOM     13  C   UNL     1       6.313   5.256  18.980  0.00  0.00    +0.000 C 
ATOM     14  O   UNL     1       7.165   5.373  19.860  0.00  0.00    +0.000 OA
ATOM     15  N   UNL     1       6.450   5.836  17.745  0.00  0.00    +0.000 N 
ATOM     16  H   UNL     1       5.825   5.547  16.999  0.00  0.00    +0.000 HD
BRANCH  15  17
ATOM     17  C   UNL     1       7.595   6.616  17.346  0.00  0.00    +0.000 C 
ATOM     18  C   UNL     1       7.375   8.091  17.613  0.00  0.00    +0.000 C 
ENDBRANCH  15  17
ENDBRANCH   5  13
TORSDOF 4
ENDMDL
MODEL 8
REMARK VINA RESULT:      -6.0      2.081      3.832
REMARK  Name = 
REMARK  6 active torsions:
REMARK  status: ('A' for Active; 'I' for Inactive)
REMARK    1  A    between atoms: C_1  and  C_2
REMARK    2  A    between atoms: C_2  and  N_3
REMARK    3  A    between atoms: C_4  and  C_6
REMARK    4  A    between atoms: C_10  and  C_11
REMARK    5  A    between atoms: N_13  and  C_14
REMARK    6  A    between atoms: C_14  and  C_15
REMARK                            x       y       z     vdW  Elec       q    Type
REMARK                         _______ _______ _______ _____ _____    ______ ____
ROOT
ATOM      1  C   UNL     1       5.969   4.658  18.762  0.00  0.00    +0.000 A 
ATOM      2  N   UNL     1       6.850   5.345  19.590  0.00  0.00    +0.000 NA
ATOM      3  C   UNL     1       7.803   5.783  18.801  0.00  0.00    +0.000 A 
ATOM      4  N   UNL     1       7.556   5.463  17.500  0.00  0.00    +0.000 N 
ATOM      5  C   UNL     1       6.366   4.769  17.433  0.00  0.00    +0.000 A 
ATOM      6  H   UNL     1       8.118   5.712  16.695  0.00  0.00    +0.000 HD
ENDROOT
BRANCH   1   8
ATOM      7  N   UNL     1       3.604   4.639  19.090  0.00  0.00    +0.000 N 
ATOM      8  C   UNL     1       4.787   3.967  19.282  0.00  0.00    +0.000 C 
ATOM      9  O   UNL     1       4.843   2.857  19.807  0.00  0.00    +0.000 OA
ATOM     10  H   UNL     1       3.656   5.526  18.598  0.00  0.00    +0.000 HD
BRANCH   7  12
ATOM     11  C   UNL     1       1.636   3.466  18.201  0.00  0.00    +0.000 C 
ATOM     12  C   UNL     1       2.336   4.037  19.424  0.00  0.00    +0.000 C 
ENDBRANCH   7  12
ENDBRANCH   1   8
BRANCH   5  13
ATOM     13  C   UNL     1       5.795   4.379  16.164  0.00  0.00    +0.000 C 
ATOM     14  O   UNL     1       4.601   4.101  16.068  0.00  0.00    +0.000 OA
ATOM     15  N   UNL     1       6.655   4.303  15.099  0.00  0.00    +0.000 N 
ATOM     16  H   UNL     1       7.573   4.731  15.181  0.00  0.00    +0.000 HD
BRANCH  15  17
ATOM     17  C   UNL     1       6.255   3.913  13.770  0.00  0.00    +0.000 C 
ATOM     18  C   UNL     1       7.190   4.486  12.724  0.00  0.00    +0.000 C 
ENDBRANCH  15  17
ENDBRANCH   5  13
TORSDOF 4
ENDMDL
MODEL 9
REMARK VINA RESULT:      -6.0      2.008      4.864
REMARK  Name = 
REMARK  6 active torsions:
REMARK  status: ('A' for Active; 'I' for Inactive)
REMARK    1  A    between atoms: C_1  and  C_2
REMARK    2  A    between atoms: C_2  and  N_3
REMARK    3  A    between atoms: C_4  and  C_6
REMARK    4  A    between atoms: C_10  and  C_11
REMARK    5  A    between atoms: N_13  and  C_14
REMARK    6  A    between atoms: C_14  and  C_15
REMARK                            x       y       z     vdW  Elec       q    Type
REMARK                         _______ _______ _______ _____ _____    ______ ____
ROOT
ATOM      1  C   UNL     1       6.804   5.672  17.361  0.00  0.00    +0.000 A 
ATOM      2  N   UNL     1       7.930   6.282  17.905  0.00  0.00    +0.000 NA
ATOM      3  C   UNL     1       7.867   6.046  19.195  0.00  0.00    +0.000 A 
ATOM      4  N   UNL     1       6.791   5.271  19.505  0.00  0.00    +0.000 N 
ATOM      5  C   UNL     1       6.103   4.982  18.345  0.00  0.00    +0.000 A 
ATOM      6  H   UNL     1       6.536   4.924  20.422  0.00  0.00    +0.000 HD
ENDROOT
BRANCH   1   8
ATOM      7  N   UNL     1       7.319   5.031  15.120  0.00  0.00    +0.000 N 
ATOM      8  C   UNL     1       6.483   5.757  15.935  0.00  0.00    +0.000 C 
ATOM      9  O   UNL     1       5.521   6.389  15.506  0.00  0.00    +0.000 OA
ATOM     10  H   UNL     1       8.054   4.499  15.575  0.00  0.00    +0.000 HD
BRANCH   7  12
ATOM     11  C   UNL     1       6.138   3.733  13.399  0.00  0.00    +0.000 C 
ATOM     12  C   UNL     1       7.061   4.902  13.706  0.00  0.00    +0.000 C 
ENDBRANCH   7  12
ENDBRANCH   1   8
BRANCH   5  13
ATOM     13  C   UNL     1       4.964   4.093  18.350  0.00  0.00    +0.000 C 
ATOM     14  O   UNL     1       4.021   4.271  17.581  0.00  0.00    +0.000 OA
ATOM     15  N   UNL     1       4.978   3.078  19.271  0.00  0.00    +0.000 N 
ATOM     16  H   UNL     1       5.853   2.855  19.737  0.00  0.00    +0.000 HD
BRANCH  15  17
ATOM     17  C   UNL     1       3.915   2.116  19.423  0.00  0.00    +0.000 C 
ATOM     18  C   UNL     1       2.863   2.609  20.396  0.00  0.00    +0.000 C 
ENDBRANCH  15  17
ENDBRANCH   5  13
TORSDOF 4
ENDMDL
