MODEL 1
REMARK VINA RESULT:      -7.9      0.000      0.000
REMARK  Name = 
REMARK  4 active torsions:
REMARK  status: ('A' for Active; 'I' for Inactive)
REMARK    1  A    between atoms: C_2  and  C_17
REMARK    2  A    between atoms: C_7  and  C_8
REMARK    3  A    between atoms: C_8  and  C_9
REMARK    4  A    between atoms: C_9  and  C_10
REMARK                            x       y       z     vdW  Elec       q    Type
REMARK                         _______ _______ _______ _____ _____    ______ ____
ROOT
ATOM      1  O   UNL     1       7.510   9.539  17.650  0.00  0.00    +0.000 OA
ATOM      2  C   UNL     1       8.422   9.260  18.427  0.00  0.00    +0.000 C 
ATOM      3  N   UNL     1       8.678   7.995  18.902  0.00  0.00    +0.000 N 
ATOM      4  C   UNL     1       7.996   6.857  18.546  0.00  0.00    +0.000 A 
ATOM      5  N   UNL     1       8.056   5.734  19.231  0.00  0.00    +0.000 NA
ATOM      6  N   UNL     1       7.292   4.733  18.656  0.00  0.00    +0.000 NA
ATOM      7  C   UNL     1       6.742   5.116  17.521  0.00  0.00    +0.000 A 
ATOM      8  S   UNL     1       7.069   6.750  17.118  0.00  0.00    +0.000 S 
ATOM      9  H   UNL     1       9.327   7.884  19.670  0.00  0.00    +0.000 HD
ENDROOT
BRANCH   2  10
ATOM     10  C   UNL     1       9.285  10.315  18.946  0.00  0.00    +0.000 A 
ATOM     11  C   UNL     1       9.348  10.731  20.265  0.00  0.00    +0.000 A 
ATOM     12  C   UNL     1      10.255  11.809  20.462  0.00  0.00    +0.000 A 
ATOM     13  C   UNL     1      10.861  12.183  19.282  0.00  0.00    +0.000 A 
ATOM     14  S   UNL     1      10.349  11.222  17.961  0.00  0.00    +0.000 S 
ENDBRANCH   2  10
BRANCH   7  15
ATOM     15  C   UNL     1       5.883   4.253  16.647  0.00  0.00    +0.000 C 
BRANCH  15  16
ATOM     16  C   UNL     1       4.436   4.757  16.562  0.00  0.00    +0.000 C 
BRANCH  16  17
ATOM     17  C   UNL     1       3.480   3.893  17.351  0.00  0.00    +0.000 A 
ATOM     18  C   UNL     1       2.169   4.323  17.604  0.00  0.00    +0.000 A 
ATOM     19  C   UNL     1       1.303   3.541  18.370  0.00  0.00    +0.000 A 
ATOM     20  C   UNL     1       1.736   2.324  18.891  0.00  0.00    +0.000 A 
ATOM     21  C   UNL     1       3.031   1.880  18.632  0.00  0.00    +0.000 A 
ATOM     22  C   UNL     1       3.899   2.659  17.865  0.00  0.00    +0.000 A 
ENDBRANCH  16  17
ENDBRANCH  15  16
ENDBRANCH   7  15
TORSDOF 4
ENDMDL
MODEL 2
REMARK VINA RESULT:      -7.8      0.749      1.402
REMARK  Name = 
REMARK  4 active torsions:
REMARK  status: ('A' for Active; 'I' for Inactive)
REMARK    1  A    between atoms: C_2  and  C_17
REMARK    2  A    between atoms: C_7  and  C_8
REMARK    3  A    between atoms: C_8  and  C_9
REMARK    4  A    between atoms: C_9  and  C_10
REMARK                            x       y       z     vdW  Elec       q    Type
REMARK                         _______ _______ _______ _____ _____    ______ ____
ROOT
ATOM      1  O   UNL     1       7.700   9.681  17.743  0.00  0.00    +0.000 OA
ATOM      2  C   UNL     1       8.593   9.378  18.533  0.00  0.00    +0.000 C 
ATOM      3  N   UNL     1       8.801   8.109  19.020  0.00  0.00    +0.000 N 
ATOM      4  C   UNL     1       8.086   6.991  18.665  0.00  0.00    +0.000 A 
ATOM      5  N   UNL     1       8.100   5.873  19.359  0.00  0.00    +0.000 NA
ATOM      6  N   UNL     1       7.311   4.892  18.783  0.00  0.00    +0.000 NA
ATOM      7  C   UNL     1       6.788   5.284  17.638  0.00  0.00    +0.000 A 
ATOM      8  S   UNL     1       7.174   6.903  17.226  0.00  0.00    +0.000 S 
ATOM      9  H   UNL     1       9.436   7.982  19.797  0.00  0.00    +0.000 HD
ENDROOT
BRANCH   2  10
ATOM     10  C   UNL     1       9.485  10.408  19.054  0.00  0.00    +0.000 A 
ATOM     11  C   UNL     1      10.545  10.979  18.372  0.00  0.00    +0.000 A 
ATOM     12  C   UNL     1      11.259  11.929  19.154  0.00  0.00    +0.000 A 
ATOM     13  C   UNL     1      10.718  12.055  20.415  0.00  0.00    +0.000 A 
ATOM     14  S   UNL     1       9.349  11.049  20.634  0.00  0.00    +0.000 S 
ENDBRANCH   2  10
BRANCH   7  15
ATOM     15  C   UNL     1       5.911   4.443  16.760  0.00  0.00    +0.000 C 
BRANCH  15  16
ATOM     16  C   UNL     1       4.468   4.959  16.702  0.00  0.00    +0.000 C 
BRANCH  16  17
ATOM     17  C   UNL     1       3.500   4.042  17.415  0.00  0.00    +0.000 A 
ATOM     18  C   UNL     1       3.893   2.754  17.807  0.00  0.00    +0.000 A 
ATOM     19  C   UNL     1       2.984   1.895  18.426  0.00  0.00    +0.000 A 
ATOM     20  C   UNL     1       1.676   2.312  18.660  0.00  0.00    +0.000 A 
ATOM     21  C   UNL     1       1.280   3.596  18.288  0.00  0.00    +0.000 A 
ATOM     22  C   UNL     1       2.187   4.457  17.670  0.00  0.00    +0.000 A 
ENDBRANCH  16  17
ENDBRANCH  15  16
ENDBRANCH   7  15
TORSDOF 4
ENDMDL
MODEL 3
REMARK VINA RESULT:      -7.7      0.914      1.144
REMARK  Name = 
REMARK  4 active torsions:
REMARK  status: ('A' for Active; 'I' for Inactive)
REMARK    1  A    between atoms: C_2  and  C_17
REMARK    2  A    between atoms: C_7  and  C_8
REMARK    3  A    between atoms: C_8  and  C_9
REMARK    4  A    between atoms: C_9  and  C_10
REMARK                            x       y       z     vdW  Elec       q    Type
REMARK                         _______ _______ _______ _____ _____    ______ ____
ROOT
ATOM      1  O   UNL     1       7.504   9.424  17.533  0.00  0.00    +0.000 OA
ATOM      2  C   UNL     1       8.408   9.179  18.329  0.00  0.00    +0.000 C 
ATOM      3  N   UNL     1       8.633   7.945  18.894  0.00  0.00    +0.000 N 
ATOM      4  C   UNL     1       7.923   6.801  18.620  0.00  0.00    +0.000 A 
ATOM      5  N   UNL     1       7.955   5.730  19.384  0.00  0.00    +0.000 NA
ATOM      6  N   UNL     1       7.167   4.709  18.881  0.00  0.00    +0.000 NA
ATOM      7  C   UNL     1       6.627   5.022  17.720  0.00  0.00    +0.000 A 
ATOM      8  S   UNL     1       6.994   6.615  17.201  0.00  0.00    +0.000 S 
ATOM      9  H   UNL     1       9.278   7.873  19.670  0.00  0.00    +0.000 HD
ENDROOT
BRANCH   2  10
ATOM     10  C   UNL     1       9.297  10.247  18.773  0.00  0.00    +0.000 A 
ATOM     11  C   UNL     1      10.166  10.962  17.966  0.00  0.00    +0.000 A 
ATOM     12  C   UNL     1      10.934  11.915  18.690  0.00  0.00    +0.000 A 
ATOM     13  C   UNL     1      10.627  11.899  20.033  0.00  0.00    +0.000 A 
ATOM     14  S   UNL     1       9.406  10.757  20.402  0.00  0.00    +0.000 S 
ENDBRANCH   2  10
BRANCH   7  15
ATOM     15  C   UNL     1       5.747   4.120  16.909  0.00  0.00    +0.000 C 
BRANCH  15  16
ATOM     16  C   UNL     1       4.393   4.762  16.577  0.00  0.00    +0.000 C 
BRANCH  16  17
ATOM     17  C   UNL     1       3.292   4.288  17.497  0.00  0.00    +0.000 A 
ATOM     18  C   UNL     1       2.788   5.128  18.501  0.00  0.00    +0.000 A 
ATOM     19  C   UNL     1       1.802   4.671  19.377  0.00  0.00    +0.000 A 
ATOM     20  C   UNL     1       1.310   3.373  19.260  0.00  0.00    +0.000 A 
ATOM     21  C   UNL     1       1.792   2.535  18.256  0.00  0.00    +0.000 A 
ATOM     22  C   UNL     1       2.778   2.990  17.378  0.00  0.00    +0.000 A 
ENDBRANCH  16  17
ENDBRANCH  15  16
ENDBRANCH   7  15
TORSDOF 4
ENDMDL
MODEL 4
REMARK VINA RESULT:      -7.3      0.509      1.163
REMARK  Name = 
REMARK  4 active torsions:
REMARK  status: ('A' for Active; 'I' for Inactive)
REMARK    1  A    between atoms: C_2  and  C_17
REMARK    2  A    between atoms: C_7  and  C_8
REMARK    3  A    between atoms: C_8  and  C_9
REMARK    4  A    between atoms: C_9  and  C_10
REMARK                            x       y       z     vdW  Elec       q    Type
REMARK                         _______ _______ _______ _____ _____    ______ ____
ROOT
ATOM      1  O   UNL     1       7.696   9.786  17.606  0.00  0.00    +0.000 OA
ATOM      2  C   UNL     1       8.539   9.443  18.433  0.00  0.00    +0.000 C 
ATOM      3  N   UNL     1       8.689   8.159  18.902  0.00  0.00    +0.000 N 
ATOM      4  C   UNL     1       7.966   7.068  18.485  0.00  0.00    +0.000 A 
ATOM      5  N   UNL     1       7.916   5.935  19.153  0.00  0.00    +0.000 NA
ATOM      6  N   UNL     1       7.133   4.988  18.515  0.00  0.00    +0.000 NA
ATOM      7  C   UNL     1       6.680   5.418  17.355  0.00  0.00    +0.000 A 
ATOM      8  S   UNL     1       7.128   7.035  17.000  0.00  0.00    +0.000 S 
ATOM      9  H   UNL     1       9.280   7.999  19.708  0.00  0.00    +0.000 HD
ENDROOT
BRANCH   2  10
ATOM     10  C   UNL     1       9.428  10.438  19.023  0.00  0.00    +0.000 A 
ATOM     11  C   UNL     1       9.556  10.705  20.376  0.00  0.00    +0.000 A 
ATOM     12  C   UNL     1      10.474  11.758  20.646  0.00  0.00    +0.000 A 
ATOM     13  C   UNL     1      11.020  12.264  19.487  0.00  0.00    +0.000 A 
ATOM     14  S   UNL     1      10.442  11.454  18.094  0.00  0.00    +0.000 S 
ENDBRANCH   2  10
BRANCH   7  15
ATOM     15  C   UNL     1       5.830   4.620  16.414  0.00  0.00    +0.000 C 
BRANCH  15  16
ATOM     16  C   UNL     1       5.351   3.298  17.030  0.00  0.00    +0.000 C 
BRANCH  16  17
ATOM     17  C   UNL     1       3.916   3.371  17.501  0.00  0.00    +0.000 A 
ATOM     18  C   UNL     1       3.255   2.222  17.958  0.00  0.00    +0.000 A 
ATOM     19  C   UNL     1       1.917   2.285  18.351  0.00  0.00    +0.000 A 
ATOM     20  C   UNL     1       1.227   3.494  18.291  0.00  0.00    +0.000 A 
ATOM     21  C   UNL     1       1.880   4.645  17.854  0.00  0.00    +0.000 A 
ATOM     22  C   UNL     1       3.218   4.585  17.462  0.00  0.00    +0.000 A 
ENDBRANCH  16  17
ENDBRANCH  15  16
ENDBRANCH   7  15
TORSDOF 4
ENDMDL
MODEL 5
REMARK VINA RESULT:      -7.3      2.122      8.915
REMARK  Name = 
REMARK  4 active torsions:
REMARK  status: ('A' for Active; 'I' for Inactive)
REMARK    1  A    between atoms: C_2  and  C_17
REMARK    2  A    between atoms: C_7  and  C_8
REMARK    3  A    between atoms: C_8  and  C_9
REMARK    4  A    between atoms: C_9  and  C_10
REMARK                            x       y       z     vdW  Elec       q    Type
REMARK                         _______ _______ _______ _____ _____    ______ ____
ROOT
ATOM      1  O   UNL     1       3.965   5.229  16.912  0.00  0.00    +0.000 OA
ATOM      2  C   UNL     1       4.050   4.664  18.001  0.00  0.00    +0.000 C 
ATOM      3  N   UNL     1       5.103   4.810  18.872  0.00  0.00    +0.000 N 
ATOM      4  C   UNL     1       6.183   5.639  18.686  0.00  0.00    +0.000 A 
ATOM      5  N   UNL     1       7.302   5.533  19.371  0.00  0.00    +0.000 NA
ATOM      6  N   UNL     1       8.228   6.495  19.006  0.00  0.00    +0.000 NA
ATOM      7  C   UNL     1       7.747   7.335  18.111  0.00  0.00    +0.000 A 
ATOM      8  S   UNL     1       6.152   6.960  17.607  0.00  0.00    +0.000 S 
ATOM      9  H   UNL     1       5.180   4.176  19.657  0.00  0.00    +0.000 HD
ENDROOT
BRANCH   2  10
ATOM     10  C   UNL     1       3.012   3.727  18.418  0.00  0.00    +0.000 A 
ATOM     11  C   UNL     1       3.212   2.584  19.173  0.00  0.00    +0.000 A 
ATOM     12  C   UNL     1       2.014   1.847  19.388  0.00  0.00    +0.000 A 
ATOM     13  C   UNL     1       0.932   2.454  18.789  0.00  0.00    +0.000 A 
ATOM     14  S   UNL     1       1.365   3.909  17.996  0.00  0.00    +0.000 S 
ENDBRANCH   2  10
BRANCH   7  15
ATOM     15  C   UNL     1       8.493   8.502  17.538  0.00  0.00    +0.000 C 
BRANCH  15  16
ATOM     16  C   UNL     1       8.082   9.835  18.178  0.00  0.00    +0.000 C 
BRANCH  16  17
ATOM     17  C   UNL     1       9.269  10.609  18.704  0.00  0.00    +0.000 A 
ATOM     18  C   UNL     1      10.283  11.040  17.836  0.00  0.00    +0.000 A 
ATOM     19  C   UNL     1      11.399  11.716  18.332  0.00  0.00    +0.000 A 
ATOM     20  C   UNL     1      11.513  11.969  19.697  0.00  0.00    +0.000 A 
ATOM     21  C   UNL     1      10.504  11.560  20.566  0.00  0.00    +0.000 A 
ATOM     22  C   UNL     1       9.386  10.884  20.073  0.00  0.00    +0.000 A 
ENDBRANCH  16  17
ENDBRANCH  15  16
ENDBRANCH   7  15
TORSDOF 4
ENDMDL
MODEL 6
REMARK VINA RESULT:      -7.2      1.310      1.867
REMARK  Name = 
REMARK  4 active torsions:
REMARK  status: ('A' for Active; 'I' for Inactive)
REMARK    1  A    between atoms: C_2  and  C_17
REMARK    2  A    between atoms: C_7  and  C_8
REMARK    3  A    between atoms: C_8  and  C_9
REMARK    4  A    between atoms: C_9  and  C_10
REMARK                            x       y       z     vdW  Elec       q    Type
REMARK                         _______ _______ _______ _____ _____    ______ ____
ROOT
ATOM      1  O   UNL     1       7.606   9.531  17.637  0.00  0.00    +0.000 OA
ATOM      2  C   UNL     1       8.479   9.243  18.454  0.00  0.00    +0.000 C 
ATOM      3  N   UNL     1       8.682   7.981  18.962  0.00  0.00    +0.000 N 
ATOM      4  C   UNL     1       7.985   6.854  18.601  0.00  0.00    +0.000 A 
ATOM      5  N   UNL     1       7.987   5.744  19.308  0.00  0.00    +0.000 NA
ATOM      6  N   UNL     1       7.220   4.752  18.722  0.00  0.00    +0.000 NA
ATOM      7  C   UNL     1       6.725   5.127  17.559  0.00  0.00    +0.000 A 
ATOM      8  S   UNL     1       7.112   6.744  17.139  0.00  0.00    +0.000 S 
ATOM      9  H   UNL     1       9.297   7.868  19.757  0.00  0.00    +0.000 HD
ENDROOT
BRANCH   2  10
ATOM     10  C   UNL     1       9.349  10.285  18.988  0.00  0.00    +0.000 A 
ATOM     11  C   UNL     1       9.523  10.584  20.328  0.00  0.00    +0.000 A 
ATOM     12  C   UNL     1      10.405  11.679  20.540  0.00  0.00    +0.000 A 
ATOM     13  C   UNL     1      10.882  12.184  19.350  0.00  0.00    +0.000 A 
ATOM     14  S   UNL     1      10.280  11.323  17.997  0.00  0.00    +0.000 S 
ENDBRANCH   2  10
BRANCH   7  15
ATOM     15  C   UNL     1       5.879   4.270  16.668  0.00  0.00    +0.000 C 
BRANCH  15  16
ATOM     16  C   UNL     1       4.673   3.668  17.402  0.00  0.00    +0.000 C 
BRANCH  16  17
ATOM     17  C   UNL     1       3.892   4.707  18.173  0.00  0.00    +0.000 A 
ATOM     18  C   UNL     1       3.600   4.520  19.531  0.00  0.00    +0.000 A 
ATOM     19  C   UNL     1       2.841   5.461  20.228  0.00  0.00    +0.000 A 
ATOM     20  C   UNL     1       2.368   6.598  19.577  0.00  0.00    +0.000 A 
ATOM     21  C   UNL     1       2.666   6.802  18.231  0.00  0.00    +0.000 A 
ATOM     22  C   UNL     1       3.426   5.862  17.532  0.00  0.00    +0.000 A 
ENDBRANCH  16  17
ENDBRANCH  15  16
ENDBRANCH   7  15
TORSDOF 4
ENDMDL
MODEL 7
REMARK VINA RESULT:      -7.2      2.327      9.026
REMARK  Name = 
REMARK  4 active torsions:
REMARK  status: ('A' for Active; 'I' for Inactive)
REMARK    1  A    between atoms: C_2  and  C_17
REMARK    2  A    between atoms: C_7  and  C_8
REMARK    3  A    between atoms: C_8  and  C_9
REMARK    4  A    between atoms: C_9  and  C_10
REMARK                            x       y       z     vdW  Elec       q    Type
REMARK                         _______ _______ _______ _____ _____    ______ ____
ROOT
ATOM      1  O   UNL     1       3.633   5.457  17.120  0.00  0.00    +0.000 OA
ATOM      2  C   UNL     1       3.802   4.770  18.126  0.00  0.00    +0.000 C 
ATOM      3  N   UNL     1       4.938   4.793  18.901  0.00  0.00    +0.000 N 
ATOM      4  C   UNL     1       6.022   5.613  18.702  0.00  0.00    +0.000 A 
ATOM      5  N   UNL     1       7.197   5.406  19.257  0.00  0.00    +0.000 NA
ATOM      6  N   UNL     1       8.116   6.383  18.912  0.00  0.00    +0.000 NA
ATOM      7  C   UNL     1       7.580   7.329  18.167  0.00  0.00    +0.000 A 
ATOM      8  S   UNL     1       5.932   7.049  17.784  0.00  0.00    +0.000 S 
ATOM      9  H   UNL     1       5.068   4.073  19.599  0.00  0.00    +0.000 HD
ENDROOT
BRANCH   2  10
ATOM     10  C   UNL     1       2.778   3.816  18.537  0.00  0.00    +0.000 A 
ATOM     11  C   UNL     1       1.722   4.083  19.391  0.00  0.00    +0.000 A 
ATOM     12  C   UNL     1       0.909   2.942  19.638  0.00  0.00    +0.000 A 
ATOM     13  C   UNL     1       1.371   1.835  18.961  0.00  0.00    +0.000 A 
ATOM     14  S   UNL     1       2.760   2.185  18.022  0.00  0.00    +0.000 S 
ENDBRANCH   2  10
BRANCH   7  15
ATOM     15  C   UNL     1       8.305   8.536  17.656  0.00  0.00    +0.000 C 
BRANCH  15  16
ATOM     16  C   UNL     1       8.828   9.432  18.787  0.00  0.00    +0.000 C 
BRANCH  16  17
ATOM     17  C   UNL     1       9.347  10.757  18.278  0.00  0.00    +0.000 A 
ATOM     18  C   UNL     1      10.724  11.014  18.227  0.00  0.00    +0.000 A 
ATOM     19  C   UNL     1      11.197  12.255  17.796  0.00  0.00    +0.000 A 
ATOM     20  C   UNL     1      10.300  13.250  17.413  0.00  0.00    +0.000 A 
ATOM     21  C   UNL     1       8.930  12.999  17.445  0.00  0.00    +0.000 A 
ATOM     22  C   UNL     1       8.454  11.759  17.874  0.00  0.00    +0.000 A 
ENDBRANCH  16  17
ENDBRANCH  15  16
ENDBRANCH   7  15
TORSDOF 4
ENDMDL
MODEL 8
REMARK VINA RESULT:      -7.1      1.362      1.795
REMARK  Name = 
REMARK  4 active torsions:
REMARK  status: ('A' for Active; 'I' for Inactive)
REMARK    1  A    between atoms: C_2  and  C_17
REMARK    2  A    between atoms: C_7  and  C_8
REMARK    3  A    between atoms: C_8  and  C_9
REMARK    4  A    between atoms: C_9  and  C_10
REMARK                            x       y       z     vdW  Elec       q    Type
REMARK                         _______ _______ _______ _____ _____    ______ ____
ROOT
ATOM      1  O   UNL     1       7.622   9.686  17.616  0.00  0.00    +0.000 OA
ATOM      2  C   UNL     1       8.503   9.390  18.421  0.00  0.00    +0.000 C 
ATOM      3  N   UNL     1       8.707   8.124  18.919  0.00  0.00    +0.000 N 
ATOM      4  C   UNL     1       8.002   7.002  18.557  0.00  0.00    +0.000 A 
ATOM      5  N   UNL     1       8.008   5.887  19.256  0.00  0.00    +0.000 NA
ATOM      6  N   UNL     1       7.231   4.901  18.672  0.00  0.00    +0.000 NA
ATOM      7  C   UNL     1       6.726   5.286  17.517  0.00  0.00    +0.000 A 
ATOM      8  S   UNL     1       7.113   6.904  17.104  0.00  0.00    +0.000 S 
ATOM      9  H   UNL     1       9.330   8.003  19.706  0.00  0.00    +0.000 HD
ENDROOT
BRANCH   2  10
ATOM     10  C   UNL     1       9.383  10.425  18.953  0.00  0.00    +0.000 A 
ATOM     11  C   UNL     1       9.681  10.624  20.290  0.00  0.00    +0.000 A 
ATOM     12  C   UNL     1      10.538  11.738  20.506  0.00  0.00    +0.000 A 
ATOM     13  C   UNL     1      10.870  12.358  19.321  0.00  0.00    +0.000 A 
ATOM     14  S   UNL     1      10.167  11.582  17.966  0.00  0.00    +0.000 S 
ENDBRANCH   2  10
BRANCH   7  15
ATOM     15  C   UNL     1       5.867   4.438  16.629  0.00  0.00    +0.000 C 
BRANCH  15  16
ATOM     16  C   UNL     1       4.670   3.830  17.373  0.00  0.00    +0.000 C 
BRANCH  16  17
ATOM     17  C   UNL     1       3.859   4.873  18.107  0.00  0.00    +0.000 A 
ATOM     18  C   UNL     1       3.454   6.049  17.459  0.00  0.00    +0.000 A 
ATOM     19  C   UNL     1       2.742   7.030  18.152  0.00  0.00    +0.000 A 
ATOM     20  C   UNL     1       2.428   6.846  19.497  0.00  0.00    +0.000 A 
ATOM     21  C   UNL     1       2.813   5.674  20.146  0.00  0.00    +0.000 A 
ATOM     22  C   UNL     1       3.524   4.692  19.455  0.00  0.00    +0.000 A 
ENDBRANCH  16  17
ENDBRANCH  15  16
ENDBRANCH   7  15
TORSDOF 4
ENDMDL
MODEL 9
REMARK VINA RESULT:      -7.1      6.982      7.990
REMARK  Name = 
REMARK  4 active torsions:
REMARK  status: ('A' for Active; 'I' for Inactive)
REMARK    1  A    between atoms: C_2  and  C_17
REMARK    2  A    between atoms: C_7  and  C_8
REMARK    3  A    between atoms: C_8  and  C_9
REMARK    4  A    between atoms: C_9  and  C_10
REMARK                            x       y       z     vdW  Elec       q    Type
REMARK                         _______ _______ _______ _____ _____    ______ ____
ROOT
ATOM      1  O   UNL     1       0.614  10.343  22.100  0.00  0.00    +0.000 OA
ATOM      2  C   UNL     1      -0.164  10.843  21.289  0.00  0.00    +0.000 C 
ATOM      3  N   UNL     1      -0.127  10.614  19.934  0.00  0.00    +0.000 N 
ATOM      4  C   UNL     1       0.740   9.764  19.292  0.00  0.00    +0.000 A 
ATOM      5  N   UNL     1       0.955   9.795  17.994  0.00  0.00    +0.000 NA
ATOM      6  N   UNL     1       1.859   8.826  17.593  0.00  0.00    +0.000 NA
ATOM      7  C   UNL     1       2.237   8.054  18.592  0.00  0.00    +0.000 A 
ATOM      8  S   UNL     1       1.562   8.507  20.102  0.00  0.00    +0.000 S 
ATOM      9  H   UNL     1      -0.683  11.200  19.324  0.00  0.00    +0.000 HD
ENDROOT
BRANCH   2  10
ATOM     10  C   UNL     1      -1.181  11.786  21.742  0.00  0.00    +0.000 A 
ATOM     11  C   UNL     1      -1.669  11.889  23.033  0.00  0.00    +0.000 A 
ATOM     12  C   UNL     1      -2.684  12.876  23.163  0.00  0.00    +0.000 A 
ATOM     13  C   UNL     1      -2.941  13.500  21.962  0.00  0.00    +0.000 A 
ATOM     14  S   UNL     1      -1.944  12.909  20.702  0.00  0.00    +0.000 S 
ENDBRANCH   2  10
BRANCH   7  15
ATOM     15  C   UNL     1       3.184   6.898  18.476  0.00  0.00    +0.000 C 
BRANCH  15  16
ATOM     16  C   UNL     1       2.513   5.642  17.904  0.00  0.00    +0.000 C 
BRANCH  16  17
ATOM     17  C   UNL     1       2.069   4.685  18.986  0.00  0.00    +0.000 A 
ATOM     18  C   UNL     1       2.505   4.850  20.309  0.00  0.00    +0.000 A 
ATOM     19  C   UNL     1       2.128   3.939  21.297  0.00  0.00    +0.000 A 
ATOM     20  C   UNL     1       1.312   2.856  20.975  0.00  0.00    +0.000 A 
ATOM     21  C   UNL     1       0.861   2.692  19.666  0.00  0.00    +0.000 A 
ATOM     22  C   UNL     1       1.236   3.603  18.677  0.00  0.00    +0.000 A 
ENDBRANCH  16  17
ENDBRANCH  15  16
ENDBRANCH   7  15
TORSDOF 4
ENDMDL
