MODEL 1
REMARK VINA RESULT:      -7.2      0.000      0.000
REMARK  Name = 
REMARK  12 active torsions:
REMARK  status: ('A' for Active; 'I' for Inactive)
REMARK    1  A    between atoms: CD1_1  and  CG1_2
REMARK    2  A    between atoms: CG1_2  and  CB_3
REMARK    3  A    between atoms: CB_3  and  CG2_4
REMARK    4  A    between atoms: CB_3  and  CA_5
REMARK    5  A    between atoms: CA_5  and  N_6
REMARK    6  A    between atoms: CA_5  and  C_7
REMARK    7  A    between atoms: N_9  and  CA_10
REMARK    8  A    between atoms: CA_10  and  CB_11
REMARK    9  A    between atoms: CA_10  and  C_19
REMARK   10  A    between atoms: CB_11  and  CG_12
REMARK   11  A    between atoms: CZ_15  and  OH_16
REMARK   12  A    between atoms: C_19  and  OXT_21
REMARK                            x       y       z     vdW  Elec       q    Type
REMARK                         _______ _______ _______ _____ _____    ______ ____
ROOT
ATOM      1  CA  TYR A   2       4.497   3.630  19.357  0.00  0.00    +0.000 C 
ENDROOT
BRANCH   1   4
ATOM      2  C   ILE A   1       6.588   4.893  18.855  0.00  0.00    +0.000 C 
ATOM      3  O   ILE A   1       6.593   5.429  19.963  0.00  0.00    +0.000 OA
ATOM      4  N   TYR A   2       5.626   3.984  18.491  0.00  0.00    +0.000 N 
ATOM      5  H   TYR A   2       5.610   3.607  17.542  0.00  0.00    +0.000 HD
BRANCH   2   6
ATOM      6  CA  ILE A   1       7.650   5.222  17.776  0.00  0.00    +0.000 C 
BRANCH   6   7
ATOM      7  N   ILE A   1       7.750   4.077  16.847  0.00  0.00    +0.000 NA
ATOM      8  H1  ILE A   1       8.366   4.361  16.078  0.00  0.00    +0.000 HD
ATOM      9  H2  ILE A   1       6.845   3.948  16.394  0.00  0.00    +0.000 HD
ENDBRANCH   6   7
BRANCH   6  10
ATOM     10  CB  ILE A   1       7.300   6.551  17.060  0.00  0.00    +0.000 C 
ATOM     11  CG2 ILE A   1       7.802   7.781  17.835  0.00  0.00    +0.000 C 
BRANCH  10  13
ATOM     12  CD1 ILE A   1       5.262   6.097  15.525  0.00  0.00    +0.000 C 
ATOM     13  CG1 ILE A   1       5.791   6.751  16.791  0.00  0.00    +0.000 C 
ENDBRANCH  10  13
ENDBRANCH   6  10
ENDBRANCH   2   6
ENDBRANCH   1   4
BRANCH   1  14
ATOM     14  C   TYR A   2       4.574   2.123  19.646  0.00  0.00    +0.000 C 
ATOM     15  O   TYR A   2       5.056   1.655  20.672  0.00  0.00    +0.000 OA
BRANCH  14  16
ATOM     16  OXT TYR A   2       4.036   1.331  18.690  0.00  0.00    +0.000 OA
ATOM     17  HXT TYR A   2       4.381   0.420  18.656  0.00  0.00    +0.000 HD
ENDBRANCH  14  16
ENDBRANCH   1  14
BRANCH   1  18
ATOM     18  CB  TYR A   2       3.119   4.030  18.782  0.00  0.00    +0.000 C 
BRANCH  18  19
ATOM     19  CG  TYR A   2       2.695   5.431  19.158  0.00  0.00    +0.000 A 
ATOM     20  CD1 TYR A   2       2.100   5.685  20.402  0.00  0.00    +0.000 A 
ATOM     21  CE1 TYR A   2       1.600   6.952  20.697  0.00  0.00    +0.000 A 
ATOM     22  CZ  TYR A   2       1.694   7.965  19.746  0.00  0.00    +0.000 A 
ATOM     23  CE2 TYR A   2       2.312   7.742  18.524  0.00  0.00    +0.000 A 
ATOM     24  CD2 TYR A   2       2.825   6.479  18.234  0.00  0.00    +0.000 A 
BRANCH  22  25
ATOM     25  OH  TYR A   2       1.175   9.202  19.978  0.00  0.00    +0.000 OA
ATOM     26  HH  TYR A   2       1.258   9.398  20.926  0.00  0.00    +0.000 HD
ENDBRANCH  22  25
ENDBRANCH  18  19
ENDBRANCH   1  18
TORSDOF 10
ENDMDL
MODEL 2
REMARK VINA RESULT:      -7.0      0.986      1.431
REMARK  Name = 
REMARK  12 active torsions:
REMARK  status: ('A' for Active; 'I' for Inactive)
REMARK    1  A    between atoms: CD1_1  and  CG1_2
REMARK    2  A    between atoms: CG1_2  and  CB_3
REMARK    3  A    between atoms: CB_3  and  CG2_4
REMARK    4  A    between atoms: CB_3  and  CA_5
REMARK    5  A    between atoms: CA_5  and  N_6
REMARK    6  A    between atoms: CA_5  and  C_7
REMARK    7  A    between atoms: N_9  and  CA_10
REMARK    8  A    between atoms: CA_10  and  CB_11
REMARK    9  A    between atoms: CA_10  and  C_19
REMARK   10  A    between atoms: CB_11  and  CG_12
REMARK   11  A    between atoms: CZ_15  and  OH_16
REMARK   12  A    between atoms: C_19  and  OXT_21
REMARK                            x       y       z     vdW  Elec       q    Type
REMARK                         _______ _______ _______ _____ _____    ______ ____
ROOT
ATOM      1  CA  TYR A   2       4.115   3.594  19.116  0.00  0.00    +0.000 C 
ENDROOT
BRANCH   1   4
ATOM      2  C   ILE A   1       6.138   4.948  18.576  0.00  0.00    +0.000 C 
ATOM      3  O   ILE A   1       5.988   5.665  19.565  0.00  0.00    +0.000 OA
ATOM      4  N   TYR A   2       5.295   3.901  18.301  0.00  0.00    +0.000 N 
ATOM      5  H   TYR A   2       5.406   3.366  17.438  0.00  0.00    +0.000 HD
BRANCH   2   6
ATOM      6  CA  ILE A   1       7.275   5.188  17.551  0.00  0.00    +0.000 C 
BRANCH   6   7
ATOM      7  N   ILE A   1       8.228   4.060  17.629  0.00  0.00    +0.000 NA
ATOM      8  H1  ILE A   1       8.702   4.126  18.536  0.00  0.00    +0.000 HD
ATOM      9  H2  ILE A   1       8.977   4.223  16.955  0.00  0.00    +0.000 HD
ENDBRANCH   6   7
BRANCH   6  10
ATOM     10  CB  ILE A   1       6.690   5.385  16.130  0.00  0.00    +0.000 C 
ATOM     11  CG2 ILE A   1       5.488   6.346  16.122  0.00  0.00    +0.000 C 
BRANCH  10  13
ATOM     12  CD1 ILE A   1       6.288   4.097  13.917  0.00  0.00    +0.000 C 
ATOM     13  CG1 ILE A   1       6.247   4.076  15.437  0.00  0.00    +0.000 C 
ENDBRANCH  10  13
ENDBRANCH   6  10
ENDBRANCH   2   6
ENDBRANCH   1   4
BRANCH   1  14
ATOM     14  C   TYR A   2       4.036   2.068  19.281  0.00  0.00    +0.000 C 
ATOM     15  O   TYR A   2       3.134   1.383  18.812  0.00  0.00    +0.000 OA
BRANCH  14  16
ATOM     16  OXT TYR A   2       5.064   1.515  19.965  0.00  0.00    +0.000 OA
ATOM     17  HXT TYR A   2       4.939   1.449  20.930  0.00  0.00    +0.000 HD
ENDBRANCH  14  16
ENDBRANCH   1  14
BRANCH   1  18
ATOM     18  CB  TYR A   2       2.798   4.175  18.554  0.00  0.00    +0.000 C 
BRANCH  18  19
ATOM     19  CG  TYR A   2       2.482   5.558  19.074  0.00  0.00    +0.000 A 
ATOM     20  CD1 TYR A   2       1.971   5.732  20.368  0.00  0.00    +0.000 A 
ATOM     21  CE1 TYR A   2       1.565   6.994  20.801  0.00  0.00    +0.000 A 
ATOM     22  CZ  TYR A   2       1.671   8.081  19.937  0.00  0.00    +0.000 A 
ATOM     23  CE2 TYR A   2       2.209   7.935  18.667  0.00  0.00    +0.000 A 
ATOM     24  CD2 TYR A   2       2.627   6.676  18.239  0.00  0.00    +0.000 A 
BRANCH  22  25
ATOM     25  OH  TYR A   2       1.242   9.320  20.306  0.00  0.00    +0.000 OA
ATOM     26  HH  TYR A   2       1.000   9.295  21.247  0.00  0.00    +0.000 HD
ENDBRANCH  22  25
ENDBRANCH  18  19
ENDBRANCH   1  18
TORSDOF 10
ENDMDL
MODEL 3
REMARK VINA RESULT:      -6.8      2.561      6.196
REMARK  Name = 
REMARK  12 active torsions:
REMARK  status: ('A' for Active; 'I' for Inactive)
REMARK    1  A    between atoms: CD1_1  and  CG1_2
REMARK    2  A    between atoms: CG1_2  and  CB_3
REMARK    3  A    between atoms: CB_3  and  CG2_4
REMARK    4  A    between atoms: CB_3  and  CA_5
REMARK    5  A    between atoms: CA_5  and  N_6
REMARK    6  A    between atoms: CA_5  and  C_7
REMARK    7  A    between atoms: N_9  and  CA_10
REMARK    8  A    between atoms: CA_10  and  CB_11
REMARK    9  A    between atoms: CA_10  and  C_19
REMARK   10  A    between atoms: CB_11  and  CG_12
REMARK   11  A    between atoms: CZ_15  and  OH_16
REMARK   12  A    between atoms: C_19  and  OXT_21
REMARK                            x       y       z     vdW  Elec       q    Type
REMARK                         _______ _______ _______ _____ _____    ______ ____
ROOT
ATOM      1  CA  TYR A   2       6.702   5.537  18.116  0.00  0.00    +0.000 C 
ENDROOT
BRANCH   1   4
ATOM      2  C   ILE A   1       4.823   4.420  19.315  0.00  0.00    +0.000 C 
ATOM      3  O   ILE A   1       5.425   3.347  19.369  0.00  0.00    +0.000 OA
ATOM      4  N   TYR A   2       5.383   5.540  18.754  0.00  0.00    +0.000 N 
ATOM      5  H   TYR A   2       4.834   6.397  18.665  0.00  0.00    +0.000 HD
BRANCH   2   6
ATOM      6  CA  ILE A   1       3.379   4.581  19.853  0.00  0.00    +0.000 C 
BRANCH   6   7
ATOM      7  N   ILE A   1       3.084   6.024  19.987  0.00  0.00    +0.000 NA
ATOM      8  H1  ILE A   1       2.178   6.106  20.460  0.00  0.00    +0.000 HD
ATOM      9  H2  ILE A   1       2.905   6.404  19.057  0.00  0.00    +0.000 HD
ENDBRANCH   6   7
BRANCH   6  10
ATOM     10  CB  ILE A   1       2.374   3.843  18.935  0.00  0.00    +0.000 C 
ATOM     11  CG2 ILE A   1       1.746   4.777  17.886  0.00  0.00    +0.000 C 
BRANCH  10  13
ATOM     12  CD1 ILE A   1       1.350   3.115  21.202  0.00  0.00    +0.000 C 
ATOM     13  CG1 ILE A   1       1.218   3.144  19.689  0.00  0.00    +0.000 C 
ENDBRANCH  10  13
ENDBRANCH   6  10
ENDBRANCH   2   6
ENDBRANCH   1   4
BRANCH   1  14
ATOM     14  C   TYR A   2       7.722   6.078  19.129  0.00  0.00    +0.000 C 
ATOM     15  O   TYR A   2       8.393   7.087  18.941  0.00  0.00    +0.000 OA
BRANCH  14  16
ATOM     16  OXT TYR A   2       7.811   5.372  20.281  0.00  0.00    +0.000 OA
ATOM     17  HXT TYR A   2       7.185   4.629  20.367  0.00  0.00    +0.000 HD
ENDBRANCH  14  16
ENDBRANCH   1  14
BRANCH   1  18
ATOM     18  CB  TYR A   2       6.755   6.318  16.783  0.00  0.00    +0.000 C 
BRANCH  18  19
ATOM     19  CG  TYR A   2       6.492   5.456  15.571  0.00  0.00    +0.000 A 
ATOM     20  CD1 TYR A   2       5.384   4.597  15.535  0.00  0.00    +0.000 A 
ATOM     21  CE1 TYR A   2       5.210   3.714  14.470  0.00  0.00    +0.000 A 
ATOM     22  CZ  TYR A   2       6.149   3.690  13.441  0.00  0.00    +0.000 A 
ATOM     23  CE2 TYR A   2       7.231   4.557  13.441  0.00  0.00    +0.000 A 
ATOM     24  CD2 TYR A   2       7.397   5.449  14.499  0.00  0.00    +0.000 A 
BRANCH  22  25
ATOM     25  OH  TYR A   2       6.041   2.809  12.408  0.00  0.00    +0.000 OA
ATOM     26  HH  TYR A   2       5.110   2.541  12.328  0.00  0.00    +0.000 HD
ENDBRANCH  22  25
ENDBRANCH  18  19
ENDBRANCH   1  18
TORSDOF 10
ENDMDL
MODEL 4
REMARK VINA RESULT:      -6.8      2.380      4.757
REMARK  Name = 
REMARK  12 active torsions:
REMARK  status: ('A' for Active; 'I' for Inactive)
REMARK    1  A    between atoms: CD1_1  and  CG1_2
REMARK    2  A    between atoms: CG1_2  and  CB_3
REMARK    3  A    between atoms: CB_3  and  CG2_4
REMARK    4  A    between atoms: CB_3  and  CA_5
REMARK    5  A    between atoms: CA_5  and  N_6
REMARK    6  A    between atoms: CA_5  and  C_7
REMARK    7  A    between atoms: N_9  and  CA_10
REMARK    8  A    between atoms: CA_10  and  CB_11
REMARK    9  A    between atoms: CA_10  and  C_19
REMARK   10  A    between atoms: CB_11  and  CG_12
REMARK   11  A    between atoms: CZ_15  and  OH_16
REMARK   12  A    between atoms: C_19  and  OXT_21
REMARK                            x       y       z     vdW  Elec       q    Type
REMARK                         _______ _______ _______ _____ _____    ______ ____
ROOT
ATOM      1  CA  TYR A   2       4.931   4.450  16.886  0.00  0.00    +0.000 C 
ENDROOT
BRANCH   1   4
ATOM      2  C   ILE A   1       3.076   2.905  17.509  0.00  0.00    +0.000 C 
ATOM      3  O   ILE A   1       2.234   3.604  16.946  0.00  0.00    +0.000 OA
ATOM      4  N   TYR A   2       4.410   3.225  17.500  0.00  0.00    +0.000 N 
ATOM      5  H   TYR A   2       5.076   2.662  18.032  0.00  0.00    +0.000 HD
BRANCH   2   6
ATOM      6  CA  ILE A   1       2.692   1.624  18.292  0.00  0.00    +0.000 C 
BRANCH   6   7
ATOM      7  N   ILE A   1       3.906   0.798  18.470  0.00  0.00    +0.000 NA
ATOM      8  H1  ILE A   1       3.983   0.190  17.648  0.00  0.00    +0.000 HD
ATOM      9  H2  ILE A   1       3.742   0.145  19.237  0.00  0.00    +0.000 HD
ENDBRANCH   6   7
BRANCH   6  10
ATOM     10  CB  ILE A   1       2.013   1.994  19.634  0.00  0.00    +0.000 C 
ATOM     11  CG2 ILE A   1       0.707   2.782  19.430  0.00  0.00    +0.000 C 
BRANCH  10  13
ATOM     12  CD1 ILE A   1       2.175   3.501  21.736  0.00  0.00    +0.000 C 
ATOM     13  CG1 ILE A   1       2.906   2.810  20.597  0.00  0.00    +0.000 C 
ENDBRANCH  10  13
ENDBRANCH   6  10
ENDBRANCH   2   6
ENDBRANCH   1   4
BRANCH   1  14
ATOM     14  C   TYR A   2       6.177   4.078  16.068  0.00  0.00    +0.000 C 
ATOM     15  O   TYR A   2       6.141   3.775  14.880  0.00  0.00    +0.000 OA
BRANCH  14  16
ATOM     16  OXT TYR A   2       7.345   4.139  16.749  0.00  0.00    +0.000 OA
ATOM     17  HXT TYR A   2       8.114   3.742  16.299  0.00  0.00    +0.000 HD
ENDBRANCH  14  16
ENDBRANCH   1  14
BRANCH   1  18
ATOM     18  CB  TYR A   2       5.231   5.579  17.898  0.00  0.00    +0.000 C 
BRANCH  18  19
ATOM     19  CG  TYR A   2       4.023   6.423  18.231  0.00  0.00    +0.000 A 
ATOM     20  CD1 TYR A   2       3.678   7.520  17.428  0.00  0.00    +0.000 A 
ATOM     21  CE1 TYR A   2       2.638   8.369  17.804  0.00  0.00    +0.000 A 
ATOM     22  CZ  TYR A   2       1.944   8.119  18.986  0.00  0.00    +0.000 A 
ATOM     23  CE2 TYR A   2       2.246   7.018  19.774  0.00  0.00    +0.000 A 
ATOM     24  CD2 TYR A   2       3.277   6.162  19.391  0.00  0.00    +0.000 A 
BRANCH  22  25
ATOM     25  OH  TYR A   2       0.954   8.952  19.412  0.00  0.00    +0.000 OA
ATOM     26  HH  TYR A   2       0.203   8.411  19.709  0.00  0.00    +0.000 HD
ENDBRANCH  22  25
ENDBRANCH  18  19
ENDBRANCH   1  18
TORSDOF 10
ENDMDL
MODEL 5
REMARK VINA RESULT:      -6.8      0.651      1.286
REMARK  Name = 
REMARK  12 active torsions:
REMARK  status: ('A' for Active; 'I' for Inactive)
REMARK    1  A    between atoms: CD1_1  and  CG1_2
REMARK    2  A    between atoms: CG1_2  and  CB_3
REMARK    3  A    between atoms: CB_3  and  CG2_4
REMARK    4  A    between atoms: CB_3  and  CA_5
REMARK    5  A    between atoms: CA_5  and  N_6
REMARK    6  A    between atoms: CA_5  and  C_7
REMARK    7  A    between atoms: N_9  and  CA_10
REMARK    8  A    between atoms: CA_10  and  CB_11
REMARK    9  A    between atoms: CA_10  and  C_19
REMARK   10  A    between atoms: CB_11  and  CG_12
REMARK   11  A    between atoms: CZ_15  and  OH_16
REMARK   12  A    between atoms: C_19  and  OXT_21
REMARK                            x       y       z     vdW  Elec       q    Type
REMARK                         _______ _______ _______ _____ _____    ______ ____
ROOT
ATOM      1  CA  TYR A   2       4.555   3.341  19.552  0.00  0.00    +0.000 C 
ENDROOT
BRANCH   1   4
ATOM      2  C   ILE A   1       6.374   4.926  18.921  0.00  0.00    +0.000 C 
ATOM      3  O   ILE A   1       6.090   5.699  19.835  0.00  0.00    +0.000 OA
ATOM      4  N   TYR A   2       5.702   3.745  18.732  0.00  0.00    +0.000 N 
ATOM      5  H   TYR A   2       5.916   3.157  17.925  0.00  0.00    +0.000 HD
BRANCH   2   6
ATOM      6  CA  ILE A   1       7.494   5.238  17.897  0.00  0.00    +0.000 C 
BRANCH   6   7
ATOM      7  N   ILE A   1       8.148   3.970  17.511  0.00  0.00    +0.000 NA
ATOM      8  H1  ILE A   1       8.712   3.663  18.310  0.00  0.00    +0.000 HD
ATOM      9  H2  ILE A   1       8.842   4.170  16.790  0.00  0.00    +0.000 HD
ENDBRANCH   6   7
BRANCH   6  10
ATOM     10  CB  ILE A   1       6.919   6.013  16.685  0.00  0.00    +0.000 C 
ATOM     11  CG2 ILE A   1       6.588   7.475  17.031  0.00  0.00    +0.000 C 
BRANCH  10  13
ATOM     12  CD1 ILE A   1       5.822   4.805  14.671  0.00  0.00    +0.000 C 
ATOM     13  CG1 ILE A   1       5.651   5.380  16.068  0.00  0.00    +0.000 C 
ENDBRANCH  10  13
ENDBRANCH   6  10
ENDBRANCH   2   6
ENDBRANCH   1   4
BRANCH   1  14
ATOM     14  C   TYR A   2       4.733   1.860  19.921  0.00  0.00    +0.000 C 
ATOM     15  O   TYR A   2       5.113   1.478  21.022  0.00  0.00    +0.000 OA
BRANCH  14  16
ATOM     16  OXT TYR A   2       4.407   0.986  18.941  0.00  0.00    +0.000 OA
ATOM     17  HXT TYR A   2       3.862   1.349  18.218  0.00  0.00    +0.000 HD
ENDBRANCH  14  16
ENDBRANCH   1  14
BRANCH   1  18
ATOM     18  CB  TYR A   2       3.186   3.601  18.884  0.00  0.00    +0.000 C 
BRANCH  18  19
ATOM     19  CG  TYR A   2       2.652   4.992  19.133  0.00  0.00    +0.000 A 
ATOM     20  CD1 TYR A   2       2.854   6.012  18.192  0.00  0.00    +0.000 A 
ATOM     21  CE1 TYR A   2       2.469   7.321  18.477  0.00  0.00    +0.000 A 
ATOM     22  CZ  TYR A   2       1.881   7.609  19.706  0.00  0.00    +0.000 A 
ATOM     23  CE2 TYR A   2       1.638   6.608  20.635  0.00  0.00    +0.000 A 
ATOM     24  CD2 TYR A   2       2.012   5.297  20.344  0.00  0.00    +0.000 A 
BRANCH  22  25
ATOM     25  OH  TYR A   2       1.535   8.882  20.041  0.00  0.00    +0.000 OA
ATOM     26  HH  TYR A   2       1.181   8.878  20.947  0.00  0.00    +0.000 HD
ENDBRANCH  22  25
ENDBRANCH  18  19
ENDBRANCH   1  18
TORSDOF 10
ENDMDL
MODEL 6
REMARK VINA RESULT:      -6.6      2.827      3.956
REMARK  Name = 
REMARK  12 active torsions:
REMARK  status: ('A' for Active; 'I' for Inactive)
REMARK    1  A    between atoms: CD1_1  and  CG1_2
REMARK    2  A    between atoms: CG1_2  and  CB_3
REMARK    3  A    between atoms: CB_3  and  CG2_4
REMARK    4  A    between atoms: CB_3  and  CA_5
REMARK    5  A    between atoms: CA_5  and  N_6
REMARK    6  A    between atoms: CA_5  and  C_7
REMARK    7  A    between atoms: N_9  and  CA_10
REMARK    8  A    between atoms: CA_10  and  CB_11
REMARK    9  A    between atoms: CA_10  and  C_19
REMARK   10  A    between atoms: CB_11  and  CG_12
REMARK   11  A    between atoms: CZ_15  and  OH_16
REMARK   12  A    between atoms: C_19  and  OXT_21
REMARK                            x       y       z     vdW  Elec       q    Type
REMARK                         _______ _______ _______ _____ _____    ______ ____
ROOT
ATOM      1  CA  TYR A   2       4.462   4.827  17.506  0.00  0.00    +0.000 C 
ENDROOT
BRANCH   1   4
ATOM      2  C   ILE A   1       6.195   4.740  15.715  0.00  0.00    +0.000 C 
ATOM      3  O   ILE A   1       7.058   4.340  16.496  0.00  0.00    +0.000 OA
ATOM      4  N   TYR A   2       4.902   4.970  16.115  0.00  0.00    +0.000 N 
ATOM      5  H   TYR A   2       4.226   5.366  15.460  0.00  0.00    +0.000 HD
BRANCH   2   6
ATOM      6  CA  ILE A   1       6.506   5.041  14.227  0.00  0.00    +0.000 C 
BRANCH   6   7
ATOM      7  N   ILE A   1       7.903   5.514  14.123  0.00  0.00    +0.000 NA
ATOM      8  H1  ILE A   1       7.951   6.146  13.318  0.00  0.00    +0.000 HD
ATOM      9  H2  ILE A   1       8.490   4.727  13.845  0.00  0.00    +0.000 HD
ENDBRANCH   6   7
BRANCH   6  10
ATOM     10  CB  ILE A   1       6.225   3.794  13.352  0.00  0.00    +0.000 C 
ATOM     11  CG2 ILE A   1       7.144   3.727  12.120  0.00  0.00    +0.000 C 
BRANCH  10  13
ATOM     12  CD1 ILE A   1       4.592   3.054  11.480  0.00  0.00    +0.000 C 
ATOM     13  CG1 ILE A   1       4.765   3.682  12.854  0.00  0.00    +0.000 C 
ENDBRANCH  10  13
ENDBRANCH   6  10
ENDBRANCH   2   6
ENDBRANCH   1   4
BRANCH   1  14
ATOM     14  C   TYR A   2       4.664   3.361  17.919  0.00  0.00    +0.000 C 
ATOM     15  O   TYR A   2       4.119   2.418  17.356  0.00  0.00    +0.000 OA
BRANCH  14  16
ATOM     16  OXT TYR A   2       5.526   3.172  18.946  0.00  0.00    +0.000 OA
ATOM     17  HXT TYR A   2       5.348   3.701  19.746  0.00  0.00    +0.000 HD
ENDBRANCH  14  16
ENDBRANCH   1  14
BRANCH   1  18
ATOM     18  CB  TYR A   2       3.009   5.293  17.754  0.00  0.00    +0.000 C 
BRANCH  18  19
ATOM     19  CG  TYR A   2       2.371   4.649  18.962  0.00  0.00    +0.000 A 
ATOM     20  CD1 TYR A   2       2.845   4.929  20.252  0.00  0.00    +0.000 A 
ATOM     21  CE1 TYR A   2       2.337   4.242  21.354  0.00  0.00    +0.000 A 
ATOM     22  CZ  TYR A   2       1.354   3.274  21.163  0.00  0.00    +0.000 A 
ATOM     23  CE2 TYR A   2       0.846   3.010  19.900  0.00  0.00    +0.000 A 
ATOM     24  CD2 TYR A   2       1.345   3.706  18.800  0.00  0.00    +0.000 A 
BRANCH  22  25
ATOM     25  OH  TYR A   2       0.866   2.548  22.207  0.00  0.00    +0.000 OA
ATOM     26  HH  TYR A   2       0.709   3.150  22.954  0.00  0.00    +0.000 HD
ENDBRANCH  22  25
ENDBRANCH  18  19
ENDBRANCH   1  18
TORSDOF 10
ENDMDL
MODEL 7
REMARK VINA RESULT:      -6.6      0.712      1.828
REMARK  Name = 
REMARK  12 active torsions:
REMARK  status: ('A' for Active; 'I' for Inactive)
REMARK    1  A    between atoms: CD1_1  and  CG1_2
REMARK    2  A    between atoms: CG1_2  and  CB_3
REMARK    3  A    between atoms: CB_3  and  CG2_4
REMARK    4  A    between atoms: CB_3  and  CA_5
REMARK    5  A    between atoms: CA_5  and  N_6
REMARK    6  A    between atoms: CA_5  and  C_7
REMARK    7  A    between atoms: N_9  and  CA_10
REMARK    8  A    between atoms: CA_10  and  CB_11
REMARK    9  A    between atoms: CA_10  and  C_19
REMARK   10  A    between atoms: CB_11  and  CG_12
REMARK   11  A    between atoms: CZ_15  and  OH_16
REMARK   12  A    between atoms: C_19  and  OXT_21
REMARK                            x       y       z     vdW  Elec       q    Type
REMARK                         _______ _______ _______ _____ _____    ______ ____
ROOT
ATOM      1  CA  TYR A   2       4.248   3.253  19.221  0.00  0.00    +0.000 C 
ENDROOT
BRANCH   1   4
ATOM      2  C   ILE A   1       6.176   4.815  18.977  0.00  0.00    +0.000 C 
ATOM      3  O   ILE A   1       5.920   5.382  20.038  0.00  0.00    +0.000 OA
ATOM      4  N   TYR A   2       5.436   3.752  18.522  0.00  0.00    +0.000 N 
ATOM      5  H   TYR A   2       5.632   3.346  17.606  0.00  0.00    +0.000 HD
BRANCH   2   6
ATOM      6  CA  ILE A   1       7.338   5.272  18.059  0.00  0.00    +0.000 C 
BRANCH   6   7
ATOM      7  N   ILE A   1       8.076   4.076  17.600  0.00  0.00    +0.000 NA
ATOM      8  H1  ILE A   1       9.050   4.359  17.449  0.00  0.00    +0.000 HD
ATOM      9  H2  ILE A   1       7.749   3.835  16.664  0.00  0.00    +0.000 HD
ENDBRANCH   6   7
BRANCH   6  10
ATOM     10  CB  ILE A   1       6.798   6.133  16.890  0.00  0.00    +0.000 C 
ATOM     11  CG2 ILE A   1       7.182   5.558  15.515  0.00  0.00    +0.000 C 
BRANCH  10  13
ATOM     12  CD1 ILE A   1       8.144   7.991  18.094  0.00  0.00    +0.000 C 
ATOM     13  CG1 ILE A   1       7.254   7.610  16.923  0.00  0.00    +0.000 C 
ENDBRANCH  10  13
ENDBRANCH   6  10
ENDBRANCH   2   6
ENDBRANCH   1   4
BRANCH   1  14
ATOM     14  C   TYR A   2       4.351   1.723  19.299  0.00  0.00    +0.000 C 
ATOM     15  O   TYR A   2       3.695   0.963  18.594  0.00  0.00    +0.000 OA
BRANCH  14  16
ATOM     16  OXT TYR A   2       5.254   1.257  20.193  0.00  0.00    +0.000 OA
ATOM     17  HXT TYR A   2       5.218   1.667  21.078  0.00  0.00    +0.000 HD
ENDBRANCH  14  16
ENDBRANCH   1  14
BRANCH   1  18
ATOM     18  CB  TYR A   2       2.913   3.702  18.583  0.00  0.00    +0.000 C 
BRANCH  18  19
ATOM     19  CG  TYR A   2       2.465   5.074  19.031  0.00  0.00    +0.000 A 
ATOM     20  CD1 TYR A   2       2.682   6.195  18.217  0.00  0.00    +0.000 A 
ATOM     21  CE1 TYR A   2       2.380   7.473  18.683  0.00  0.00    +0.000 A 
ATOM     22  CZ  TYR A   2       1.862   7.629  19.966  0.00  0.00    +0.000 A 
ATOM     23  CE2 TYR A   2       1.606   6.530  20.772  0.00  0.00    +0.000 A 
ATOM     24  CD2 TYR A   2       1.895   5.251  20.301  0.00  0.00    +0.000 A 
BRANCH  22  25
ATOM     25  OH  TYR A   2       1.599   8.864  20.476  0.00  0.00    +0.000 OA
ATOM     26  HH  TYR A   2       2.387   9.421  20.358  0.00  0.00    +0.000 HD
ENDBRANCH  22  25
ENDBRANCH  18  19
ENDBRANCH   1  18
TORSDOF 10
ENDMDL
MODEL 8
REMARK VINA RESULT:      -6.5      1.842      2.668
REMARK  Name = 
REMARK  12 active torsions:
REMARK  status: ('A' for Active; 'I' for Inactive)
REMARK    1  A    between atoms: CD1_1  and  CG1_2
REMARK    2  A    between atoms: CG1_2  and  CB_3
REMARK    3  A    between atoms: CB_3  and  CG2_4
REMARK    4  A    between atoms: CB_3  and  CA_5
REMARK    5  A    between atoms: CA_5  and  N_6
REMARK    6  A    between atoms: CA_5  and  C_7
REMARK    7  A    between atoms: N_9  and  CA_10
REMARK    8  A    between atoms: CA_10  and  CB_11
REMARK    9  A    between atoms: CA_10  and  C_19
REMARK   10  A    between atoms: CB_11  and  CG_12
REMARK   11  A    between atoms: CZ_15  and  OH_16
REMARK   12  A    between atoms: C_19  and  OXT_21
REMARK                            x       y       z     vdW  Elec       q    Type
REMARK                         _______ _______ _______ _____ _____    ______ ____
ROOT
ATOM      1  CA  TYR A   2       2.721   4.231  19.537  0.00  0.00    +0.000 C 
ENDROOT
BRANCH   1   4
ATOM      2  C   ILE A   1       5.028   4.017  18.616  0.00  0.00    +0.000 C 
ATOM      3  O   ILE A   1       5.426   3.408  19.609  0.00  0.00    +0.000 OA
ATOM      4  N   TYR A   2       3.724   4.424  18.485  0.00  0.00    +0.000 N 
ATOM      5  H   TYR A   2       3.441   4.984  17.680  0.00  0.00    +0.000 HD
BRANCH   2   6
ATOM      6  CA  ILE A   1       5.975   4.394  17.448  0.00  0.00    +0.000 C 
BRANCH   6   7
ATOM      7  N   ILE A   1       5.672   3.520  16.295  0.00  0.00    +0.000 NA
ATOM      8  H1  ILE A   1       4.721   3.742  15.986  0.00  0.00    +0.000 HD
ATOM      9  H2  ILE A   1       5.597   2.558  16.629  0.00  0.00    +0.000 HD
ENDBRANCH   6   7
BRANCH   6  10
ATOM     10  CB  ILE A   1       5.848   5.900  17.113  0.00  0.00    +0.000 C 
ATOM     11  CG2 ILE A   1       5.335   6.139  15.682  0.00  0.00    +0.000 C 
BRANCH  10  13
ATOM     12  CD1 ILE A   1       7.877   6.513  18.606  0.00  0.00    +0.000 C 
ATOM     13  CG1 ILE A   1       7.160   6.702  17.279  0.00  0.00    +0.000 C 
ENDBRANCH  10  13
ENDBRANCH   6  10
ENDBRANCH   2   6
ENDBRANCH   1   4
BRANCH   1  14
ATOM     14  C   TYR A   2       1.397   3.839  18.865  0.00  0.00    +0.000 C 
ATOM     15  O   TYR A   2       1.207   3.905  17.655  0.00  0.00    +0.000 OA
BRANCH  14  16
ATOM     16  OXT TYR A   2       0.444   3.378  19.708  0.00  0.00    +0.000 OA
ATOM     17  HXT TYR A   2      -0.155   4.054  20.075  0.00  0.00    +0.000 HD
ENDBRANCH  14  16
ENDBRANCH   1  14
BRANCH   1  18
ATOM     18  CB  TYR A   2       2.548   5.454  20.467  0.00  0.00    +0.000 C 
BRANCH  18  19
ATOM     19  CG  TYR A   2       2.375   6.756  19.720  0.00  0.00    +0.000 A 
ATOM     20  CD1 TYR A   2       1.638   7.808  20.284  0.00  0.00    +0.000 A 
ATOM     21  CE1 TYR A   2       1.377   8.960  19.544  0.00  0.00    +0.000 A 
ATOM     22  CZ  TYR A   2       1.853   9.058  18.239  0.00  0.00    +0.000 A 
ATOM     23  CE2 TYR A   2       2.615   8.045  17.678  0.00  0.00    +0.000 A 
ATOM     24  CD2 TYR A   2       2.887   6.898  18.422  0.00  0.00    +0.000 A 
BRANCH  22  25
ATOM     25  OH  TYR A   2       1.578  10.147  17.468  0.00  0.00    +0.000 OA
ATOM     26  HH  TYR A   2       1.302   9.840  16.588  0.00  0.00    +0.000 HD
ENDBRANCH  22  25
ENDBRANCH  18  19
ENDBRANCH   1  18
TORSDOF 10
ENDMDL
MODEL 9
REMARK VINA RESULT:      -6.5      3.009      4.431
REMARK  Name = 
REMARK  12 active torsions:
REMARK  status: ('A' for Active; 'I' for Inactive)
REMARK    1  A    between atoms: CD1_1  and  CG1_2
REMARK    2  A    between atoms: CG1_2  and  CB_3
REMARK    3  A    between atoms: CB_3  and  CG2_4
REMARK    4  A    between atoms: CB_3  and  CA_5
REMARK    5  A    between atoms: CA_5  and  N_6
REMARK    6  A    between atoms: CA_5  and  C_7
REMARK    7  A    between atoms: N_9  and  CA_10
REMARK    8  A    between atoms: CA_10  and  CB_11
REMARK    9  A    between atoms: CA_10  and  C_19
REMARK   10  A    between atoms: CB_11  and  CG_12
REMARK   11  A    between atoms: CZ_15  and  OH_16
REMARK   12  A    between atoms: C_19  and  OXT_21
REMARK                            x       y       z     vdW  Elec       q    Type
REMARK                         _______ _______ _______ _____ _____    ______ ____
ROOT
ATOM      1  CA  TYR A   2       4.658   4.311  17.080  0.00  0.00    +0.000 C 
ENDROOT
BRANCH   1   4
ATOM      2  C   ILE A   1       5.695   5.357  15.068  0.00  0.00    +0.000 C 
ATOM      3  O   ILE A   1       5.210   6.459  15.326  0.00  0.00    +0.000 OA
ATOM      4  N   TYR A   2       5.504   4.270  15.883  0.00  0.00    +0.000 N 
ATOM      5  H   TYR A   2       5.863   3.354  15.608  0.00  0.00    +0.000 HD
BRANCH   2   6
ATOM      6  CA  ILE A   1       6.535   5.106  13.791  0.00  0.00    +0.000 C 
BRANCH   6   7
ATOM      7  N   ILE A   1       7.969   5.160  14.151  0.00  0.00    +0.000 NA
ATOM      8  H1  ILE A   1       8.033   5.589  15.079  0.00  0.00    +0.000 HD
ATOM      9  H2  ILE A   1       8.429   5.837  13.542  0.00  0.00    +0.000 HD
ENDBRANCH   6   7
BRANCH   6  10
ATOM     10  CB  ILE A   1       6.129   3.765  13.130  0.00  0.00    +0.000 C 
ATOM     11  CG2 ILE A   1       7.083   3.364  11.991  0.00  0.00    +0.000 C 
BRANCH  10  13
ATOM     12  CD1 ILE A   1       4.484   2.870  11.338  0.00  0.00    +0.000 C 
ATOM     13  CG1 ILE A   1       4.690   3.745  12.564  0.00  0.00    +0.000 C 
ENDBRANCH  10  13
ENDBRANCH   6  10
ENDBRANCH   2   6
ENDBRANCH   1   4
BRANCH   1  14
ATOM     14  C   TYR A   2       5.532   4.756  18.263  0.00  0.00    +0.000 C 
ATOM     15  O   TYR A   2       5.215   5.651  19.039  0.00  0.00    +0.000 OA
BRANCH  14  16
ATOM     16  OXT TYR A   2       6.682   4.060  18.416  0.00  0.00    +0.000 OA
ATOM     17  HXT TYR A   2       7.041   3.658  17.602  0.00  0.00    +0.000 HD
ENDBRANCH  14  16
ENDBRANCH   1  14
BRANCH   1  18
ATOM     18  CB  TYR A   2       3.931   2.980  17.378  0.00  0.00    +0.000 C 
BRANCH  18  19
ATOM     19  CG  TYR A   2       3.165   2.993  18.680  0.00  0.00    +0.000 A 
ATOM     20  CD1 TYR A   2       3.773   2.559  19.868  0.00  0.00    +0.000 A 
ATOM     21  CE1 TYR A   2       3.029   2.456  21.043  0.00  0.00    +0.000 A 
ATOM     22  CZ  TYR A   2       1.677   2.788  21.028  0.00  0.00    +0.000 A 
ATOM     23  CE2 TYR A   2       1.068   3.254  19.873  0.00  0.00    +0.000 A 
ATOM     24  CD2 TYR A   2       1.814   3.370  18.701  0.00  0.00    +0.000 A 
BRANCH  22  25
ATOM     25  OH  TYR A   2       0.906   2.655  22.143  0.00  0.00    +0.000 OA
ATOM     26  HH  TYR A   2       1.225   1.890  22.649  0.00  0.00    +0.000 HD
ENDBRANCH  22  25
ENDBRANCH  18  19
ENDBRANCH   1  18
TORSDOF 10
ENDMDL
