MODEL 1
REMARK VINA RESULT:      -6.8      0.000      0.000
REMARK  Name = 
REMARK  7 active torsions:
REMARK  status: ('A' for Active; 'I' for Inactive)
REMARK    1  A    between atoms: C_1  and  N_2
REMARK    2  A    between atoms: N_2  and  C_3
REMARK    3  A    between atoms: N_2  and  C_12
REMARK    4  A    between atoms: C_3  and  C_4
REMARK    5  A    between atoms: C_4  and  N_5
REMARK    6  A    between atoms: C_12  and  C_13
REMARK    7  A    between atoms: C_13  and  N_14
REMARK                            x       y       z     vdW  Elec       q    Type
REMARK                         _______ _______ _______ _____ _____    ______ ____
ROOT
ATOM      1  C   UNL     1       5.555   4.273  17.679  0.00  0.00    +0.000 C 
ATOM      2  N   UNL     1       4.693   5.228  16.962  0.00  0.00    +0.000 NA
ENDROOT
BRANCH   2   3
ATOM      3  C   UNL     1       4.164   6.214  17.945  0.00  0.00    +0.000 C 
BRANCH   3   4
ATOM      4  C   UNL     1       2.634   6.148  18.166  0.00  0.00    +0.000 C 
BRANCH   4   5
ATOM      5  N   UNL     1       2.189   5.052  19.036  0.00  0.00    +0.000 N 
ATOM      6  C   UNL     1       2.215   5.267  20.477  0.00  0.00    +0.000 C 
ATOM      7  C   UNL     1       2.230   3.963  21.258  0.00  0.00    +0.000 C 
ATOM      8  C   UNL     1       1.054   3.113  20.817  0.00  0.00    +0.000 C 
ATOM      9  C   UNL     1       1.161   2.806  19.335  0.00  0.00    +0.000 C 
ATOM     10  C   UNL     1       1.514   3.989  18.452  0.00  0.00    +0.000 C 
ATOM     11  O   UNL     1       1.292   3.934  17.241  0.00  0.00    +0.000 OA
ENDBRANCH   4   5
ENDBRANCH   3   4
ENDBRANCH   2   3
BRANCH   2  12
ATOM     12  C   UNL     1       5.463   5.908  15.888  0.00  0.00    +0.000 C 
BRANCH  12  13
ATOM     13  C   UNL     1       6.805   5.236  15.527  0.00  0.00    +0.000 C 
BRANCH  13  14
ATOM     14  N   UNL     1       6.807   4.702  14.184  0.00  0.00    +0.000 N 
ATOM     15  C   UNL     1       5.950   3.751  13.677  0.00  0.00    +0.000 A 
ATOM     16  C   UNL     1       6.277   3.521  12.396  0.00  0.00    +0.000 A 
ATOM     17  N   UNL     1       7.333   4.328  12.064  0.00  0.00    +0.000 N 
ATOM     18  C   UNL     1       7.702   5.106  13.172  0.00  0.00    +0.000 A 
ATOM     19  O   UNL     1       8.596   5.928  13.226  0.00  0.00    +0.000 OA
ATOM     20  H   UNL     1       7.804   4.380  11.171  0.00  0.00    +0.000 HD
ENDBRANCH  13  14
ENDBRANCH  12  13
ENDBRANCH   2  12
TORSDOF 6
ENDMDL
MODEL 2
REMARK VINA RESULT:      -6.7      1.693      2.090
REMARK  Name = 
REMARK  7 active torsions:
REMARK  status: ('A' for Active; 'I' for Inactive)
REMARK    1  A    between atoms: C_1  and  N_2
REMARK    2  A    between atoms: N_2  and  C_3
REMARK    3  A    between atoms: N_2  and  C_12
REMARK    4  A    between atoms: C_3  and  C_4
REMARK    5  A    between atoms: C_4  and  N_5
REMARK    6  A    between atoms: C_12  and  C_13
REMARK    7  A    between atoms: C_13  and  N_14
REMARK                            x       y       z     vdW  Elec       q    Type
REMARK                         _______ _______ _______ _____ _____    ______ ____
ROOT
ATOM      1  C   UNL     1       5.579   4.937  18.537  0.00  0.00    +0.000 C 
ATOM      2  N   UNL     1       5.342   4.384  17.193  0.00  0.00    +0.000 NA
ENDROOT
BRANCH   2   3
ATOM      3  C   UNL     1       3.929   3.920  17.116  0.00  0.00    +0.000 C 
BRANCH   3   4
ATOM      4  C   UNL     1       3.646   2.587  17.848  0.00  0.00    +0.000 C 
BRANCH   4   5
ATOM      5  N   UNL     1       2.891   2.726  19.100  0.00  0.00    +0.000 N 
ATOM      6  C   UNL     1       1.447   2.905  19.014  0.00  0.00    +0.000 C 
ATOM      7  C   UNL     1       0.864   3.527  20.272  0.00  0.00    +0.000 C 
ATOM      8  C   UNL     1       1.276   2.691  21.469  0.00  0.00    +0.000 C 
ATOM      9  C   UNL     1       2.788   2.660  21.585  0.00  0.00    +0.000 C 
ATOM     10  C   UNL     1       3.533   2.403  20.288  0.00  0.00    +0.000 C 
ATOM     11  O   UNL     1       4.705   2.023  20.322  0.00  0.00    +0.000 OA
ENDBRANCH   4   5
ENDBRANCH   3   4
ENDBRANCH   2   3
BRANCH   2  12
ATOM     12  C   UNL     1       5.621   5.414  16.158  0.00  0.00    +0.000 C 
BRANCH  12  13
ATOM     13  C   UNL     1       6.994   5.281  15.464  0.00  0.00    +0.000 C 
BRANCH  13  14
ATOM     14  N   UNL     1       6.885   4.724  14.135  0.00  0.00    +0.000 N 
ATOM     15  C   UNL     1       5.980   3.775  13.715  0.00  0.00    +0.000 A 
ATOM     16  C   UNL     1       6.204   3.519  12.416  0.00  0.00    +0.000 A 
ATOM     17  N   UNL     1       7.240   4.306  11.988  0.00  0.00    +0.000 N 
ATOM     18  C   UNL     1       7.703   5.098  13.050  0.00  0.00    +0.000 A 
ATOM     19  O   UNL     1       8.608   5.910  13.019  0.00  0.00    +0.000 OA
ATOM     20  H   UNL     1       7.640   4.337  11.060  0.00  0.00    +0.000 HD
ENDBRANCH  13  14
ENDBRANCH  12  13
ENDBRANCH   2  12
TORSDOF 6
ENDMDL
MODEL 3
REMARK VINA RESULT:      -6.3      1.043      1.102
REMARK  Name = 
REMARK  7 active torsions:
REMARK  status: ('A' for Active; 'I' for Inactive)
REMARK    1  A    between atoms: C_1  and  N_2
REMARK    2  A    between atoms: N_2  and  C_3
REMARK    3  A    between atoms: N_2  and  C_12
REMARK    4  A    between atoms: C_3  and  C_4
REMARK    5  A    between atoms: C_4  and  N_5
REMARK    6  A    between atoms: C_12  and  C_13
REMARK    7  A    between atoms: C_13  and  N_14
REMARK                            x       y       z     vdW  Elec       q    Type
REMARK                         _______ _______ _______ _____ _____    ______ ____
ROOT
ATOM      1  C   UNL     1       6.618   6.561  17.777  0.00  0.00    +0.000 C 
ATOM      2  N   UNL     1       5.767   5.360  17.731  0.00  0.00    +0.000 NA
ENDROOT
BRANCH   2   3
ATOM      3  C   UNL     1       4.346   5.793  17.626  0.00  0.00    +0.000 C 
BRANCH   3   4
ATOM      4  C   UNL     1       3.338   4.646  17.379  0.00  0.00    +0.000 C 
BRANCH   4   5
ATOM      5  N   UNL     1       2.690   4.129  18.591  0.00  0.00    +0.000 N 
ATOM      6  C   UNL     1       2.464   5.053  19.695  0.00  0.00    +0.000 C 
ATOM      7  C   UNL     1       2.275   4.335  21.021  0.00  0.00    +0.000 C 
ATOM      8  C   UNL     1       1.158   3.319  20.875  0.00  0.00    +0.000 C 
ATOM      9  C   UNL     1       1.517   2.303  19.807  0.00  0.00    +0.000 C 
ATOM     10  C   UNL     1       2.081   2.884  18.523  0.00  0.00    +0.000 C 
ATOM     11  O   UNL     1       2.079   2.205  17.495  0.00  0.00    +0.000 OA
ENDBRANCH   4   5
ENDBRANCH   3   4
ENDBRANCH   2   3
BRANCH   2  12
ATOM     12  C   UNL     1       6.148   4.505  16.577  0.00  0.00    +0.000 C 
BRANCH  12  13
ATOM     13  C   UNL     1       7.145   5.152  15.591  0.00  0.00    +0.000 C 
BRANCH  13  14
ATOM     14  N   UNL     1       6.974   4.668  14.241  0.00  0.00    +0.000 N 
ATOM     15  C   UNL     1       6.043   3.748  13.810  0.00  0.00    +0.000 A 
ATOM     16  C   UNL     1       6.208   3.560  12.492  0.00  0.00    +0.000 A 
ATOM     17  N   UNL     1       7.231   4.363  12.061  0.00  0.00    +0.000 N 
ATOM     18  C   UNL     1       7.746   5.095  13.142  0.00  0.00    +0.000 A 
ATOM     19  O   UNL     1       8.655   5.902  13.114  0.00  0.00    +0.000 OA
ATOM     20  H   UNL     1       7.590   4.441  11.119  0.00  0.00    +0.000 HD
ENDBRANCH  13  14
ENDBRANCH  12  13
ENDBRANCH   2  12
TORSDOF 6
ENDMDL
MODEL 4
REMARK VINA RESULT:      -6.3      2.467      3.554
REMARK  Name = 
REMARK  7 active torsions:
REMARK  status: ('A' for Active; 'I' for Inactive)
REMARK    1  A    between atoms: C_1  and  N_2
REMARK    2  A    between atoms: N_2  and  C_3
REMARK    3  A    between atoms: N_2  and  C_12
REMARK    4  A    between atoms: C_3  and  C_4
REMARK    5  A    between atoms: C_4  and  N_5
REMARK    6  A    between atoms: C_12  and  C_13
REMARK    7  A    between atoms: C_13  and  N_14
REMARK                            x       y       z     vdW  Elec       q    Type
REMARK                         _______ _______ _______ _____ _____    ______ ____
ROOT
ATOM      1  C   UNL     1       3.724   5.999  17.814  0.00  0.00    +0.000 C 
ATOM      2  N   UNL     1       4.535   4.968  17.144  0.00  0.00    +0.000 NA
ENDROOT
BRANCH   2   3
ATOM      3  C   UNL     1       3.633   3.864  16.715  0.00  0.00    +0.000 C 
BRANCH   3   4
ATOM      4  C   UNL     1       3.643   2.625  17.641  0.00  0.00    +0.000 C 
BRANCH   4   5
ATOM      5  N   UNL     1       2.922   2.804  18.908  0.00  0.00    +0.000 N 
ATOM      6  C   UNL     1       3.702   2.889  20.136  0.00  0.00    +0.000 C 
ATOM      7  C   UNL     1       2.878   2.566  21.370  0.00  0.00    +0.000 C 
ATOM      8  C   UNL     1       1.656   3.465  21.395  0.00  0.00    +0.000 C 
ATOM      9  C   UNL     1       0.812   3.226  20.157  0.00  0.00    +0.000 C 
ATOM     10  C   UNL     1       1.581   3.159  18.850  0.00  0.00    +0.000 C 
ATOM     11  O   UNL     1       0.985   3.314  17.783  0.00  0.00    +0.000 OA
ENDBRANCH   4   5
ENDBRANCH   3   4
ENDBRANCH   2   3
BRANCH   2  12
ATOM     12  C   UNL     1       5.249   5.554  15.980  0.00  0.00    +0.000 C 
BRANCH  12  13
ATOM     13  C   UNL     1       6.783   5.385  16.008  0.00  0.00    +0.000 C 
BRANCH  13  14
ATOM     14  N   UNL     1       7.349   5.723  17.294  0.00  0.00    +0.000 N 
ATOM     15  C   UNL     1       7.688   4.843  18.299  0.00  0.00    +0.000 A 
ATOM     16  C   UNL     1       8.178   5.546  19.332  0.00  0.00    +0.000 A 
ATOM     17  N   UNL     1       8.172   6.875  18.999  0.00  0.00    +0.000 N 
ATOM     18  C   UNL     1       7.659   7.036  17.703  0.00  0.00    +0.000 A 
ATOM     19  O   UNL     1       7.516   8.080  17.096  0.00  0.00    +0.000 OA
ATOM     20  H   UNL     1       8.479   7.649  19.572  0.00  0.00    +0.000 HD
ENDBRANCH  13  14
ENDBRANCH  12  13
ENDBRANCH   2  12
TORSDOF 6
ENDMDL
MODEL 5
REMARK VINA RESULT:      -6.3      3.449      6.313
REMARK  Name = 
REMARK  7 active torsions:
REMARK  status: ('A' for Active; 'I' for Inactive)
REMARK    1  A    between atoms: C_1  and  N_2
REMARK    2  A    between atoms: N_2  and  C_3
REMARK    3  A    between atoms: N_2  and  C_12
REMARK    4  A    between atoms: C_3  and  C_4
REMARK    5  A    between atoms: C_4  and  N_5
REMARK    6  A    between atoms: C_12  and  C_13
REMARK    7  A    between atoms: C_13  and  N_14
REMARK                            x       y       z     vdW  Elec       q    Type
REMARK                         _______ _______ _______ _____ _____    ______ ____
ROOT
ATOM      1  C   UNL     1       4.829   4.257  16.862  0.00  0.00    +0.000 C 
ATOM      2  N   UNL     1       4.848   5.231  17.966  0.00  0.00    +0.000 NA
ENDROOT
BRANCH   2   3
ATOM      3  C   UNL     1       3.718   6.182  17.775  0.00  0.00    +0.000 C 
BRANCH   3   4
ATOM      4  C   UNL     1       2.941   6.529  19.066  0.00  0.00    +0.000 C 
BRANCH   4   5
ATOM      5  N   UNL     1       2.254   7.827  19.036  0.00  0.00    +0.000 N 
ATOM      6  C   UNL     1       2.159   8.524  17.759  0.00  0.00    +0.000 C 
ATOM      7  C   UNL     1       1.906  10.012  17.929  0.00  0.00    +0.000 C 
ATOM      8  C   UNL     1       0.671  10.205  18.790  0.00  0.00    +0.000 C 
ATOM      9  C   UNL     1       0.888   9.579  20.155  0.00  0.00    +0.000 C 
ATOM     10  C   UNL     1       1.497   8.189  20.142  0.00  0.00    +0.000 C 
ATOM     11  O   UNL     1       1.398   7.470  21.137  0.00  0.00    +0.000 OA
ENDBRANCH   4   5
ENDBRANCH   3   4
ENDBRANCH   2   3
BRANCH   2  12
ATOM     12  C   UNL     1       4.737   4.529  19.271  0.00  0.00    +0.000 C 
BRANCH  12  13
ATOM     13  C   UNL     1       4.167   3.096  19.191  0.00  0.00    +0.000 C 
BRANCH  13  14
ATOM     14  N   UNL     1       2.870   2.987  19.817  0.00  0.00    +0.000 N 
ATOM     15  C   UNL     1       2.619   2.821  21.162  0.00  0.00    +0.000 A 
ATOM     16  C   UNL     1       1.290   2.760  21.343  0.00  0.00    +0.000 A 
ATOM     17  N   UNL     1       0.677   2.897  20.126  0.00  0.00    +0.000 N 
ATOM     18  C   UNL     1       1.645   3.053  19.122  0.00  0.00    +0.000 A 
ATOM     19  O   UNL     1       1.450   3.202  17.931  0.00  0.00    +0.000 OA
ATOM     20  H   UNL     1      -0.317   2.890  19.939  0.00  0.00    +0.000 HD
ENDBRANCH  13  14
ENDBRANCH  12  13
ENDBRANCH   2  12
TORSDOF 6
ENDMDL
MODEL 6
REMARK VINA RESULT:      -6.3      1.041      1.524
REMARK  Name = 
REMARK  7 active torsions:
REMARK  status: ('A' for Active; 'I' for Inactive)
REMARK    1  A    between atoms: C_1  and  N_2
REMARK    2  A    between atoms: N_2  and  C_3
REMARK    3  A    between atoms: N_2  and  C_12
REMARK    4  A    between atoms: C_3  and  C_4
REMARK    5  A    between atoms: C_4  and  N_5
REMARK    6  A    between atoms: C_12  and  C_13
REMARK    7  A    between atoms: C_13  and  N_14
REMARK                            x       y       z     vdW  Elec       q    Type
REMARK                         _______ _______ _______ _____ _____    ______ ____
ROOT
ATOM      1  C   UNL     1       5.862   4.348  17.823  0.00  0.00    +0.000 C 
ATOM      2  N   UNL     1       4.862   5.118  17.063  0.00  0.00    +0.000 NA
ENDROOT
BRANCH   2   3
ATOM      3  C   UNL     1       4.161   6.036  18.003  0.00  0.00    +0.000 C 
BRANCH   3   4
ATOM      4  C   UNL     1       2.618   5.933  17.977  0.00  0.00    +0.000 C 
BRANCH   4   5
ATOM      5  N   UNL     1       2.070   4.785  18.710  0.00  0.00    +0.000 N 
ATOM      6  C   UNL     1       2.060   3.487  18.047  0.00  0.00    +0.000 C 
ATOM      7  C   UNL     1       1.052   2.530  18.660  0.00  0.00    +0.000 C 
ATOM      8  C   UNL     1       1.320   2.420  20.149  0.00  0.00    +0.000 C 
ATOM      9  C   UNL     1       1.176   3.781  20.804  0.00  0.00    +0.000 C 
ATOM     10  C   UNL     1       1.852   4.927  20.074  0.00  0.00    +0.000 C 
ATOM     11  O   UNL     1       2.089   5.977  20.674  0.00  0.00    +0.000 OA
ENDBRANCH   4   5
ENDBRANCH   3   4
ENDBRANCH   2   3
BRANCH   2  12
ATOM     12  C   UNL     1       5.523   5.878  15.971  0.00  0.00    +0.000 C 
BRANCH  12  13
ATOM     13  C   UNL     1       6.894   5.322  15.531  0.00  0.00    +0.000 C 
BRANCH  13  14
ATOM     14  N   UNL     1       6.857   4.763  14.199  0.00  0.00    +0.000 N 
ATOM     15  C   UNL     1       5.971   3.818  13.729  0.00  0.00    +0.000 A 
ATOM     16  C   UNL     1       6.267   3.558  12.446  0.00  0.00    +0.000 A 
ATOM     17  N   UNL     1       7.331   4.338  12.076  0.00  0.00    +0.000 N 
ATOM     18  C   UNL     1       7.737   5.129  13.160  0.00  0.00    +0.000 A 
ATOM     19  O   UNL     1       8.647   5.936  13.179  0.00  0.00    +0.000 OA
ATOM     20  H   UNL     1       7.782   4.364  11.172  0.00  0.00    +0.000 HD
ENDBRANCH  13  14
ENDBRANCH  12  13
ENDBRANCH   2  12
TORSDOF 6
ENDMDL
MODEL 7
REMARK VINA RESULT:      -6.3      2.814      4.077
REMARK  Name = 
REMARK  7 active torsions:
REMARK  status: ('A' for Active; 'I' for Inactive)
REMARK    1  A    between atoms: C_1  and  N_2
REMARK    2  A    between atoms: N_2  and  C_3
REMARK    3  A    between atoms: N_2  and  C_12
REMARK    4  A    between atoms: C_3  and  C_4
REMARK    5  A    between atoms: C_4  and  N_5
REMARK    6  A    between atoms: C_12  and  C_13
REMARK    7  A    between atoms: C_13  and  N_14
REMARK                            x       y       z     vdW  Elec       q    Type
REMARK                         _______ _______ _______ _____ _____    ______ ____
ROOT
ATOM      1  C   UNL     1       5.392   3.930  15.922  0.00  0.00    +0.000 C 
ATOM      2  N   UNL     1       4.074   4.449  16.325  0.00  0.00    +0.000 NA
ENDROOT
BRANCH   2   3
ATOM      3  C   UNL     1       3.203   3.294  16.680  0.00  0.00    +0.000 C 
BRANCH   3   4
ATOM      4  C   UNL     1       3.685   2.471  17.898  0.00  0.00    +0.000 C 
BRANCH   4   5
ATOM      5  N   UNL     1       2.909   2.686  19.126  0.00  0.00    +0.000 N 
ATOM      6  C   UNL     1       1.467   2.862  19.005  0.00  0.00    +0.000 C 
ATOM      7  C   UNL     1       0.865   3.558  20.213  0.00  0.00    +0.000 C 
ATOM      8  C   UNL     1       1.254   2.795  21.465  0.00  0.00    +0.000 C 
ATOM      9  C   UNL     1       2.764   2.769  21.608  0.00  0.00    +0.000 C 
ATOM     10  C   UNL     1       3.530   2.434  20.341  0.00  0.00    +0.000 C 
ATOM     11  O   UNL     1       4.700   2.054  20.418  0.00  0.00    +0.000 OA
ENDBRANCH   4   5
ENDBRANCH   3   4
ENDBRANCH   2   3
BRANCH   2  12
ATOM     12  C   UNL     1       4.218   5.379  17.474  0.00  0.00    +0.000 C 
BRANCH  12  13
ATOM     13  C   UNL     1       5.212   6.539  17.249  0.00  0.00    +0.000 C 
BRANCH  13  14
ATOM     14  N   UNL     1       6.394   6.416  18.071  0.00  0.00    +0.000 N 
ATOM     15  C   UNL     1       6.599   5.503  19.082  0.00  0.00    +0.000 A 
ATOM     16  C   UNL     1       7.816   5.714  19.606  0.00  0.00    +0.000 A 
ATOM     17  N   UNL     1       8.409   6.750  18.933  0.00  0.00    +0.000 N 
ATOM     18  C   UNL     1       7.540   7.225  17.938  0.00  0.00    +0.000 A 
ATOM     19  O   UNL     1       7.748   8.134  17.157  0.00  0.00    +0.000 OA
ATOM     20  H   UNL     1       9.325   7.142  19.100  0.00  0.00    +0.000 HD
ENDBRANCH  13  14
ENDBRANCH  12  13
ENDBRANCH   2  12
TORSDOF 6
ENDMDL
MODEL 8
REMARK VINA RESULT:      -6.2      2.662      6.243
REMARK  Name = 
REMARK  7 active torsions:
REMARK  status: ('A' for Active; 'I' for Inactive)
REMARK    1  A    between atoms: C_1  and  N_2
REMARK    2  A    between atoms: N_2  and  C_3
REMARK    3  A    between atoms: N_2  and  C_12
REMARK    4  A    between atoms: C_3  and  C_4
REMARK    5  A    between atoms: C_4  and  N_5
REMARK    6  A    between atoms: C_12  and  C_13
REMARK    7  A    between atoms: C_13  and  N_14
REMARK                            x       y       z     vdW  Elec       q    Type
REMARK                         _______ _______ _______ _____ _____    ______ ____
ROOT
ATOM      1  C   UNL     1       1.780   7.775  20.137  0.00  0.00    +0.000 C 
ATOM      2  N   UNL     1       2.080   6.502  19.461  0.00  0.00    +0.000 NA
ENDROOT
BRANCH   2   3
ATOM      3  C   UNL     1       3.137   6.748  18.440  0.00  0.00    +0.000 C 
BRANCH   3   4
ATOM      4  C   UNL     1       3.582   5.492  17.655  0.00  0.00    +0.000 C 
BRANCH   4   5
ATOM      5  N   UNL     1       5.033   5.270  17.629  0.00  0.00    +0.000 N 
ATOM      6  C   UNL     1       5.787   5.516  18.851  0.00  0.00    +0.000 C 
ATOM      7  C   UNL     1       7.265   5.747  18.585  0.00  0.00    +0.000 C 
ATOM      8  C   UNL     1       7.810   4.573  17.792  0.00  0.00    +0.000 C 
ATOM      9  C   UNL     1       7.078   4.457  16.468  0.00  0.00    +0.000 C 
ATOM     10  C   UNL     1       5.568   4.581  16.549  0.00  0.00    +0.000 C 
ATOM     11  O   UNL     1       4.871   4.168  15.620  0.00  0.00    +0.000 OA
ENDBRANCH   4   5
ENDBRANCH   3   4
ENDBRANCH   2   3
BRANCH   2  12
ATOM     12  C   UNL     1       2.524   5.487  20.451  0.00  0.00    +0.000 C 
BRANCH  12  13
ATOM     13  C   UNL     1       1.656   4.212  20.507  0.00  0.00    +0.000 C 
BRANCH  13  14
ATOM     14  N   UNL     1       2.206   3.138  19.712  0.00  0.00    +0.000 N 
ATOM     15  C   UNL     1       3.509   2.690  19.728  0.00  0.00    +0.000 A 
ATOM     16  C   UNL     1       3.624   1.683  18.848  0.00  0.00    +0.000 A 
ATOM     17  N   UNL     1       2.400   1.465  18.271  0.00  0.00    +0.000 N 
ATOM     18  C   UNL     1       1.462   2.366  18.797  0.00  0.00    +0.000 A 
ATOM     19  O   UNL     1       0.283   2.448  18.510  0.00  0.00    +0.000 OA
ATOM     20  H   UNL     1       2.171   0.775  17.569  0.00  0.00    +0.000 HD
ENDBRANCH  13  14
ENDBRANCH  12  13
ENDBRANCH   2  12
TORSDOF 6
ENDMDL
MODEL 9
REMARK VINA RESULT:      -6.2      1.559      1.803
REMARK  Name = 
REMARK  7 active torsions:
REMARK  status: ('A' for Active; 'I' for Inactive)
REMARK    1  A    between atoms: C_1  and  N_2
REMARK    2  A    between atoms: N_2  and  C_3
REMARK    3  A    between atoms: N_2  and  C_12
REMARK    4  A    between atoms: C_3  and  C_4
REMARK    5  A    between atoms: C_4  and  N_5
REMARK    6  A    between atoms: C_12  and  C_13
REMARK    7  A    between atoms: C_13  and  N_14
REMARK                            x       y       z     vdW  Elec       q    Type
REMARK                         _______ _______ _______ _____ _____    ______ ____
ROOT
ATOM      1  C   UNL     1       4.031   3.343  16.759  0.00  0.00    +0.000 C 
ATOM      2  N   UNL     1       4.836   4.563  16.585  0.00  0.00    +0.000 NA
ENDROOT
BRANCH   2   3
ATOM      3  C   UNL     1       4.647   5.427  17.783  0.00  0.00    +0.000 C 
BRANCH   3   4
ATOM      4  C   UNL     1       4.893   4.719  19.136  0.00  0.00    +0.000 C 
BRANCH   4   5
ATOM      5  N   UNL     1       3.674   4.273  19.822  0.00  0.00    +0.000 N 
ATOM      6  C   UNL     1       2.455   5.048  19.629  0.00  0.00    +0.000 C 
ATOM      7  C   UNL     1       1.439   4.817  20.736  0.00  0.00    +0.000 C 
ATOM      8  C   UNL     1       1.170   3.328  20.852  0.00  0.00    +0.000 C 
ATOM      9  C   UNL     1       2.452   2.594  21.193  0.00  0.00    +0.000 C 
ATOM     10  C   UNL     1       3.669   3.003  20.384  0.00  0.00    +0.000 C 
ATOM     11  O   UNL     1       4.648   2.257  20.334  0.00  0.00    +0.000 OA
ENDBRANCH   4   5
ENDBRANCH   3   4
ENDBRANCH   2   3
BRANCH   2  12
ATOM     12  C   UNL     1       6.269   4.211  16.404  0.00  0.00    +0.000 C 
BRANCH  12  13
ATOM     13  C   UNL     1       7.044   5.129  15.435  0.00  0.00    +0.000 C 
BRANCH  13  14
ATOM     14  N   UNL     1       6.983   4.662  14.069  0.00  0.00    +0.000 N 
ATOM     15  C   UNL     1       6.127   3.707  13.566  0.00  0.00    +0.000 A 
ATOM     16  C   UNL     1       6.384   3.552  12.258  0.00  0.00    +0.000 A 
ATOM     17  N   UNL     1       7.392   4.410  11.905  0.00  0.00    +0.000 N 
ATOM     18  C   UNL     1       7.801   5.145  13.028  0.00  0.00    +0.000 A 
ATOM     19  O   UNL     1       8.670   5.995  13.071  0.00  0.00    +0.000 OA
ATOM     20  H   UNL     1       7.806   4.522  10.990  0.00  0.00    +0.000 HD
ENDBRANCH  13  14
ENDBRANCH  12  13
ENDBRANCH   2  12
TORSDOF 6
ENDMDL
