MODEL 1
REMARK VINA RESULT:      -8.3      0.000      0.000
REMARK  Name = 
REMARK  3 active torsions:
REMARK  status: ('A' for Active; 'I' for Inactive)
REMARK    1  A    between atoms: O_1  and  C_2
REMARK    2  A    between atoms: C_7  and  C_8
REMARK    3  A    between atoms: N_16  and  C_17
REMARK                            x       y       z     vdW  Elec       q    Type
REMARK                         _______ _______ _______ _____ _____    ______ ____
ROOT
ATOM      1  C   UNL     1       5.920   3.099  12.342  0.00  0.00    +0.000 A 
ATOM      2  C   UNL     1       6.956   3.960  12.008  0.00  0.00    +0.000 A 
ATOM      3  C   UNL     1       7.420   4.862  12.968  0.00  0.00    +0.000 A 
ATOM      4  C   UNL     1       6.879   4.926  14.246  0.00  0.00    +0.000 A 
ATOM      5  N   UNL     1       7.393   5.814  15.100  0.00  0.00    +0.000 NA
ATOM      6  C   UNL     1       6.888   5.840  16.342  0.00  0.00    +0.000 A 
ATOM      7  N   UNL     1       5.888   5.053  16.756  0.00  0.00    +0.000 NA
ATOM      8  C   UNL     1       5.339   4.185  15.884  0.00  0.00    +0.000 A 
ATOM      9  N   UNL     1       4.301   3.331  16.364  0.00  0.00    +0.000 N 
ATOM     10  C   UNL     1       5.832   4.052  14.578  0.00  0.00    +0.000 A 
ATOM     11  C   UNL     1       5.357   3.136  13.609  0.00  0.00    +0.000 A 
ATOM     12  H   UNL     1       3.632   3.151  15.622  0.00  0.00    +0.000 HD
ENDROOT
BRANCH   9  13
ATOM     13  C   UNL     1       3.569   3.606  17.554  0.00  0.00    +0.000 A 
ATOM     14  C   UNL     1       2.640   4.657  17.612  0.00  0.00    +0.000 A 
ATOM     15  C   UNL     1       1.973   4.992  18.792  0.00  0.00    +0.000 A 
ATOM     16  C   UNL     1       2.240   4.198  19.906  0.00  0.00    +0.000 A 
ATOM     17  N   UNL     1       1.833   4.299  21.209  0.00  0.00    +0.000 N 
ATOM     18  N   UNL     1       2.252   3.289  21.992  0.00  0.00    +0.000 NA
ATOM     19  C   UNL     1       2.996   2.547  21.167  0.00  0.00    +0.000 A 
ATOM     20  C   UNL     1       3.060   3.077  19.859  0.00  0.00    +0.000 A 
ATOM     21  C   UNL     1       3.717   2.752  18.658  0.00  0.00    +0.000 A 
ATOM     22  H   UNL     1       1.282   5.038  21.627  0.00  0.00    +0.000 HD
ENDBRANCH   9  13
BRANCH   6  23
ATOM     23  C   UNL     1       7.477   6.771  17.328  0.00  0.00    +0.000 A 
ATOM     24  C   UNL     1       7.607   8.146  17.058  0.00  0.00    +0.000 A 
ATOM     25  C   UNL     1       8.210   9.018  17.972  0.00  0.00    +0.000 A 
ATOM     26  C   UNL     1       8.693   8.534  19.184  0.00  0.00    +0.000 A 
ATOM     27  C   UNL     1       8.560   7.183  19.489  0.00  0.00    +0.000 A 
ATOM     28  C   UNL     1       7.957   6.315  18.573  0.00  0.00    +0.000 A 
ENDBRANCH   6  23
BRANCH   1  29
ATOM     29  O   UNL     1       5.419   2.203  11.450  0.00  0.00    +0.000 OA
ATOM     30  H   UNL     1       4.970   1.490  11.933  0.00  0.00    +0.000 HD
ENDBRANCH   1  29
TORSDOF 3
ENDMDL
MODEL 2
REMARK VINA RESULT:      -7.5      7.920     11.159
REMARK  Name = 
REMARK  3 active torsions:
REMARK  status: ('A' for Active; 'I' for Inactive)
REMARK    1  A    between atoms: O_1  and  C_2
REMARK    2  A    between atoms: C_7  and  C_8
REMARK    3  A    between atoms: N_16  and  C_17
REMARK                            x       y       z     vdW  Elec       q    Type
REMARK                         _______ _______ _______ _____ _____    ______ ____
ROOT
ATOM      1  C   UNL     1      -1.281  13.660  22.985  0.00  0.00    +0.000 A 
ATOM      2  C   UNL     1      -2.308  14.356  22.365  0.00  0.00    +0.000 A 
ATOM      3  C   UNL     1      -2.757  13.926  21.115  0.00  0.00    +0.000 A 
ATOM      4  C   UNL     1      -2.210  12.823  20.471  0.00  0.00    +0.000 A 
ATOM      5  N   UNL     1      -2.710  12.480  19.282  0.00  0.00    +0.000 NA
ATOM      6  C   UNL     1      -2.198  11.392  18.688  0.00  0.00    +0.000 A 
ATOM      7  N   UNL     1      -1.205  10.659  19.205  0.00  0.00    +0.000 NA
ATOM      8  C   UNL     1      -0.671  11.027  20.385  0.00  0.00    +0.000 A 
ATOM      9  N   UNL     1       0.359  10.204  20.931  0.00  0.00    +0.000 N 
ATOM     10  C   UNL     1      -1.172  12.122  21.104  0.00  0.00    +0.000 A 
ATOM     11  C   UNL     1      -0.711  12.554  22.371  0.00  0.00    +0.000 A 
ATOM     12  H   UNL     1       1.024  10.776  21.443  0.00  0.00    +0.000 HD
ENDROOT
BRANCH   9  13
ATOM     13  C   UNL     1       1.100   9.277  20.144  0.00  0.00    +0.000 A 
ATOM     14  C   UNL     1       1.531   9.602  18.848  0.00  0.00    +0.000 A 
ATOM     15  C   UNL     1       2.187   8.678  18.032  0.00  0.00    +0.000 A 
ATOM     16  C   UNL     1       2.437   7.424  18.586  0.00  0.00    +0.000 A 
ATOM     17  N   UNL     1       2.972   6.286  18.046  0.00  0.00    +0.000 N 
ATOM     18  N   UNL     1       3.119   5.280  18.927  0.00  0.00    +0.000 NA
ATOM     19  C   UNL     1       2.611   5.782  20.056  0.00  0.00    +0.000 A 
ATOM     20  C   UNL     1       2.136   7.104  19.904  0.00  0.00    +0.000 A 
ATOM     21  C   UNL     1       1.481   8.051  20.713  0.00  0.00    +0.000 A 
ATOM     22  H   UNL     1       3.242   6.128  17.083  0.00  0.00    +0.000 HD
ENDBRANCH   9  13
BRANCH   6  23
ATOM     23  C   UNL     1      -2.772  10.952  17.399  0.00  0.00    +0.000 A 
ATOM     24  C   UNL     1      -2.124  10.001  16.588  0.00  0.00    +0.000 A 
ATOM     25  C   UNL     1      -2.644   9.622  15.345  0.00  0.00    +0.000 A 
ATOM     26  C   UNL     1      -3.832  10.183  14.885  0.00  0.00    +0.000 A 
ATOM     27  C   UNL     1      -4.507  11.111  15.672  0.00  0.00    +0.000 A 
ATOM     28  C   UNL     1      -3.984  11.487  16.913  0.00  0.00    +0.000 A 
ENDBRANCH   6  23
BRANCH   1  29
ATOM     29  O   UNL     1      -0.794  14.033  24.199  0.00  0.00    +0.000 OA
ATOM     30  H   UNL     1      -0.328  13.281  24.600  0.00  0.00    +0.000 HD
ENDBRANCH   1  29
TORSDOF 3
ENDMDL
MODEL 3
REMARK VINA RESULT:      -7.4      0.827      1.332
REMARK  Name = 
REMARK  3 active torsions:
REMARK  status: ('A' for Active; 'I' for Inactive)
REMARK    1  A    between atoms: O_1  and  C_2
REMARK    2  A    between atoms: C_7  and  C_8
REMARK    3  A    between atoms: N_16  and  C_17
REMARK                            x       y       z     vdW  Elec       q    Type
REMARK                         _______ _______ _______ _____ _____    ______ ____
ROOT
ATOM      1  C   UNL     1       5.941   3.113  12.172  0.00  0.00    +0.000 A 
ATOM      2  C   UNL     1       7.015   3.946  11.892  0.00  0.00    +0.000 A 
ATOM      3  C   UNL     1       7.476   4.810  12.887  0.00  0.00    +0.000 A 
ATOM      4  C   UNL     1       6.896   4.863  14.148  0.00  0.00    +0.000 A 
ATOM      5  N   UNL     1       7.410   5.714  15.039  0.00  0.00    +0.000 NA
ATOM      6  C   UNL     1       6.865   5.729  16.265  0.00  0.00    +0.000 A 
ATOM      7  N   UNL     1       5.827   4.967  16.627  0.00  0.00    +0.000 NA
ATOM      8  C   UNL     1       5.279   4.138  15.718  0.00  0.00    +0.000 A 
ATOM      9  N   UNL     1       4.198   3.309  16.144  0.00  0.00    +0.000 N 
ATOM     10  C   UNL     1       5.810   4.018  14.425  0.00  0.00    +0.000 A 
ATOM     11  C   UNL     1       5.337   3.140  13.420  0.00  0.00    +0.000 A 
ATOM     12  H   UNL     1       3.548   3.168  15.377  0.00  0.00    +0.000 HD
ENDROOT
BRANCH   9  13
ATOM     13  C   UNL     1       3.437   3.581  17.316  0.00  0.00    +0.000 A 
ATOM     14  C   UNL     1       2.710   2.570  17.963  0.00  0.00    +0.000 A 
ATOM     15  C   UNL     1       1.892   2.834  19.065  0.00  0.00    +0.000 A 
ATOM     16  C   UNL     1       1.871   4.149  19.523  0.00  0.00    +0.000 A 
ATOM     17  N   UNL     1       1.133   4.755  20.503  0.00  0.00    +0.000 N 
ATOM     18  N   UNL     1       1.445   6.048  20.704  0.00  0.00    +0.000 NA
ATOM     19  C   UNL     1       2.380   6.286  19.780  0.00  0.00    +0.000 A 
ATOM     20  C   UNL     1       2.668   5.153  18.986  0.00  0.00    +0.000 A 
ATOM     21  C   UNL     1       3.490   4.865  17.881  0.00  0.00    +0.000 A 
ATOM     22  H   UNL     1       0.393   4.345  21.060  0.00  0.00    +0.000 HD
ENDBRANCH   9  13
BRANCH   6  23
ATOM     23  C   UNL     1       7.452   6.617  17.290  0.00  0.00    +0.000 A 
ATOM     24  C   UNL     1       7.650   7.991  17.052  0.00  0.00    +0.000 A 
ATOM     25  C   UNL     1       8.250   8.820  18.006  0.00  0.00    +0.000 A 
ATOM     26  C   UNL     1       8.662   8.295  19.227  0.00  0.00    +0.000 A 
ATOM     27  C   UNL     1       8.462   6.946  19.501  0.00  0.00    +0.000 A 
ATOM     28  C   UNL     1       7.862   6.121  18.545  0.00  0.00    +0.000 A 
ENDBRANCH   6  23
BRANCH   1  29
ATOM     29  O   UNL     1       5.440   2.254  11.243  0.00  0.00    +0.000 OA
ATOM     30  H   UNL     1       5.873   2.422  10.389  0.00  0.00    +0.000 HD
ENDBRANCH   1  29
TORSDOF 3
ENDMDL
MODEL 4
REMARK VINA RESULT:      -7.2      7.749     10.303
REMARK  Name = 
REMARK  3 active torsions:
REMARK  status: ('A' for Active; 'I' for Inactive)
REMARK    1  A    between atoms: O_1  and  C_2
REMARK    2  A    between atoms: C_7  and  C_8
REMARK    3  A    between atoms: N_16  and  C_17
REMARK                            x       y       z     vdW  Elec       q    Type
REMARK                         _______ _______ _______ _____ _____    ______ ____
ROOT
ATOM      1  C   UNL     1      -2.475  12.464  23.295  0.00  0.00    +0.000 A 
ATOM      2  C   UNL     1      -2.040  13.732  23.653  0.00  0.00    +0.000 A 
ATOM      3  C   UNL     1      -0.861  14.225  23.089  0.00  0.00    +0.000 A 
ATOM      4  C   UNL     1      -0.111  13.489  22.181  0.00  0.00    +0.000 A 
ATOM      5  N   UNL     1       0.998  14.046  21.687  0.00  0.00    +0.000 NA
ATOM      6  C   UNL     1       1.692  13.339  20.783  0.00  0.00    +0.000 A 
ATOM      7  N   UNL     1       1.354  12.110  20.378  0.00  0.00    +0.000 NA
ATOM      8  C   UNL     1       0.260  11.529  20.906  0.00  0.00    +0.000 A 
ATOM      9  N   UNL     1      -0.099  10.234  20.427  0.00  0.00    +0.000 N 
ATOM     10  C   UNL     1      -0.558  12.208  21.822  0.00  0.00    +0.000 A 
ATOM     11  C   UNL     1      -1.751  11.702  22.391  0.00  0.00    +0.000 A 
ATOM     12  H   UNL     1      -0.520   9.692  21.176  0.00  0.00    +0.000 HD
ENDROOT
BRANCH   9  13
ATOM     13  C   UNL     1       0.817   9.388  19.740  0.00  0.00    +0.000 A 
ATOM     14  C   UNL     1       1.264   9.696  18.445  0.00  0.00    +0.000 A 
ATOM     15  C   UNL     1       2.098   8.838  17.725  0.00  0.00    +0.000 A 
ATOM     16  C   UNL     1       2.507   7.675  18.375  0.00  0.00    +0.000 A 
ATOM     17  N   UNL     1       3.238   6.604  17.940  0.00  0.00    +0.000 N 
ATOM     18  N   UNL     1       3.490   5.689  18.894  0.00  0.00    +0.000 NA
ATOM     19  C   UNL     1       2.848   6.174  19.962  0.00  0.00    +0.000 A 
ATOM     20  C   UNL     1       2.186   7.393  19.697  0.00  0.00    +0.000 A 
ATOM     21  C   UNL     1       1.350   8.274  20.408  0.00  0.00    +0.000 A 
ATOM     22  H   UNL     1       3.582   6.432  17.004  0.00  0.00    +0.000 HD
ENDBRANCH   9  13
BRANCH   6  23
ATOM     23  C   UNL     1       2.891  13.954  20.173  0.00  0.00    +0.000 A 
ATOM     24  C   UNL     1       3.080  13.977  18.778  0.00  0.00    +0.000 A 
ATOM     25  C   UNL     1       4.238  14.515  18.205  0.00  0.00    +0.000 A 
ATOM     26  C   UNL     1       5.234  15.051  19.016  0.00  0.00    +0.000 A 
ATOM     27  C   UNL     1       5.067  15.062  20.397  0.00  0.00    +0.000 A 
ATOM     28  C   UNL     1       3.909  14.523  20.966  0.00  0.00    +0.000 A 
ENDBRANCH   6  23
BRANCH   1  29
ATOM     29  O   UNL     1      -3.611  11.925  23.815  0.00  0.00    +0.000 OA
ATOM     30  H   UNL     1      -3.527  11.878  24.782  0.00  0.00    +0.000 HD
ENDBRANCH   1  29
TORSDOF 3
ENDMDL
MODEL 5
REMARK VINA RESULT:      -7.1      4.287      6.941
REMARK  Name = 
REMARK  3 active torsions:
REMARK  status: ('A' for Active; 'I' for Inactive)
REMARK    1  A    between atoms: O_1  and  C_2
REMARK    2  A    between atoms: C_7  and  C_8
REMARK    3  A    between atoms: N_16  and  C_17
REMARK                            x       y       z     vdW  Elec       q    Type
REMARK                         _______ _______ _______ _____ _____    ______ ____
ROOT
ATOM      1  C   UNL     1       1.500   2.651  21.716  0.00  0.00    +0.000 A 
ATOM      2  C   UNL     1       2.148   1.630  21.036  0.00  0.00    +0.000 A 
ATOM      3  C   UNL     1       2.899   1.946  19.902  0.00  0.00    +0.000 A 
ATOM      4  C   UNL     1       3.019   3.248  19.432  0.00  0.00    +0.000 A 
ATOM      5  N   UNL     1       3.766   3.455  18.345  0.00  0.00    +0.000 NA
ATOM      6  C   UNL     1       3.904   4.721  17.924  0.00  0.00    +0.000 A 
ATOM      7  N   UNL     1       3.316   5.770  18.511  0.00  0.00    +0.000 NA
ATOM      8  C   UNL     1       2.528   5.559  19.583  0.00  0.00    +0.000 A 
ATOM      9  N   UNL     1       1.946   6.700  20.212  0.00  0.00    +0.000 N 
ATOM     10  C   UNL     1       2.362   4.276  20.125  0.00  0.00    +0.000 A 
ATOM     11  C   UNL     1       1.598   3.963  21.275  0.00  0.00    +0.000 A 
ATOM     12  H   UNL     1       1.033   6.460  20.585  0.00  0.00    +0.000 HD
ENDROOT
BRANCH   9  13
ATOM     13  C   UNL     1       1.833   7.961  19.562  0.00  0.00    +0.000 A 
ATOM     14  C   UNL     1       2.300   8.151  18.252  0.00  0.00    +0.000 A 
ATOM     15  C   UNL     1       2.271   9.400  17.628  0.00  0.00    +0.000 A 
ATOM     16  C   UNL     1       1.710  10.447  18.356  0.00  0.00    +0.000 A 
ATOM     17  N   UNL     1       1.602  11.784  18.084  0.00  0.00    +0.000 N 
ATOM     18  N   UNL     1       0.924  12.479  19.014  0.00  0.00    +0.000 NA
ATOM     19  C   UNL     1       0.636  11.557  19.938  0.00  0.00    +0.000 A 
ATOM     20  C   UNL     1       1.128  10.275  19.606  0.00  0.00    +0.000 A 
ATOM     21  C   UNL     1       1.160   9.006  20.215  0.00  0.00    +0.000 A 
ATOM     22  H   UNL     1       1.981  12.283  17.289  0.00  0.00    +0.000 HD
ENDBRANCH   9  13
BRANCH   6  23
ATOM     23  C   UNL     1       4.774   4.989  16.759  0.00  0.00    +0.000 A 
ATOM     24  C   UNL     1       4.945   6.290  16.249  0.00  0.00    +0.000 A 
ATOM     25  C   UNL     1       5.730   6.536  15.116  0.00  0.00    +0.000 A 
ATOM     26  C   UNL     1       6.369   5.483  14.469  0.00  0.00    +0.000 A 
ATOM     27  C   UNL     1       6.236   4.189  14.960  0.00  0.00    +0.000 A 
ATOM     28  C   UNL     1       5.451   3.947  16.092  0.00  0.00    +0.000 A 
ENDBRANCH   6  23
BRANCH   1  29
ATOM     29  O   UNL     1       0.747   2.408  22.823  0.00  0.00    +0.000 OA
ATOM     30  H   UNL     1       0.587   1.452  22.895  0.00  0.00    +0.000 HD
ENDBRANCH   1  29
TORSDOF 3
ENDMDL
MODEL 6
REMARK VINA RESULT:      -7.1      8.098     11.409
REMARK  Name = 
REMARK  3 active torsions:
REMARK  status: ('A' for Active; 'I' for Inactive)
REMARK    1  A    between atoms: O_1  and  C_2
REMARK    2  A    between atoms: C_7  and  C_8
REMARK    3  A    between atoms: N_16  and  C_17
REMARK                            x       y       z     vdW  Elec       q    Type
REMARK                         _______ _______ _______ _____ _____    ______ ____
ROOT
ATOM      1  C   UNL     1      -1.265  14.084  23.127  0.00  0.00    +0.000 A 
ATOM      2  C   UNL     1      -2.182  14.820  22.391  0.00  0.00    +0.000 A 
ATOM      3  C   UNL     1      -2.601  14.330  21.151  0.00  0.00    +0.000 A 
ATOM      4  C   UNL     1      -2.131  13.130  20.632  0.00  0.00    +0.000 A 
ATOM      5  N   UNL     1      -2.594  12.737  19.443  0.00  0.00    +0.000 NA
ATOM      6  C   UNL     1      -2.160  11.560  18.971  0.00  0.00    +0.000 A 
ATOM      7  N   UNL     1      -1.276  10.782  19.606  0.00  0.00    +0.000 NA
ATOM      8  C   UNL     1      -0.774  11.196  20.785  0.00  0.00    +0.000 A 
ATOM      9  N   UNL     1       0.137  10.329  21.458  0.00  0.00    +0.000 N 
ATOM     10  C   UNL     1      -1.204  12.391  21.383  0.00  0.00    +0.000 A 
ATOM     11  C   UNL     1      -0.775  12.882  22.639  0.00  0.00    +0.000 A 
ATOM     12  H   UNL     1       0.825  10.877  21.966  0.00  0.00    +0.000 HD
ENDROOT
BRANCH   9  13
ATOM     13  C   UNL     1       0.825   9.273  20.795  0.00  0.00    +0.000 A 
ATOM     14  C   UNL     1       0.954   8.005  21.383  0.00  0.00    +0.000 A 
ATOM     15  C   UNL     1       1.695   6.983  20.785  0.00  0.00    +0.000 A 
ATOM     16  C   UNL     1       2.263   7.269  19.546  0.00  0.00    +0.000 A 
ATOM     17  N   UNL     1       3.100   6.541  18.743  0.00  0.00    +0.000 N 
ATOM     18  N   UNL     1       3.386   7.134  17.571  0.00  0.00    +0.000 NA
ATOM     19  C   UNL     1       2.750   8.306  17.655  0.00  0.00    +0.000 A 
ATOM     20  C   UNL     1       2.059   8.469  18.876  0.00  0.00    +0.000 A 
ATOM     21  C   UNL     1       1.303   9.484  19.492  0.00  0.00    +0.000 A 
ATOM     22  H   UNL     1       3.519   5.642  18.945  0.00  0.00    +0.000 HD
ENDBRANCH   9  13
BRANCH   6  23
ATOM     23  C   UNL     1      -2.702  11.069  17.685  0.00  0.00    +0.000 A 
ATOM     24  C   UNL     1      -2.012  10.120  16.907  0.00  0.00    +0.000 A 
ATOM     25  C   UNL     1      -2.502   9.694  15.668  0.00  0.00    +0.000 A 
ATOM     26  C   UNL     1      -3.701  10.204  15.179  0.00  0.00    +0.000 A 
ATOM     27  C   UNL     1      -4.417  11.128  15.933  0.00  0.00    +0.000 A 
ATOM     28  C   UNL     1      -3.924  11.551  17.171  0.00  0.00    +0.000 A 
ENDBRANCH   6  23
BRANCH   1  29
ATOM     29  O   UNL     1      -0.813  14.510  24.337  0.00  0.00    +0.000 OA
ATOM     30  H   UNL     1      -0.552  13.740  24.868  0.00  0.00    +0.000 HD
ENDBRANCH   1  29
TORSDOF 3
ENDMDL
MODEL 7
REMARK VINA RESULT:      -6.9      9.969     11.245
REMARK  Name = 
REMARK  3 active torsions:
REMARK  status: ('A' for Active; 'I' for Inactive)
REMARK    1  A    between atoms: O_1  and  C_2
REMARK    2  A    between atoms: C_7  and  C_8
REMARK    3  A    between atoms: N_16  and  C_17
REMARK                            x       y       z     vdW  Elec       q    Type
REMARK                         _______ _______ _______ _____ _____    ______ ____
ROOT
ATOM      1  C   UNL     1      11.425  12.970  17.098  0.00  0.00    +0.000 A 
ATOM      2  C   UNL     1      12.178  12.265  18.026  0.00  0.00    +0.000 A 
ATOM      3  C   UNL     1      11.713  12.168  19.339  0.00  0.00    +0.000 A 
ATOM      4  C   UNL     1      10.521  12.754  19.747  0.00  0.00    +0.000 A 
ATOM      5  N   UNL     1      10.152  12.601  21.021  0.00  0.00    +0.000 NA
ATOM      6  C   UNL     1       8.981  13.140  21.393  0.00  0.00    +0.000 A 
ATOM      7  N   UNL     1       8.189  13.839  20.573  0.00  0.00    +0.000 NA
ATOM      8  C   UNL     1       8.579  14.031  19.298  0.00  0.00    +0.000 A 
ATOM      9  N   UNL     1       7.695  14.746  18.435  0.00  0.00    +0.000 N 
ATOM     10  C   UNL     1       9.764  13.465  18.804  0.00  0.00    +0.000 A 
ATOM     11  C   UNL     1      10.230  13.568  17.471  0.00  0.00    +0.000 A 
ATOM     12  H   UNL     1       8.231  15.285  17.762  0.00  0.00    +0.000 HD
ENDROOT
BRANCH   9  13
ATOM     13  C   UNL     1       6.649  15.578  18.925  0.00  0.00    +0.000 A 
ATOM     14  C   UNL     1       6.917  16.852  19.451  0.00  0.00    +0.000 A 
ATOM     15  C   UNL     1       5.916  17.648  20.011  0.00  0.00    +0.000 A 
ATOM     16  C   UNL     1       4.621  17.135  19.979  0.00  0.00    +0.000 A 
ATOM     17  N   UNL     1       3.447  17.605  20.502  0.00  0.00    +0.000 N 
ATOM     18  N   UNL     1       2.374  16.853  20.202  0.00  0.00    +0.000 NA
ATOM     19  C   UNL     1       2.894  15.838  19.506  0.00  0.00    +0.000 A 
ATOM     20  C   UNL     1       4.296  15.934  19.360  0.00  0.00    +0.000 A 
ATOM     21  C   UNL     1       5.319  15.149  18.796  0.00  0.00    +0.000 A 
ATOM     22  H   UNL     1       3.316  18.424  21.083  0.00  0.00    +0.000 HD
ENDBRANCH   9  13
BRANCH   6  23
ATOM     23  C   UNL     1       8.517  12.936  22.782  0.00  0.00    +0.000 A 
ATOM     24  C   UNL     1       7.939  11.721  23.196  0.00  0.00    +0.000 A 
ATOM     25  C   UNL     1       7.455  11.546  24.498  0.00  0.00    +0.000 A 
ATOM     26  C   UNL     1       7.544  12.584  25.420  0.00  0.00    +0.000 A 
ATOM     27  C   UNL     1       8.128  13.790  25.048  0.00  0.00    +0.000 A 
ATOM     28  C   UNL     1       8.610  13.961  23.746  0.00  0.00    +0.000 A 
ENDBRANCH   6  23
BRANCH   1  29
ATOM     29  O   UNL     1      11.827  13.106  15.806  0.00  0.00    +0.000 OA
ATOM     30  H   UNL     1      12.664  13.599  15.784  0.00  0.00    +0.000 HD
ENDBRANCH   1  29
TORSDOF 3
ENDMDL
MODEL 8
REMARK VINA RESULT:      -6.9      9.861     11.151
REMARK  Name = 
REMARK  3 active torsions:
REMARK  status: ('A' for Active; 'I' for Inactive)
REMARK    1  A    between atoms: O_1  and  C_2
REMARK    2  A    between atoms: C_7  and  C_8
REMARK    3  A    between atoms: N_16  and  C_17
REMARK                            x       y       z     vdW  Elec       q    Type
REMARK                         _______ _______ _______ _____ _____    ______ ____
ROOT
ATOM      1  C   UNL     1      11.541  12.970  17.096  0.00  0.00    +0.000 A 
ATOM      2  C   UNL     1      12.333  12.456  18.112  0.00  0.00    +0.000 A 
ATOM      3  C   UNL     1      11.815  12.396  19.408  0.00  0.00    +0.000 A 
ATOM      4  C   UNL     1      10.532  12.833  19.712  0.00  0.00    +0.000 A 
ATOM      5  N   UNL     1      10.118  12.729  20.977  0.00  0.00    +0.000 NA
ATOM      6  C   UNL     1       8.865  13.120  21.251  0.00  0.00    +0.000 A 
ATOM      7  N   UNL     1       8.028  13.630  20.340  0.00  0.00    +0.000 NA
ATOM      8  C   UNL     1       8.457  13.776  19.072  0.00  0.00    +0.000 A 
ATOM      9  N   UNL     1       7.530  14.285  18.114  0.00  0.00    +0.000 N 
ATOM     10  C   UNL     1       9.735  13.351  18.679  0.00  0.00    +0.000 A 
ATOM     11  C   UNL     1      10.255  13.415  17.364  0.00  0.00    +0.000 A 
ATOM     12  H   UNL     1       8.021  14.842  17.421  0.00  0.00    +0.000 HD
ENDROOT
BRANCH   9  13
ATOM     13  C   UNL     1       6.352  14.993  18.485  0.00  0.00    +0.000 A 
ATOM     14  C   UNL     1       5.098  14.652  17.954  0.00  0.00    +0.000 A 
ATOM     15  C   UNL     1       3.946  15.385  18.243  0.00  0.00    +0.000 A 
ATOM     16  C   UNL     1       4.092  16.451  19.129  0.00  0.00    +0.000 A 
ATOM     17  N   UNL     1       3.206  17.404  19.553  0.00  0.00    +0.000 N 
ATOM     18  N   UNL     1       3.705  18.242  20.480  0.00  0.00    +0.000 NA
ATOM     19  C   UNL     1       4.972  17.837  20.610  0.00  0.00    +0.000 A 
ATOM     20  C   UNL     1       5.289  16.746  19.770  0.00  0.00    +0.000 A 
ATOM     21  C   UNL     1       6.438  15.990  19.470  0.00  0.00    +0.000 A 
ATOM     22  H   UNL     1       2.254  17.544  19.239  0.00  0.00    +0.000 HD
ENDBRANCH   9  13
BRANCH   6  23
ATOM     23  C   UNL     1       8.358  12.960  22.630  0.00  0.00    +0.000 A 
ATOM     24  C   UNL     1       8.525  13.967  23.600  0.00  0.00    +0.000 A 
ATOM     25  C   UNL     1       8.089  13.794  24.918  0.00  0.00    +0.000 A 
ATOM     26  C   UNL     1       7.466  12.609  25.298  0.00  0.00    +0.000 A 
ATOM     27  C   UNL     1       7.267  11.603  24.358  0.00  0.00    +0.000 A 
ATOM     28  C   UNL     1       7.705  11.779  23.041  0.00  0.00    +0.000 A 
ENDBRANCH   6  23
BRANCH   1  29
ATOM     29  O   UNL     1      11.990  13.061  15.815  0.00  0.00    +0.000 OA
ATOM     30  H   UNL     1      11.913  13.982  15.516  0.00  0.00    +0.000 HD
ENDBRANCH   1  29
TORSDOF 3
ENDMDL
MODEL 9
REMARK VINA RESULT:      -6.9     10.495     14.118
REMARK  Name = 
REMARK  3 active torsions:
REMARK  status: ('A' for Active; 'I' for Inactive)
REMARK    1  A    between atoms: O_1  and  C_2
REMARK    2  A    between atoms: C_7  and  C_8
REMARK    3  A    between atoms: N_16  and  C_17
REMARK                            x       y       z     vdW  Elec       q    Type
REMARK                         _______ _______ _______ _____ _____    ______ ____
ROOT
ATOM      1  C   UNL     1      -2.485  15.521  25.416  0.00  0.00    +0.000 A 
ATOM      2  C   UNL     1      -3.710  16.091  25.100  0.00  0.00    +0.000 A 
ATOM      3  C   UNL     1      -4.446  15.564  24.037  0.00  0.00    +0.000 A 
ATOM      4  C   UNL     1      -3.992  14.487  23.285  0.00  0.00    +0.000 A 
ATOM      5  N   UNL     1      -4.768  14.045  22.292  0.00  0.00    +0.000 NA
ATOM      6  C   UNL     1      -4.336  12.982  21.598  0.00  0.00    +0.000 A 
ATOM      7  N   UNL     1      -3.170  12.367  21.826  0.00  0.00    +0.000 NA
ATOM      8  C   UNL     1      -2.366  12.837  22.799  0.00  0.00    +0.000 A 
ATOM      9  N   UNL     1      -1.147  12.138  23.046  0.00  0.00    +0.000 N 
ATOM     10  C   UNL     1      -2.753  13.914  23.610  0.00  0.00    +0.000 A 
ATOM     11  C   UNL     1      -2.002  14.444  24.686  0.00  0.00    +0.000 A 
ATOM     12  H   UNL     1      -0.427  12.791  23.339  0.00  0.00    +0.000 HD
ENDROOT
BRANCH   9  13
ATOM     13  C   UNL     1      -0.567  11.247  22.099  0.00  0.00    +0.000 A 
ATOM     14  C   UNL     1      -0.528   9.862  22.330  0.00  0.00    +0.000 A 
ATOM     15  C   UNL     1       0.108   8.982  21.452  0.00  0.00    +0.000 A 
ATOM     16  C   UNL     1       0.666   9.542  20.304  0.00  0.00    +0.000 A 
ATOM     17  N   UNL     1       1.416   8.992  19.300  0.00  0.00    +0.000 N 
ATOM     18  N   UNL     1       1.720   9.850  18.310  0.00  0.00    +0.000 NA
ATOM     19  C   UNL     1       1.186  11.002  18.727  0.00  0.00    +0.000 A 
ATOM     20  C   UNL     1       0.543  10.888  19.980  0.00  0.00    +0.000 A 
ATOM     21  C   UNL     1      -0.108  11.757  20.875  0.00  0.00    +0.000 A 
ATOM     22  H   UNL     1       1.765   8.043  19.241  0.00  0.00    +0.000 HD
ENDBRANCH   9  13
BRANCH   6  23
ATOM     23  C   UNL     1      -5.202  12.432  20.533  0.00  0.00    +0.000 A 
ATOM     24  C   UNL     1      -4.703  12.158  19.245  0.00  0.00    +0.000 A 
ATOM     25  C   UNL     1      -5.534  11.684  18.224  0.00  0.00    +0.000 A 
ATOM     26  C   UNL     1      -6.887  11.467  18.469  0.00  0.00    +0.000 A 
ATOM     27  C   UNL     1      -7.405  11.709  19.737  0.00  0.00    +0.000 A 
ATOM     28  C   UNL     1      -6.572  12.183  20.755  0.00  0.00    +0.000 A 
ENDBRANCH   6  23
BRANCH   1  29
ATOM     29  O   UNL     1      -1.718  15.993  26.436  0.00  0.00    +0.000 OA
ATOM     30  H   UNL     1      -0.796  16.055  26.137  0.00  0.00    +0.000 HD
ENDBRANCH   1  29
TORSDOF 3
ENDMDL
