MODEL 1
REMARK VINA RESULT:      -7.9      0.000      0.000
REMARK  Name = 
REMARK  6 active torsions:
REMARK  status: ('A' for Active; 'I' for Inactive)
REMARK    1  A    between atoms: C_1  and  O_2
REMARK    2  A    between atoms: O_2  and  C_3
REMARK    3  A    between atoms: C_3  and  C_4
REMARK    4  A    between atoms: C_4  and  O_5
REMARK    5  A    between atoms: O_5  and  C_6
REMARK    6  A    between atoms: C_14  and  C_15
REMARK                            x       y       z     vdW  Elec       q    Type
REMARK                         _______ _______ _______ _____ _____    ______ ____
ROOT
ATOM      1  C   UNL     1       5.777   4.258  13.914  0.00  0.00    +0.000 A 
ATOM      2  N   UNL     1       6.844   4.716  13.245  0.00  0.00    +0.000 NA
ATOM      3  C   UNL     1       7.752   5.373  13.969  0.00  0.00    +0.000 A 
ATOM      4  N   UNL     1       8.870   5.842  13.314  0.00  0.00    +0.000 N 
ATOM      5  N   UNL     1       7.635   5.661  15.267  0.00  0.00    +0.000 NA
ATOM      6  C   UNL     1       6.555   5.172  15.890  0.00  0.00    +0.000 A 
ATOM      7  C   UNL     1       5.593   4.417  15.267  0.00  0.00    +0.000 A 
ATOM      8  C   UNL     1       4.385   3.918  15.990  0.00  0.00    +0.000 C 
ATOM      9  C   UNL     1       4.607   3.860  17.507  0.00  0.00    +0.000 C 
ATOM     10  C   UNL     1       5.384   5.060  18.039  0.00  0.00    +0.000 C 
ATOM     11  O   UNL     1       5.242   5.516  19.171  0.00  0.00    +0.000 OA
ATOM     12  N   UNL     1       6.387   5.523  17.226  0.00  0.00    +0.000 N 
ATOM     13  H   UNL     1       8.676   5.968  12.331  0.00  0.00    +0.000 HD
ATOM     14  H   UNL     1       9.269   6.625  13.813  0.00  0.00    +0.000 HD
ATOM     15  H   UNL     1       7.027   6.206  17.606  0.00  0.00    +0.000 HD
ENDROOT
BRANCH   9  16
ATOM     16  C   UNL     1       3.335   3.544  18.291  0.00  0.00    +0.000 A 
ATOM     17  C   UNL     1       2.340   4.530  18.486  0.00  0.00    +0.000 A 
ATOM     18 CL   UNL     1       2.453   6.124  17.816  0.00  0.00    +0.000 Cl
ATOM     19  C   UNL     1       1.189   4.270  19.241  0.00  0.00    +0.000 A 
ATOM     20  C   UNL     1       0.997   3.025  19.826  0.00  0.00    +0.000 A 
ATOM     21  C   UNL     1       1.941   2.026  19.624  0.00  0.00    +0.000 A 
ATOM     22  C   UNL     1       3.082   2.270  18.847  0.00  0.00    +0.000 A 
ATOM     23 CL   UNL     1       4.121   0.907  18.596  0.00  0.00    +0.000 Cl
ENDBRANCH   9  16
BRANCH   1  24
ATOM     24  O   UNL     1       4.732   3.679  13.227  0.00  0.00    +0.000 OA
BRANCH  24  25
ATOM     25  C   UNL     1       5.076   3.143  11.952  0.00  0.00    +0.000 C 
BRANCH  25  26
ATOM     26  C   UNL     1       3.795   3.099  11.123  0.00  0.00    +0.000 C 
BRANCH  26  28
ATOM     27  C   UNL     1       2.767   4.224   9.332  0.00  0.00    +0.000 C 
ATOM     28  O   UNL     1       3.573   4.360  10.496  0.00  0.00    +0.000 OA
ENDBRANCH  26  28
ENDBRANCH  25  26
ENDBRANCH  24  25
ENDBRANCH   1  24
TORSDOF 5
ENDMDL
MODEL 2
REMARK VINA RESULT:      -7.8      0.138      1.841
REMARK  Name = 
REMARK  6 active torsions:
REMARK  status: ('A' for Active; 'I' for Inactive)
REMARK    1  A    between atoms: C_1  and  O_2
REMARK    2  A    between atoms: O_2  and  C_3
REMARK    3  A    between atoms: C_3  and  C_4
REMARK    4  A    between atoms: C_4  and  O_5
REMARK    5  A    between atoms: O_5  and  C_6
REMARK    6  A    between atoms: C_14  and  C_15
REMARK                            x       y       z     vdW  Elec       q    Type
REMARK                         _______ _______ _______ _____ _____    ______ ____
ROOT
ATOM      1  C   UNL     1       5.752   4.305  13.803  0.00  0.00    +0.000 A 
ATOM      2  N   UNL     1       6.829   4.747  13.138  0.00  0.00    +0.000 NA
ATOM      3  C   UNL     1       7.766   5.346  13.872  0.00  0.00    +0.000 A 
ATOM      4  N   UNL     1       8.894   5.797  13.221  0.00  0.00    +0.000 N 
ATOM      5  N   UNL     1       7.672   5.597  15.180  0.00  0.00    +0.000 NA
ATOM      6  C   UNL     1       6.581   5.127  15.799  0.00  0.00    +0.000 A 
ATOM      7  C   UNL     1       5.586   4.428  15.162  0.00  0.00    +0.000 A 
ATOM      8  C   UNL     1       4.367   3.949  15.880  0.00  0.00    +0.000 C 
ATOM      9  C   UNL     1       4.601   3.834  17.393  0.00  0.00    +0.000 C 
ATOM     10  C   UNL     1       5.426   4.988  17.954  0.00  0.00    +0.000 C 
ATOM     11  O   UNL     1       5.311   5.412  19.102  0.00  0.00    +0.000 OA
ATOM     12  N   UNL     1       6.438   5.440  17.147  0.00  0.00    +0.000 N 
ATOM     13  H   UNL     1       8.696   5.960  12.244  0.00  0.00    +0.000 HD
ATOM     14  H   UNL     1       9.326   6.548  13.741  0.00  0.00    +0.000 HD
ATOM     15  H   UNL     1       7.106   6.088  17.541  0.00  0.00    +0.000 HD
ENDROOT
BRANCH   9  16
ATOM     16  C   UNL     1       3.326   3.538  18.179  0.00  0.00    +0.000 A 
ATOM     17  C   UNL     1       3.095   2.256  18.729  0.00  0.00    +0.000 A 
ATOM     18 CL   UNL     1       4.241   0.962  18.609  0.00  0.00    +0.000 Cl
ATOM     19  C   UNL     1       1.910   1.955  19.414  0.00  0.00    +0.000 A 
ATOM     20  C   UNL     1       0.922   2.919  19.568  0.00  0.00    +0.000 A 
ATOM     21  C   UNL     1       1.134   4.197  19.067  0.00  0.00    +0.000 A 
ATOM     22  C   UNL     1       2.329   4.513  18.404  0.00  0.00    +0.000 A 
ATOM     23 CL   UNL     1       2.501   6.168  17.924  0.00  0.00    +0.000 Cl
ENDBRANCH   9  16
BRANCH   1  24
ATOM     24  O   UNL     1       4.680   3.786  13.109  0.00  0.00    +0.000 OA
BRANCH  24  25
ATOM     25  C   UNL     1       5.025   3.029  11.951  0.00  0.00    +0.000 C 
BRANCH  25  26
ATOM     26  C   UNL     1       3.806   3.032  11.033  0.00  0.00    +0.000 C 
BRANCH  26  28
ATOM     27  C   UNL     1       2.737   4.322   9.382  0.00  0.00    +0.000 C 
ATOM     28  O   UNL     1       3.570   4.347  10.535  0.00  0.00    +0.000 OA
ENDBRANCH  26  28
ENDBRANCH  25  26
ENDBRANCH  24  25
ENDBRANCH   1  24
TORSDOF 5
ENDMDL
MODEL 3
REMARK VINA RESULT:      -7.3      0.963      1.335
REMARK  Name = 
REMARK  6 active torsions:
REMARK  status: ('A' for Active; 'I' for Inactive)
REMARK    1  A    between atoms: C_1  and  O_2
REMARK    2  A    between atoms: O_2  and  C_3
REMARK    3  A    between atoms: C_3  and  C_4
REMARK    4  A    between atoms: C_4  and  O_5
REMARK    5  A    between atoms: O_5  and  C_6
REMARK    6  A    between atoms: C_14  and  C_15
REMARK                            x       y       z     vdW  Elec       q    Type
REMARK                         _______ _______ _______ _____ _____    ______ ____
ROOT
ATOM      1  C   UNL     1       5.745   4.254  14.029  0.00  0.00    +0.000 A 
ATOM      2  N   UNL     1       6.807   4.709  13.351  0.00  0.00    +0.000 NA
ATOM      3  C   UNL     1       7.723   5.362  14.067  0.00  0.00    +0.000 A 
ATOM      4  N   UNL     1       8.837   5.828  13.403  0.00  0.00    +0.000 N 
ATOM      5  N   UNL     1       7.619   5.650  15.366  0.00  0.00    +0.000 NA
ATOM      6  C   UNL     1       6.543   5.164  15.999  0.00  0.00    +0.000 A 
ATOM      7  C   UNL     1       5.573   4.414  15.384  0.00  0.00    +0.000 A 
ATOM      8  C   UNL     1       4.369   3.918  16.117  0.00  0.00    +0.000 C 
ATOM      9  C   UNL     1       4.604   3.859  17.632  0.00  0.00    +0.000 C 
ATOM     10  C   UNL     1       5.391   5.056  18.157  0.00  0.00    +0.000 C 
ATOM     11  O   UNL     1       5.260   5.512  19.291  0.00  0.00    +0.000 OA
ATOM     12  N   UNL     1       6.388   5.515  17.336  0.00  0.00    +0.000 N 
ATOM     13  H   UNL     1       8.635   5.954  12.421  0.00  0.00    +0.000 HD
ATOM     14  H   UNL     1       9.244   6.609  13.898  0.00  0.00    +0.000 HD
ATOM     15  H   UNL     1       7.034   6.196  17.711  0.00  0.00    +0.000 HD
ENDROOT
BRANCH   9  16
ATOM     16  C   UNL     1       3.338   3.547  18.427  0.00  0.00    +0.000 A 
ATOM     17  C   UNL     1       2.353   4.539  18.638  0.00  0.00    +0.000 A 
ATOM     18 CL   UNL     1       2.471   6.137  17.977  0.00  0.00    +0.000 Cl
ATOM     19  C   UNL     1       1.208   4.283  19.404  0.00  0.00    +0.000 A 
ATOM     20  C   UNL     1       1.013   3.035  19.983  0.00  0.00    +0.000 A 
ATOM     21  C   UNL     1       1.947   2.031  19.765  0.00  0.00    +0.000 A 
ATOM     22  C   UNL     1       3.082   2.272  18.978  0.00  0.00    +0.000 A 
ATOM     23 CL   UNL     1       4.108   0.903  18.707  0.00  0.00    +0.000 Cl
ENDBRANCH   9  16
BRANCH   1  24
ATOM     24  O   UNL     1       4.691   3.679  13.351  0.00  0.00    +0.000 OA
BRANCH  24  25
ATOM     25  C   UNL     1       4.743   3.818  11.934  0.00  0.00    +0.000 C 
BRANCH  25  26
ATOM     26  C   UNL     1       4.810   2.411  11.346  0.00  0.00    +0.000 C 
BRANCH  26  28
ATOM     27  C   UNL     1       6.181   0.520  11.073  0.00  0.00    +0.000 C 
ATOM     28  O   UNL     1       6.117   1.869  11.519  0.00  0.00    +0.000 OA
ENDBRANCH  26  28
ENDBRANCH  25  26
ENDBRANCH  24  25
ENDBRANCH   1  24
TORSDOF 5
ENDMDL
MODEL 4
REMARK VINA RESULT:      -7.3      1.057      2.266
REMARK  Name = 
REMARK  6 active torsions:
REMARK  status: ('A' for Active; 'I' for Inactive)
REMARK    1  A    between atoms: C_1  and  O_2
REMARK    2  A    between atoms: O_2  and  C_3
REMARK    3  A    between atoms: C_3  and  C_4
REMARK    4  A    between atoms: C_4  and  O_5
REMARK    5  A    between atoms: O_5  and  C_6
REMARK    6  A    between atoms: C_14  and  C_15
REMARK                            x       y       z     vdW  Elec       q    Type
REMARK                         _______ _______ _______ _____ _____    ______ ____
ROOT
ATOM      1  C   UNL     1       5.805   4.246  14.136  0.00  0.00    +0.000 A 
ATOM      2  N   UNL     1       6.847   4.705  13.429  0.00  0.00    +0.000 NA
ATOM      3  C   UNL     1       7.748   5.414  14.107  0.00  0.00    +0.000 A 
ATOM      4  N   UNL     1       8.841   5.887  13.413  0.00  0.00    +0.000 N 
ATOM      5  N   UNL     1       7.647   5.753  15.395  0.00  0.00    +0.000 NA
ATOM      6  C   UNL     1       6.593   5.261  16.058  0.00  0.00    +0.000 A 
ATOM      7  C   UNL     1       5.641   4.456  15.485  0.00  0.00    +0.000 A 
ATOM      8  C   UNL     1       4.460   3.954  16.250  0.00  0.00    +0.000 C 
ATOM      9  C   UNL     1       4.711   3.965  17.764  0.00  0.00    +0.000 C 
ATOM     10  C   UNL     1       5.465   5.206  18.231  0.00  0.00    +0.000 C 
ATOM     11  O   UNL     1       5.330   5.704  19.347  0.00  0.00    +0.000 OA
ATOM     12  N   UNL     1       6.440   5.662  17.382  0.00  0.00    +0.000 N 
ATOM     13  H   UNL     1       8.626   5.966  12.429  0.00  0.00    +0.000 HD
ATOM     14  H   UNL     1       9.227   6.700  13.872  0.00  0.00    +0.000 HD
ATOM     15  H   UNL     1       7.068   6.377  17.721  0.00  0.00    +0.000 HD
ENDROOT
BRANCH   9  16
ATOM     16  C   UNL     1       3.463   3.647  18.584  0.00  0.00    +0.000 A 
ATOM     17  C   UNL     1       3.402   2.486  19.391  0.00  0.00    +0.000 A 
ATOM     18 CL   UNL     1       4.731   1.387  19.557  0.00  0.00    +0.000 Cl
ATOM     19  C   UNL     1       2.249   2.156  20.114  0.00  0.00    +0.000 A 
ATOM     20  C   UNL     1       1.123   2.968  20.052  0.00  0.00    +0.000 A 
ATOM     21  C   UNL     1       1.164   4.131  19.294  0.00  0.00    +0.000 A 
ATOM     22  C   UNL     1       2.324   4.482  18.589  0.00  0.00    +0.000 A 
ATOM     23 CL   UNL     1       2.269   6.007  17.771  0.00  0.00    +0.000 Cl
ENDBRANCH   9  16
BRANCH   1  24
ATOM     24  O   UNL     1       4.764   3.611  13.494  0.00  0.00    +0.000 OA
BRANCH  24  25
ATOM     25  C   UNL     1       4.721   3.807  12.082  0.00  0.00    +0.000 C 
BRANCH  25  26
ATOM     26  C   UNL     1       4.800   2.427  11.435  0.00  0.00    +0.000 C 
BRANCH  26  28
ATOM     27  C   UNL     1       6.215   0.583  11.080  0.00  0.00    +0.000 C 
ATOM     28  O   UNL     1       6.145   1.957  11.443  0.00  0.00    +0.000 OA
ENDBRANCH  26  28
ENDBRANCH  25  26
ENDBRANCH  24  25
ENDBRANCH   1  24
TORSDOF 5
ENDMDL
MODEL 5
REMARK VINA RESULT:      -7.3      2.814      4.521
REMARK  Name = 
REMARK  6 active torsions:
REMARK  status: ('A' for Active; 'I' for Inactive)
REMARK    1  A    between atoms: C_1  and  O_2
REMARK    2  A    between atoms: O_2  and  C_3
REMARK    3  A    between atoms: C_3  and  C_4
REMARK    4  A    between atoms: C_4  and  O_5
REMARK    5  A    between atoms: O_5  and  C_6
REMARK    6  A    between atoms: C_14  and  C_15
REMARK                            x       y       z     vdW  Elec       q    Type
REMARK                         _______ _______ _______ _____ _____    ______ ____
ROOT
ATOM      1  C   UNL     1       7.280   4.671  16.991  0.00  0.00    +0.000 A 
ATOM      2  N   UNL     1       7.924   4.966  15.853  0.00  0.00    +0.000 NA
ATOM      3  C   UNL     1       7.175   5.012  14.751  0.00  0.00    +0.000 A 
ATOM      4  N   UNL     1       7.803   5.329  13.566  0.00  0.00    +0.000 N 
ATOM      5  N   UNL     1       5.874   4.718  14.695  0.00  0.00    +0.000 NA
ATOM      6  C   UNL     1       5.276   4.440  15.861  0.00  0.00    +0.000 A 
ATOM      7  C   UNL     1       5.927   4.438  17.069  0.00  0.00    +0.000 A 
ATOM      8  C   UNL     1       5.233   4.088  18.344  0.00  0.00    +0.000 C 
ATOM      9  C   UNL     1       3.714   4.277  18.240  0.00  0.00    +0.000 C 
ATOM     10  C   UNL     1       3.149   3.814  16.901  0.00  0.00    +0.000 C 
ATOM     11  O   UNL     1       2.011   3.372  16.759  0.00  0.00    +0.000 OA
ATOM     12  N   UNL     1       3.937   4.065  15.808  0.00  0.00    +0.000 N 
ATOM     13  H   UNL     1       8.788   5.107  13.618  0.00  0.00    +0.000 HD
ATOM     14  H   UNL     1       7.285   4.961  12.781  0.00  0.00    +0.000 HD
ATOM     15  H   UNL     1       3.536   3.924  14.891  0.00  0.00    +0.000 HD
ENDROOT
BRANCH   9  16
ATOM     16  C   UNL     1       2.955   3.745  19.455  0.00  0.00    +0.000 A 
ATOM     17  C   UNL     1       2.250   4.623  20.310  0.00  0.00    +0.000 A 
ATOM     18 CL   UNL     1       2.142   6.328  20.024  0.00  0.00    +0.000 Cl
ATOM     19  C   UNL     1       1.588   4.156  21.454  0.00  0.00    +0.000 A 
ATOM     20  C   UNL     1       1.612   2.806  21.779  0.00  0.00    +0.000 A 
ATOM     21  C   UNL     1       2.269   1.915  20.940  0.00  0.00    +0.000 A 
ATOM     22  C   UNL     1       2.911   2.371  19.780  0.00  0.00    +0.000 A 
ATOM     23 CL   UNL     1       3.600   1.140  18.775  0.00  0.00    +0.000 Cl
ENDBRANCH   9  16
BRANCH   1  24
ATOM     24  O   UNL     1       7.993   4.480  18.155  0.00  0.00    +0.000 OA
BRANCH  24  25
ATOM     25  C   UNL     1       8.018   5.601  19.034  0.00  0.00    +0.000 C 
BRANCH  25  26
ATOM     26  C   UNL     1       7.697   6.836  18.197  0.00  0.00    +0.000 C 
BRANCH  26  28
ATOM     27  C   UNL     1       8.130   9.133  17.942  0.00  0.00    +0.000 C 
ATOM     28  O   UNL     1       8.487   7.941  18.629  0.00  0.00    +0.000 OA
ENDBRANCH  26  28
ENDBRANCH  25  26
ENDBRANCH  24  25
ENDBRANCH   1  24
TORSDOF 5
ENDMDL
MODEL 6
REMARK VINA RESULT:      -7.2      2.775      4.947
REMARK  Name = 
REMARK  6 active torsions:
REMARK  status: ('A' for Active; 'I' for Inactive)
REMARK    1  A    between atoms: C_1  and  O_2
REMARK    2  A    between atoms: O_2  and  C_3
REMARK    3  A    between atoms: C_3  and  C_4
REMARK    4  A    between atoms: C_4  and  O_5
REMARK    5  A    between atoms: O_5  and  C_6
REMARK    6  A    between atoms: C_14  and  C_15
REMARK                            x       y       z     vdW  Elec       q    Type
REMARK                         _______ _______ _______ _____ _____    ______ ____
ROOT
ATOM      1  C   UNL     1       7.161   5.003  16.661  0.00  0.00    +0.000 A 
ATOM      2  N   UNL     1       7.708   5.186  15.451  0.00  0.00    +0.000 NA
ATOM      3  C   UNL     1       6.910   4.962  14.407  0.00  0.00    +0.000 A 
ATOM      4  N   UNL     1       7.437   5.158  13.149  0.00  0.00    +0.000 N 
ATOM      5  N   UNL     1       5.657   4.507  14.483  0.00  0.00    +0.000 NA
ATOM      6  C   UNL     1       5.155   4.350  15.714  0.00  0.00    +0.000 A 
ATOM      7  C   UNL     1       5.855   4.622  16.863  0.00  0.00    +0.000 A 
ATOM      8  C   UNL     1       5.272   4.401  18.220  0.00  0.00    +0.000 C 
ATOM      9  C   UNL     1       3.737   4.384  18.188  0.00  0.00    +0.000 C 
ATOM     10  C   UNL     1       3.178   3.646  16.976  0.00  0.00    +0.000 C 
ATOM     11  O   UNL     1       2.102   3.051  16.979  0.00  0.00    +0.000 OA
ATOM     12  N   UNL     1       3.876   3.811  15.808  0.00  0.00    +0.000 N 
ATOM     13  H   UNL     1       8.443   5.069  13.170  0.00  0.00    +0.000 HD
ATOM     14  H   UNL     1       6.936   4.608  12.466  0.00  0.00    +0.000 HD
ATOM     15  H   UNL     1       3.454   3.476  14.952  0.00  0.00    +0.000 HD
ENDROOT
BRANCH   9  16
ATOM     16  C   UNL     1       3.111   3.967  19.517  0.00  0.00    +0.000 A 
ATOM     17  C   UNL     1       3.276   2.653  20.014  0.00  0.00    +0.000 A 
ATOM     18 CL   UNL     1       4.230   1.455  19.204  0.00  0.00    +0.000 Cl
ATOM     19  C   UNL     1       2.671   2.240  21.208  0.00  0.00    +0.000 A 
ATOM     20  C   UNL     1       1.883   3.120  21.939  0.00  0.00    +0.000 A 
ATOM     21  C   UNL     1       1.729   4.427  21.492  0.00  0.00    +0.000 A 
ATOM     22  C   UNL     1       2.354   4.855  20.312  0.00  0.00    +0.000 A 
ATOM     23 CL   UNL     1       2.160   6.533  19.931  0.00  0.00    +0.000 Cl
ENDBRANCH   9  16
BRANCH   1  24
ATOM     24  O   UNL     1       7.945   5.090  17.791  0.00  0.00    +0.000 OA
BRANCH  24  25
ATOM     25  C   UNL     1       7.616   6.165  18.668  0.00  0.00    +0.000 C 
BRANCH  25  26
ATOM     26  C   UNL     1       7.868   7.462  17.904  0.00  0.00    +0.000 C 
BRANCH  26  28
ATOM     27  C   UNL     1       8.509   9.696  18.260  0.00  0.00    +0.000 C 
ATOM     28  O   UNL     1       8.660   8.348  18.690  0.00  0.00    +0.000 OA
ENDBRANCH  26  28
ENDBRANCH  25  26
ENDBRANCH  24  25
ENDBRANCH   1  24
TORSDOF 5
ENDMDL
MODEL 7
REMARK VINA RESULT:      -7.2      4.816      8.014
REMARK  Name = 
REMARK  6 active torsions:
REMARK  status: ('A' for Active; 'I' for Inactive)
REMARK    1  A    between atoms: C_1  and  O_2
REMARK    2  A    between atoms: O_2  and  C_3
REMARK    3  A    between atoms: C_3  and  C_4
REMARK    4  A    between atoms: C_4  and  O_5
REMARK    5  A    between atoms: O_5  and  C_6
REMARK    6  A    between atoms: C_14  and  C_15
REMARK                            x       y       z     vdW  Elec       q    Type
REMARK                         _______ _______ _______ _____ _____    ______ ____
ROOT
ATOM      1  C   UNL     1       1.276   8.918  20.139  0.00  0.00    +0.000 A 
ATOM      2  N   UNL     1       0.971  10.183  19.814  0.00  0.00    +0.000 NA
ATOM      3  C   UNL     1       1.373  10.591  18.610  0.00  0.00    +0.000 A 
ATOM      4  N   UNL     1       1.060  11.881  18.238  0.00  0.00    +0.000 N 
ATOM      5  N   UNL     1       2.105   9.869  17.759  0.00  0.00    +0.000 NA
ATOM      6  C   UNL     1       2.374   8.609  18.128  0.00  0.00    +0.000 A 
ATOM      7  C   UNL     1       1.948   8.053  19.308  0.00  0.00    +0.000 A 
ATOM      8  C   UNL     1       2.298   6.655  19.699  0.00  0.00    +0.000 C 
ATOM      9  C   UNL     1       2.668   5.795  18.483  0.00  0.00    +0.000 C 
ATOM     10  C   UNL     1       3.516   6.548  17.462  0.00  0.00    +0.000 C 
ATOM     11  O   UNL     1       4.342   6.005  16.731  0.00  0.00    +0.000 OA
ATOM     12  N   UNL     1       3.193   7.868  17.282  0.00  0.00    +0.000 N 
ATOM     13  H   UNL     1       0.914  12.458  19.055  0.00  0.00    +0.000 HD
ATOM     14  H   UNL     1       1.711  12.216  17.542  0.00  0.00    +0.000 HD
ATOM     15  H   UNL     1       3.616   8.358  16.507  0.00  0.00    +0.000 HD
ENDROOT
BRANCH   9  16
ATOM     16  C   UNL     1       3.220   4.422  18.861  0.00  0.00    +0.000 A 
ATOM     17  C   UNL     1       2.421   3.261  18.734  0.00  0.00    +0.000 A 
ATOM     18 CL   UNL     1       0.810   3.294  18.098  0.00  0.00    +0.000 Cl
ATOM     19  C   UNL     1       2.896   2.001  19.119  0.00  0.00    +0.000 A 
ATOM     20  C   UNL     1       4.174   1.860  19.644  0.00  0.00    +0.000 A 
ATOM     21  C   UNL     1       4.993   2.977  19.750  0.00  0.00    +0.000 A 
ATOM     22  C   UNL     1       4.535   4.237  19.341  0.00  0.00    +0.000 A 
ATOM     23 CL   UNL     1       5.695   5.520  19.434  0.00  0.00    +0.000 Cl
ENDBRANCH   9  16
BRANCH   1  24
ATOM     24  O   UNL     1       1.010   8.452  21.408  0.00  0.00    +0.000 OA
BRANCH  24  25
ATOM     25  C   UNL     1      -0.282   8.784  21.911  0.00  0.00    +0.000 C 
BRANCH  25  26
ATOM     26  C   UNL     1      -0.073   9.517  23.234  0.00  0.00    +0.000 C 
BRANCH  26  28
ATOM     27  C   UNL     1      -1.530  11.352  23.035  0.00  0.00    +0.000 C 
ATOM     28  O   UNL     1      -0.174  10.925  23.035  0.00  0.00    +0.000 OA
ENDBRANCH  26  28
ENDBRANCH  25  26
ENDBRANCH  24  25
ENDBRANCH   1  24
TORSDOF 5
ENDMDL
MODEL 8
REMARK VINA RESULT:      -7.0      4.789      7.927
REMARK  Name = 
REMARK  6 active torsions:
REMARK  status: ('A' for Active; 'I' for Inactive)
REMARK    1  A    between atoms: C_1  and  O_2
REMARK    2  A    between atoms: O_2  and  C_3
REMARK    3  A    between atoms: C_3  and  C_4
REMARK    4  A    between atoms: C_4  and  O_5
REMARK    5  A    between atoms: O_5  and  C_6
REMARK    6  A    between atoms: C_14  and  C_15
REMARK                            x       y       z     vdW  Elec       q    Type
REMARK                         _______ _______ _______ _____ _____    ______ ____
ROOT
ATOM      1  C   UNL     1       1.242   8.861  20.046  0.00  0.00    +0.000 A 
ATOM      2  N   UNL     1       0.982  10.136  19.724  0.00  0.00    +0.000 NA
ATOM      3  C   UNL     1       1.446  10.548  18.544  0.00  0.00    +0.000 A 
ATOM      4  N   UNL     1       1.181  11.849  18.174  0.00  0.00    +0.000 N 
ATOM      5  N   UNL     1       2.198   9.817  17.718  0.00  0.00    +0.000 NA
ATOM      6  C   UNL     1       2.420   8.548  18.082  0.00  0.00    +0.000 A 
ATOM      7  C   UNL     1       1.929   7.989  19.236  0.00  0.00    +0.000 A 
ATOM      8  C   UNL     1       2.228   6.579  19.625  0.00  0.00    +0.000 C 
ATOM      9  C   UNL     1       2.632   5.724  18.416  0.00  0.00    +0.000 C 
ATOM     10  C   UNL     1       3.542   6.466  17.442  0.00  0.00    +0.000 C 
ATOM     11  O   UNL     1       4.387   5.912  16.742  0.00  0.00    +0.000 OA
ATOM     12  N   UNL     1       3.259   7.796  17.265  0.00  0.00    +0.000 N 
ATOM     13  H   UNL     1       1.013  12.420  18.991  0.00  0.00    +0.000 HD
ATOM     14  H   UNL     1       1.870  12.176  17.512  0.00  0.00    +0.000 HD
ATOM     15  H   UNL     1       3.727   8.285  16.514  0.00  0.00    +0.000 HD
ENDROOT
BRANCH   9  16
ATOM     16  C   UNL     1       3.133   4.333  18.801  0.00  0.00    +0.000 A 
ATOM     17  C   UNL     1       4.453   4.144  19.273  0.00  0.00    +0.000 A 
ATOM     18 CL   UNL     1       5.565   5.453  19.505  0.00  0.00    +0.000 Cl
ATOM     19  C   UNL     1       4.943   2.870  19.587  0.00  0.00    +0.000 A 
ATOM     20  C   UNL     1       4.137   1.749  19.437  0.00  0.00    +0.000 A 
ATOM     21  C   UNL     1       2.826   1.907  19.006  0.00  0.00    +0.000 A 
ATOM     22  C   UNL     1       2.320   3.182  18.716  0.00  0.00    +0.000 A 
ATOM     23 CL   UNL     1       0.642   3.241  18.289  0.00  0.00    +0.000 Cl
ENDBRANCH   9  16
BRANCH   1  24
ATOM     24  O   UNL     1       0.909   8.387  21.297  0.00  0.00    +0.000 OA
BRANCH  24  25
ATOM     25  C   UNL     1       1.182   9.284  22.371  0.00  0.00    +0.000 C 
BRANCH  25  26
ATOM     26  C   UNL     1      -0.121   9.472  23.142  0.00  0.00    +0.000 C 
BRANCH  26  28
ATOM     27  C   UNL     1      -1.186  11.410  22.341  0.00  0.00    +0.000 C 
ATOM     28  O   UNL     1      -0.365  10.859  23.363  0.00  0.00    +0.000 OA
ENDBRANCH  26  28
ENDBRANCH  25  26
ENDBRANCH  24  25
ENDBRANCH   1  24
TORSDOF 5
ENDMDL
MODEL 9
REMARK VINA RESULT:      -6.7      3.016      5.230
REMARK  Name = 
REMARK  6 active torsions:
REMARK  status: ('A' for Active; 'I' for Inactive)
REMARK    1  A    between atoms: C_1  and  O_2
REMARK    2  A    between atoms: O_2  and  C_3
REMARK    3  A    between atoms: C_3  and  C_4
REMARK    4  A    between atoms: C_4  and  O_5
REMARK    5  A    between atoms: O_5  and  C_6
REMARK    6  A    between atoms: C_14  and  C_15
REMARK                            x       y       z     vdW  Elec       q    Type
REMARK                         _______ _______ _______ _____ _____    ______ ____
ROOT
ATOM      1  C   UNL     1       6.648   6.046  16.940  0.00  0.00    +0.000 A 
ATOM      2  N   UNL     1       7.441   6.152  15.865  0.00  0.00    +0.000 NA
ATOM      3  C   UNL     1       7.346   5.171  14.968  0.00  0.00    +0.000 A 
ATOM      4  N   UNL     1       8.136   5.260  13.842  0.00  0.00    +0.000 N 
ATOM      5  N   UNL     1       6.588   4.080  15.101  0.00  0.00    +0.000 NA
ATOM      6  C   UNL     1       5.808   4.028  16.188  0.00  0.00    +0.000 A 
ATOM      7  C   UNL     1       5.763   5.013  17.142  0.00  0.00    +0.000 A 
ATOM      8  C   UNL     1       4.904   4.902  18.359  0.00  0.00    +0.000 C 
ATOM      9  C   UNL     1       3.747   3.914  18.155  0.00  0.00    +0.000 C 
ATOM     10  C   UNL     1       4.163   2.664  17.386  0.00  0.00    +0.000 C 
ATOM     11  O   UNL     1       3.640   1.563  17.543  0.00  0.00    +0.000 OA
ATOM     12  N   UNL     1       5.065   2.866  16.373  0.00  0.00    +0.000 N 
ATOM     13  H   UNL     1       8.946   5.836  14.023  0.00  0.00    +0.000 HD
ATOM     14  H   UNL     1       8.297   4.342  13.449  0.00  0.00    +0.000 HD
ATOM     15  H   UNL     1       5.244   2.100  15.738  0.00  0.00    +0.000 HD
ENDROOT
BRANCH   9  16
ATOM     16  C   UNL     1       2.968   3.627  19.437  0.00  0.00    +0.000 A 
ATOM     17  C   UNL     1       3.467   2.719  20.400  0.00  0.00    +0.000 A 
ATOM     18 CL   UNL     1       4.997   1.923  20.237  0.00  0.00    +0.000 Cl
ATOM     19  C   UNL     1       2.743   2.410  21.559  0.00  0.00    +0.000 A 
ATOM     20  C   UNL     1       1.502   2.990  21.790  0.00  0.00    +0.000 A 
ATOM     21  C   UNL     1       1.001   3.910  20.878  0.00  0.00    +0.000 A 
ATOM     22  C   UNL     1       1.732   4.246  19.729  0.00  0.00    +0.000 A 
ATOM     23 CL   UNL     1       1.036   5.480  18.734  0.00  0.00    +0.000 Cl
ENDBRANCH   9  16
BRANCH   1  24
ATOM     24  O   UNL     1       6.770   6.947  17.977  0.00  0.00    +0.000 OA
BRANCH  24  25
ATOM     25  C   UNL     1       8.107   7.337  18.277  0.00  0.00    +0.000 C 
BRANCH  25  26
ATOM     26  C   UNL     1       8.206   8.838  18.017  0.00  0.00    +0.000 C 
BRANCH  26  28
ATOM     27  C   UNL     1       9.299  10.812  18.677  0.00  0.00    +0.000 C 
ATOM     28  O   UNL     1       9.028   9.455  19.004  0.00  0.00    +0.000 OA
ENDBRANCH  26  28
ENDBRANCH  25  26
ENDBRANCH  24  25
ENDBRANCH   1  24
TORSDOF 5
ENDMDL
