MODEL 1
REMARK VINA RESULT:      -7.7      0.000      0.000
REMARK  Name = 
REMARK  9 active torsions:
REMARK  status: ('A' for Active; 'I' for Inactive)
REMARK    1  A    between atoms: C_1  and  C_2
REMARK    2  A    between atoms: C_2  and  O_3
REMARK    3  A    between atoms: O_3  and  C_4
REMARK    4  A    between atoms: C_4  and  C_6
REMARK    5  A    between atoms: C_6  and  C_7
REMARK    6  A    between atoms: C_7  and  C_8
REMARK    7  A    between atoms: C_9  and  C_10
REMARK    8  A    between atoms: C_14  and  C_15
REMARK    9  A    between atoms: C_24  and  O_25
REMARK                            x       y       z     vdW  Elec       q    Type
REMARK                         _______ _______ _______ _____ _____    ______ ____
ROOT
ATOM      1  C   UNL     1       0.534   9.985  19.966  0.00  0.00    +0.000 A 
ATOM      2  C   UNL     1       0.574   8.948  21.073  0.00  0.00    +0.000 A 
ATOM      3  C   UNL     1      -0.170   9.174  22.375  0.00  0.00    +0.000 C 
ATOM      4  N   UNL     1       1.231   7.822  21.015  0.00  0.00    +0.000 NA
ATOM      5  C   UNL     1       1.950   7.576  19.888  0.00  0.00    +0.000 A 
ATOM      6  C   UNL     1       2.693   6.493  19.496  0.00  0.00    +0.000 A 
ATOM      7  C   UNL     1       3.208   6.812  18.214  0.00  0.00    +0.000 A 
ATOM      8  N   UNL     1       2.807   8.035  17.826  0.00  0.00    +0.000 NA
ATOM      9  N   UNL     1       2.028   8.485  18.850  0.00  0.00    +0.000 N 
ATOM     10  C   UNL     1       1.315   9.693  18.902  0.00  0.00    +0.000 A 
ENDROOT
BRANCH   7  11
ATOM     11  C   UNL     1       4.036   5.942  17.371  0.00  0.00    +0.000 A 
ATOM     12  C   UNL     1       4.821   6.482  16.341  0.00  0.00    +0.000 A 
ATOM     13  C   UNL     1       5.545   5.639  15.487  0.00  0.00    +0.000 A 
ATOM     14  C   UNL     1       5.489   4.267  15.668  0.00  0.00    +0.000 A 
ATOM     15  F   UNL     1       6.170   3.461  14.839  0.00  0.00    +0.000 F 
ATOM     16  C   UNL     1       4.733   3.708  16.690  0.00  0.00    +0.000 A 
ATOM     17  C   UNL     1       4.009   4.548  17.542  0.00  0.00    +0.000 A 
ENDBRANCH   7  11
BRANCH  10  18
ATOM     18  O   UNL     1       1.414  10.558  17.819  0.00  0.00    +0.000 OA
ATOM     19  H   UNL     1       0.491  10.735  17.534  0.00  0.00    +0.000 HD
ENDBRANCH  10  18
BRANCH   1  20
ATOM     20  C   UNL     1      -0.306  11.231  20.050  0.00  0.00    +0.000 C 
BRANCH  20  21
ATOM     21  C   UNL     1      -1.620  11.133  19.275  0.00  0.00    +0.000 C 
BRANCH  21  22
ATOM     22  C   UNL     1      -1.539  11.934  18.003  0.00  0.00    +0.000 C 
ATOM     23  O   UNL     1      -0.841  12.923  17.836  0.00  0.00    +0.000 OA
BRANCH  22  24
ATOM     24  O   UNL     1      -2.464  11.462  17.120  0.00  0.00    +0.000 OA
BRANCH  24  26
ATOM     25  C   UNL     1      -3.133   9.911  15.447  0.00  0.00    +0.000 C 
ATOM     26  C   UNL     1      -2.164  10.166  16.589  0.00  0.00    +0.000 C 
ENDBRANCH  24  26
ENDBRANCH  22  24
ENDBRANCH  21  22
ENDBRANCH  20  21
ENDBRANCH   1  20
TORSDOF 7
ENDMDL
MODEL 2
REMARK VINA RESULT:      -7.6      4.217      8.181
REMARK  Name = 
REMARK  9 active torsions:
REMARK  status: ('A' for Active; 'I' for Inactive)
REMARK    1  A    between atoms: C_1  and  C_2
REMARK    2  A    between atoms: C_2  and  O_3
REMARK    3  A    between atoms: O_3  and  C_4
REMARK    4  A    between atoms: C_4  and  C_6
REMARK    5  A    between atoms: C_6  and  C_7
REMARK    6  A    between atoms: C_7  and  C_8
REMARK    7  A    between atoms: C_9  and  C_10
REMARK    8  A    between atoms: C_14  and  C_15
REMARK    9  A    between atoms: C_24  and  O_25
REMARK                            x       y       z     vdW  Elec       q    Type
REMARK                         _______ _______ _______ _____ _____    ______ ____
ROOT
ATOM      1  C   UNL     1       3.901   4.946  18.208  0.00  0.00    +0.000 A 
ATOM      2  C   UNL     1       3.294   4.060  19.280  0.00  0.00    +0.000 A 
ATOM      3  C   UNL     1       3.600   2.575  19.324  0.00  0.00    +0.000 C 
ATOM      4  N   UNL     1       2.480   4.471  20.212  0.00  0.00    +0.000 NA
ATOM      5  C   UNL     1       2.136   5.785  20.205  0.00  0.00    +0.000 A 
ATOM      6  C   UNL     1       1.360   6.532  21.054  0.00  0.00    +0.000 A 
ATOM      7  C   UNL     1       1.368   7.852  20.536  0.00  0.00    +0.000 A 
ATOM      8  N   UNL     1       2.111   7.926  19.418  0.00  0.00    +0.000 NA
ATOM      9  N   UNL     1       2.586   6.660  19.235  0.00  0.00    +0.000 N 
ATOM     10  C   UNL     1       3.470   6.226  18.235  0.00  0.00    +0.000 A 
ENDROOT
BRANCH   7  11
ATOM     11  C   UNL     1       0.705   9.020  21.128  0.00  0.00    +0.000 A 
ATOM     12  C   UNL     1       0.838  10.289  20.544  0.00  0.00    +0.000 A 
ATOM     13  C   UNL     1       0.271  11.414  21.160  0.00  0.00    +0.000 A 
ATOM     14  C   UNL     1      -0.430  11.267  22.344  0.00  0.00    +0.000 A 
ATOM     15  F   UNL     1      -0.958  12.346  22.940  0.00  0.00    +0.000 F 
ATOM     16  C   UNL     1      -0.591  10.019  22.934  0.00  0.00    +0.000 A 
ATOM     17  C   UNL     1      -0.025   8.897  22.322  0.00  0.00    +0.000 A 
ENDBRANCH   7  11
BRANCH  10  18
ATOM     18  O   UNL     1       3.907   7.156  17.299  0.00  0.00    +0.000 OA
ATOM     19  H   UNL     1       4.887   7.088  17.293  0.00  0.00    +0.000 HD
ENDBRANCH  10  18
BRANCH   1  20
ATOM     20  C   UNL     1       4.900   4.438  17.203  0.00  0.00    +0.000 C 
BRANCH  20  21
ATOM     21  C   UNL     1       6.352   4.722  17.589  0.00  0.00    +0.000 C 
BRANCH  21  22
ATOM     22  C   UNL     1       7.043   5.491  16.496  0.00  0.00    +0.000 C 
ATOM     23  O   UNL     1       7.695   4.995  15.588  0.00  0.00    +0.000 OA
BRANCH  22  24
ATOM     24  O   UNL     1       6.938   6.825  16.755  0.00  0.00    +0.000 OA
BRANCH  24  26
ATOM     25  C   UNL     1       7.950   8.756  17.702  0.00  0.00    +0.000 C 
ATOM     26  C   UNL     1       7.702   7.269  17.882  0.00  0.00    +0.000 C 
ENDBRANCH  24  26
ENDBRANCH  22  24
ENDBRANCH  21  22
ENDBRANCH  20  21
ENDBRANCH   1  20
TORSDOF 7
ENDMDL
MODEL 3
REMARK VINA RESULT:      -7.5      4.150      8.307
REMARK  Name = 
REMARK  9 active torsions:
REMARK  status: ('A' for Active; 'I' for Inactive)
REMARK    1  A    between atoms: C_1  and  C_2
REMARK    2  A    between atoms: C_2  and  O_3
REMARK    3  A    between atoms: O_3  and  C_4
REMARK    4  A    between atoms: C_4  and  C_6
REMARK    5  A    between atoms: C_6  and  C_7
REMARK    6  A    between atoms: C_7  and  C_8
REMARK    7  A    between atoms: C_9  and  C_10
REMARK    8  A    between atoms: C_14  and  C_15
REMARK    9  A    between atoms: C_24  and  O_25
REMARK                            x       y       z     vdW  Elec       q    Type
REMARK                         _______ _______ _______ _____ _____    ______ ____
ROOT
ATOM      1  C   UNL     1       4.136   4.281  17.512  0.00  0.00    +0.000 A 
ATOM      2  C   UNL     1       3.490   3.409  18.572  0.00  0.00    +0.000 A 
ATOM      3  C   UNL     1       3.698   1.907  18.574  0.00  0.00    +0.000 C 
ATOM      4  N   UNL     1       2.721   3.849  19.530  0.00  0.00    +0.000 NA
ATOM      5  C   UNL     1       2.465   5.183  19.563  0.00  0.00    +0.000 A 
ATOM      6  C   UNL     1       1.755   5.956  20.444  0.00  0.00    +0.000 A 
ATOM      7  C   UNL     1       1.842   7.286  19.960  0.00  0.00    +0.000 A 
ATOM      8  N   UNL     1       2.568   7.340  18.830  0.00  0.00    +0.000 NA
ATOM      9  N   UNL     1       2.955   6.051  18.606  0.00  0.00    +0.000 N 
ATOM     10  C   UNL     1       3.791   5.586  17.579  0.00  0.00    +0.000 A 
ENDROOT
BRANCH   7  11
ATOM     11  C   UNL     1       1.268   8.479  20.592  0.00  0.00    +0.000 A 
ATOM     12  C   UNL     1       1.071   8.528  21.981  0.00  0.00    +0.000 A 
ATOM     13  C   UNL     1       0.447   9.636  22.569  0.00  0.00    +0.000 A 
ATOM     14  C   UNL     1       0.032  10.691  21.773  0.00  0.00    +0.000 A 
ATOM     15  F   UNL     1      -0.580  11.745  22.336  0.00  0.00    +0.000 F 
ATOM     16  C   UNL     1       0.230  10.676  20.399  0.00  0.00    +0.000 A 
ATOM     17  C   UNL     1       0.851   9.570  19.811  0.00  0.00    +0.000 A 
ENDBRANCH   7  11
BRANCH  10  18
ATOM     18  O   UNL     1       4.272   6.510  16.658  0.00  0.00    +0.000 OA
ATOM     19  H   UNL     1       4.993   6.051  16.173  0.00  0.00    +0.000 HD
ENDBRANCH  10  18
BRANCH   1  20
ATOM     20  C   UNL     1       5.081   3.735  16.476  0.00  0.00    +0.000 C 
BRANCH  20  21
ATOM     21  C   UNL     1       6.404   4.496  16.396  0.00  0.00    +0.000 C 
BRANCH  21  22
ATOM     22  C   UNL     1       6.866   4.596  14.967  0.00  0.00    +0.000 C 
ATOM     23  O   UNL     1       7.693   5.393  14.546  0.00  0.00    +0.000 OA
BRANCH  22  24
ATOM     24  O   UNL     1       6.119   3.753  14.199  0.00  0.00    +0.000 OA
BRANCH  24  26
ATOM     25  C   UNL     1       5.232   3.288  12.044  0.00  0.00    +0.000 C 
ATOM     26  C   UNL     1       6.451   3.774  12.806  0.00  0.00    +0.000 C 
ENDBRANCH  24  26
ENDBRANCH  22  24
ENDBRANCH  21  22
ENDBRANCH  20  21
ENDBRANCH   1  20
TORSDOF 7
ENDMDL
MODEL 4
REMARK VINA RESULT:      -7.4      4.273      8.307
REMARK  Name = 
REMARK  9 active torsions:
REMARK  status: ('A' for Active; 'I' for Inactive)
REMARK    1  A    between atoms: C_1  and  C_2
REMARK    2  A    between atoms: C_2  and  O_3
REMARK    3  A    between atoms: O_3  and  C_4
REMARK    4  A    between atoms: C_4  and  C_6
REMARK    5  A    between atoms: C_6  and  C_7
REMARK    6  A    between atoms: C_7  and  C_8
REMARK    7  A    between atoms: C_9  and  C_10
REMARK    8  A    between atoms: C_14  and  C_15
REMARK    9  A    between atoms: C_24  and  O_25
REMARK                            x       y       z     vdW  Elec       q    Type
REMARK                         _______ _______ _______ _____ _____    ______ ____
ROOT
ATOM      1  C   UNL     1       3.659   4.966  18.354  0.00  0.00    +0.000 A 
ATOM      2  C   UNL     1       2.925   4.092  19.354  0.00  0.00    +0.000 A 
ATOM      3  C   UNL     1       3.099   2.585  19.343  0.00  0.00    +0.000 C 
ATOM      4  N   UNL     1       2.105   4.534  20.267  0.00  0.00    +0.000 NA
ATOM      5  C   UNL     1       1.876   5.873  20.306  0.00  0.00    +0.000 A 
ATOM      6  C   UNL     1       1.128   6.648  21.152  0.00  0.00    +0.000 A 
ATOM      7  C   UNL     1       1.275   7.983  20.698  0.00  0.00    +0.000 A 
ATOM      8  N   UNL     1       2.076   8.038  19.619  0.00  0.00    +0.000 NA
ATOM      9  N   UNL     1       2.448   6.745  19.398  0.00  0.00    +0.000 N 
ATOM     10  C   UNL     1       3.339   6.277  18.421  0.00  0.00    +0.000 A 
ENDROOT
BRANCH   7  11
ATOM     11  C   UNL     1       0.687   9.179  21.312  0.00  0.00    +0.000 A 
ATOM     12  C   UNL     1      -0.055   9.082  22.499  0.00  0.00    +0.000 A 
ATOM     13  C   UNL     1      -0.683  10.214  23.035  0.00  0.00    +0.000 A 
ATOM     14  C   UNL     1      -0.561  11.435  22.394  0.00  0.00    +0.000 A 
ATOM     15  F   UNL     1      -1.176  12.515  22.900  0.00  0.00    +0.000 F 
ATOM     16  C   UNL     1       0.182  11.562  21.227  0.00  0.00    +0.000 A 
ATOM     17  C   UNL     1       0.808  10.433  20.689  0.00  0.00    +0.000 A 
ENDBRANCH   7  11
BRANCH  10  18
ATOM     18  O   UNL     1       3.901   7.204  17.550  0.00  0.00    +0.000 OA
ATOM     19  H   UNL     1       3.621   6.927  16.650  0.00  0.00    +0.000 HD
ENDBRANCH  10  18
BRANCH   1  20
ATOM     20  C   UNL     1       4.658   4.414  17.373  0.00  0.00    +0.000 C 
BRANCH  20  21
ATOM     21  C   UNL     1       6.081   4.341  17.928  0.00  0.00    +0.000 C 
BRANCH  21  22
ATOM     22  C   UNL     1       7.038   5.055  17.013  0.00  0.00    +0.000 C 
ATOM     23  O   UNL     1       7.928   4.521  16.365  0.00  0.00    +0.000 OA
BRANCH  22  24
ATOM     24  O   UNL     1       6.841   6.399  17.125  0.00  0.00    +0.000 OA
BRANCH  24  26
ATOM     25  C   UNL     1       7.844   8.489  17.650  0.00  0.00    +0.000 C 
ATOM     26  C   UNL     1       7.688   7.042  18.083  0.00  0.00    +0.000 C 
ENDBRANCH  24  26
ENDBRANCH  22  24
ENDBRANCH  21  22
ENDBRANCH  20  21
ENDBRANCH   1  20
TORSDOF 7
ENDMDL
MODEL 5
REMARK VINA RESULT:      -7.4      0.389      1.040
REMARK  Name = 
REMARK  9 active torsions:
REMARK  status: ('A' for Active; 'I' for Inactive)
REMARK    1  A    between atoms: C_1  and  C_2
REMARK    2  A    between atoms: C_2  and  O_3
REMARK    3  A    between atoms: O_3  and  C_4
REMARK    4  A    between atoms: C_4  and  C_6
REMARK    5  A    between atoms: C_6  and  C_7
REMARK    6  A    between atoms: C_7  and  C_8
REMARK    7  A    between atoms: C_9  and  C_10
REMARK    8  A    between atoms: C_14  and  C_15
REMARK    9  A    between atoms: C_24  and  O_25
REMARK                            x       y       z     vdW  Elec       q    Type
REMARK                         _______ _______ _______ _____ _____    ______ ____
ROOT
ATOM      1  C   UNL     1       0.674   9.982  19.992  0.00  0.00    +0.000 A 
ATOM      2  C   UNL     1       0.692   8.925  21.080  0.00  0.00    +0.000 A 
ATOM      3  C   UNL     1      -0.029   9.153  22.395  0.00  0.00    +0.000 C 
ATOM      4  N   UNL     1       1.311   7.779  20.996  0.00  0.00    +0.000 NA
ATOM      5  C   UNL     1       2.008   7.530  19.857  0.00  0.00    +0.000 A 
ATOM      6  C   UNL     1       2.711   6.430  19.437  0.00  0.00    +0.000 A 
ATOM      7  C   UNL     1       3.221   6.753  18.155  0.00  0.00    +0.000 A 
ATOM      8  N   UNL     1       2.857   7.995  17.792  0.00  0.00    +0.000 NA
ATOM      9  N   UNL     1       2.105   8.454  18.833  0.00  0.00    +0.000 N 
ATOM     10  C   UNL     1       1.433   9.683  18.914  0.00  0.00    +0.000 A 
ENDROOT
BRANCH   7  11
ATOM     11  C   UNL     1       4.010   5.872  17.287  0.00  0.00    +0.000 A 
ATOM     12  C   UNL     1       3.930   4.477  17.421  0.00  0.00    +0.000 A 
ATOM     13  C   UNL     1       4.747   3.643  16.646  0.00  0.00    +0.000 A 
ATOM     14  C   UNL     1       5.631   4.201  15.737  0.00  0.00    +0.000 A 
ATOM     15  F   UNL     1       6.424   3.402  15.008  0.00  0.00    +0.000 F 
ATOM     16  C   UNL     1       5.718   5.578  15.573  0.00  0.00    +0.000 A 
ATOM     17  C   UNL     1       4.904   6.411  16.347  0.00  0.00    +0.000 A 
ENDBRANCH   7  11
BRANCH  10  18
ATOM     18  O   UNL     1       1.548  10.563  17.844  0.00  0.00    +0.000 OA
ATOM     19  H   UNL     1       0.640  10.662  17.482  0.00  0.00    +0.000 HD
ENDBRANCH  10  18
BRANCH   1  20
ATOM     20  C   UNL     1      -0.123  11.253  20.106  0.00  0.00    +0.000 C 
BRANCH  20  21
ATOM     21  C   UNL     1      -1.529  11.146  19.515  0.00  0.00    +0.000 C 
BRANCH  21  22
ATOM     22  C   UNL     1      -1.528  11.592  18.078  0.00  0.00    +0.000 C 
ATOM     23  O   UNL     1      -1.205  12.704  17.684  0.00  0.00    +0.000 OA
BRANCH  22  24
ATOM     24  O   UNL     1      -2.070  10.608  17.306  0.00  0.00    +0.000 OA
BRANCH  24  26
ATOM     25  C   UNL     1      -2.919  10.356  15.101  0.00  0.00    +0.000 C 
ATOM     26  C   UNL     1      -3.118  11.049  16.437  0.00  0.00    +0.000 C 
ENDBRANCH  24  26
ENDBRANCH  22  24
ENDBRANCH  21  22
ENDBRANCH  20  21
ENDBRANCH   1  20
TORSDOF 7
ENDMDL
MODEL 6
REMARK VINA RESULT:      -7.4      6.756      8.833
REMARK  Name = 
REMARK  9 active torsions:
REMARK  status: ('A' for Active; 'I' for Inactive)
REMARK    1  A    between atoms: C_1  and  C_2
REMARK    2  A    between atoms: C_2  and  O_3
REMARK    3  A    between atoms: O_3  and  C_4
REMARK    4  A    between atoms: C_4  and  C_6
REMARK    5  A    between atoms: C_6  and  C_7
REMARK    6  A    between atoms: C_7  and  C_8
REMARK    7  A    between atoms: C_9  and  C_10
REMARK    8  A    between atoms: C_14  and  C_15
REMARK    9  A    between atoms: C_24  and  O_25
REMARK                            x       y       z     vdW  Elec       q    Type
REMARK                         _______ _______ _______ _____ _____    ______ ____
ROOT
ATOM      1  C   UNL     1       6.601   5.387  18.101  0.00  0.00    +0.000 A 
ATOM      2  C   UNL     1       6.077   6.169  16.910  0.00  0.00    +0.000 A 
ATOM      3  C   UNL     1       5.092   5.540  15.942  0.00  0.00    +0.000 C 
ATOM      4  N   UNL     1       6.417   7.393  16.615  0.00  0.00    +0.000 NA
ATOM      5  C   UNL     1       7.326   8.000  17.423  0.00  0.00    +0.000 A 
ATOM      6  C   UNL     1       7.847   9.267  17.421  0.00  0.00    +0.000 A 
ATOM      7  C   UNL     1       8.751   9.323  18.512  0.00  0.00    +0.000 A 
ATOM      8  N   UNL     1       8.794   8.147  19.162  0.00  0.00    +0.000 NA
ATOM      9  N   UNL     1       7.909   7.352  18.495  0.00  0.00    +0.000 N 
ATOM     10  C   UNL     1       7.538   6.038  18.824  0.00  0.00    +0.000 A 
ENDROOT
BRANCH   7  11
ATOM     11  C   UNL     1       9.527  10.493  18.938  0.00  0.00    +0.000 A 
ATOM     12  C   UNL     1      10.222  11.271  17.999  0.00  0.00    +0.000 A 
ATOM     13  C   UNL     1      11.028  12.338  18.421  0.00  0.00    +0.000 A 
ATOM     14  C   UNL     1      11.129  12.629  19.771  0.00  0.00    +0.000 A 
ATOM     15  F   UNL     1      11.913  13.640  20.174  0.00  0.00    +0.000 F 
ATOM     16  C   UNL     1      10.437  11.885  20.720  0.00  0.00    +0.000 A 
ATOM     17  C   UNL     1       9.635  10.820  20.301  0.00  0.00    +0.000 A 
ENDBRANCH   7  11
BRANCH  10  18
ATOM     18  O   UNL     1       8.141   5.445  19.928  0.00  0.00    +0.000 OA
ATOM     19  H   UNL     1       7.407   5.078  20.467  0.00  0.00    +0.000 HD
ENDBRANCH  10  18
BRANCH   1  20
ATOM     20  C   UNL     1       6.114   4.005  18.443  0.00  0.00    +0.000 C 
BRANCH  20  21
ATOM     21  C   UNL     1       4.818   4.000  19.255  0.00  0.00    +0.000 C 
BRANCH  21  22
ATOM     22  C   UNL     1       3.933   2.863  18.819  0.00  0.00    +0.000 C 
ATOM     23  O   UNL     1       3.802   2.472  17.668  0.00  0.00    +0.000 OA
BRANCH  22  24
ATOM     24  O   UNL     1       3.204   2.432  19.887  0.00  0.00    +0.000 OA
BRANCH  24  26
ATOM     25  C   UNL     1       1.225   3.578  20.533  0.00  0.00    +0.000 C 
ATOM     26  C   UNL     1       1.787   2.453  19.683  0.00  0.00    +0.000 C 
ENDBRANCH  24  26
ENDBRANCH  22  24
ENDBRANCH  21  22
ENDBRANCH  20  21
ENDBRANCH   1  20
TORSDOF 7
ENDMDL
MODEL 7
REMARK VINA RESULT:      -7.3      6.950      8.955
REMARK  Name = 
REMARK  9 active torsions:
REMARK  status: ('A' for Active; 'I' for Inactive)
REMARK    1  A    between atoms: C_1  and  C_2
REMARK    2  A    between atoms: C_2  and  O_3
REMARK    3  A    between atoms: O_3  and  C_4
REMARK    4  A    between atoms: C_4  and  C_6
REMARK    5  A    between atoms: C_6  and  C_7
REMARK    6  A    between atoms: C_7  and  C_8
REMARK    7  A    between atoms: C_9  and  C_10
REMARK    8  A    between atoms: C_14  and  C_15
REMARK    9  A    between atoms: C_24  and  O_25
REMARK                            x       y       z     vdW  Elec       q    Type
REMARK                         _______ _______ _______ _____ _____    ______ ____
ROOT
ATOM      1  C   UNL     1       6.562   5.470  18.183  0.00  0.00    +0.000 A 
ATOM      2  C   UNL     1       6.145   6.221  16.932  0.00  0.00    +0.000 A 
ATOM      3  C   UNL     1       5.196   5.593  15.930  0.00  0.00    +0.000 C 
ATOM      4  N   UNL     1       6.555   7.417  16.611  0.00  0.00    +0.000 NA
ATOM      5  C   UNL     1       7.437   8.021  17.450  0.00  0.00    +0.000 A 
ATOM      6  C   UNL     1       8.011   9.265  17.432  0.00  0.00    +0.000 A 
ATOM      7  C   UNL     1       8.848   9.330  18.574  0.00  0.00    +0.000 A 
ATOM      8  N   UNL     1       8.801   8.181  19.270  0.00  0.00    +0.000 NA
ATOM      9  N   UNL     1       7.925   7.395  18.582  0.00  0.00    +0.000 N 
ATOM     10  C   UNL     1       7.480   6.113  18.938  0.00  0.00    +0.000 A 
ENDROOT
BRANCH   7  11
ATOM     11  C   UNL     1       9.645  10.486  19.001  0.00  0.00    +0.000 A 
ATOM     12  C   UNL     1       9.712  10.847  20.356  0.00  0.00    +0.000 A 
ATOM     13  C   UNL     1      10.407  12.000  20.747  0.00  0.00    +0.000 A 
ATOM     14  C   UNL     1      11.038  12.778  19.792  0.00  0.00    +0.000 A 
ATOM     15  F   UNL     1      11.689  13.890  20.167  0.00  0.00    +0.000 F 
ATOM     16  C   UNL     1      11.001  12.434  18.447  0.00  0.00    +0.000 A 
ATOM     17  C   UNL     1      10.307  11.285  18.054  0.00  0.00    +0.000 A 
ENDBRANCH   7  11
BRANCH  10  18
ATOM     18  O   UNL     1       7.989   5.543  20.099  0.00  0.00    +0.000 OA
ATOM     19  H   UNL     1       8.500   6.255  20.543  0.00  0.00    +0.000 HD
ENDBRANCH  10  18
BRANCH   1  20
ATOM     20  C   UNL     1       5.997   4.124  18.548  0.00  0.00    +0.000 C 
BRANCH  20  21
ATOM     21  C   UNL     1       4.782   4.204  19.474  0.00  0.00    +0.000 C 
BRANCH  21  22
ATOM     22  C   UNL     1       4.290   2.822  19.811  0.00  0.00    +0.000 C 
ATOM     23  O   UNL     1       4.999   1.878  20.128  0.00  0.00    +0.000 OA
BRANCH  22  24
ATOM     24  O   UNL     1       2.949   2.758  19.578  0.00  0.00    +0.000 OA
BRANCH  24  26
ATOM     25  C   UNL     1       2.424   3.052  17.279  0.00  0.00    +0.000 C 
ATOM     26  C   UNL     1       2.589   2.037  18.395  0.00  0.00    +0.000 C 
ENDBRANCH  24  26
ENDBRANCH  22  24
ENDBRANCH  21  22
ENDBRANCH  20  21
ENDBRANCH   1  20
TORSDOF 7
ENDMDL
MODEL 8
REMARK VINA RESULT:      -7.3      4.511      8.254
REMARK  Name = 
REMARK  9 active torsions:
REMARK  status: ('A' for Active; 'I' for Inactive)
REMARK    1  A    between atoms: C_1  and  C_2
REMARK    2  A    between atoms: C_2  and  O_3
REMARK    3  A    between atoms: O_3  and  C_4
REMARK    4  A    between atoms: C_4  and  C_6
REMARK    5  A    between atoms: C_6  and  C_7
REMARK    6  A    between atoms: C_7  and  C_8
REMARK    7  A    between atoms: C_9  and  C_10
REMARK    8  A    between atoms: C_14  and  C_15
REMARK    9  A    between atoms: C_24  and  O_25
REMARK                            x       y       z     vdW  Elec       q    Type
REMARK                         _______ _______ _______ _____ _____    ______ ____
ROOT
ATOM      1  C   UNL     1       3.942   5.621  18.424  0.00  0.00    +0.000 A 
ATOM      2  C   UNL     1       3.944   6.687  17.345  0.00  0.00    +0.000 A 
ATOM      3  C   UNL     1       4.760   6.508  16.079  0.00  0.00    +0.000 C 
ATOM      4  N   UNL     1       3.283   7.810  17.406  0.00  0.00    +0.000 NA
ATOM      5  C   UNL     1       2.561   8.049  18.532  0.00  0.00    +0.000 A 
ATOM      6  C   UNL     1       1.735   9.083  18.887  0.00  0.00    +0.000 A 
ATOM      7  C   UNL     1       1.256   8.778  20.186  0.00  0.00    +0.000 A 
ATOM      8  N   UNL     1       1.761   7.611  20.623  0.00  0.00    +0.000 NA
ATOM      9  N   UNL     1       2.545   7.169  19.598  0.00  0.00    +0.000 N 
ATOM     10  C   UNL     1       3.245   5.954  19.533  0.00  0.00    +0.000 A 
ENDROOT
BRANCH   7  11
ATOM     11  C   UNL     1       0.307   9.576  20.971  0.00  0.00    +0.000 A 
ATOM     12  C   UNL     1      -0.315  10.702  20.410  0.00  0.00    +0.000 A 
ATOM     13  C   UNL     1      -1.156  11.507  21.191  0.00  0.00    +0.000 A 
ATOM     14  C   UNL     1      -1.380  11.182  22.518  0.00  0.00    +0.000 A 
ATOM     15  F   UNL     1      -2.172  11.962  23.268  0.00  0.00    +0.000 F 
ATOM     16  C   UNL     1      -0.789  10.063  23.092  0.00  0.00    +0.000 A 
ATOM     17  C   UNL     1       0.052   9.260  22.316  0.00  0.00    +0.000 A 
ENDBRANCH   7  11
BRANCH  10  18
ATOM     18  O   UNL     1       3.173   5.098  20.627  0.00  0.00    +0.000 OA
ATOM     19  H   UNL     1       3.851   5.420  21.261  0.00  0.00    +0.000 HD
ENDBRANCH  10  18
BRANCH   1  20
ATOM     20  C   UNL     1       4.656   4.306  18.269  0.00  0.00    +0.000 C 
BRANCH  20  21
ATOM     21  C   UNL     1       3.738   3.161  17.838  0.00  0.00    +0.000 C 
BRANCH  21  22
ATOM     22  C   UNL     1       3.539   2.194  18.974  0.00  0.00    +0.000 C 
ATOM     23  O   UNL     1       4.415   1.813  19.739  0.00  0.00    +0.000 OA
BRANCH  22  24
ATOM     24  O   UNL     1       2.266   1.712  18.931  0.00  0.00    +0.000 OA
BRANCH  24  26
ATOM     25  C   UNL     1       0.620   3.123  19.905  0.00  0.00    +0.000 C 
ATOM     26  C   UNL     1       1.274   2.692  18.605  0.00  0.00    +0.000 C 
ENDBRANCH  24  26
ENDBRANCH  22  24
ENDBRANCH  21  22
ENDBRANCH  20  21
ENDBRANCH   1  20
TORSDOF 7
ENDMDL
MODEL 9
REMARK VINA RESULT:      -7.3      6.111      8.573
REMARK  Name = 
REMARK  9 active torsions:
REMARK  status: ('A' for Active; 'I' for Inactive)
REMARK    1  A    between atoms: C_1  and  C_2
REMARK    2  A    between atoms: C_2  and  O_3
REMARK    3  A    between atoms: O_3  and  C_4
REMARK    4  A    between atoms: C_4  and  C_6
REMARK    5  A    between atoms: C_6  and  C_7
REMARK    6  A    between atoms: C_7  and  C_8
REMARK    7  A    between atoms: C_9  and  C_10
REMARK    8  A    between atoms: C_14  and  C_15
REMARK    9  A    between atoms: C_24  and  O_25
REMARK                            x       y       z     vdW  Elec       q    Type
REMARK                         _______ _______ _______ _____ _____    ______ ____
ROOT
ATOM      1  C   UNL     1       6.656   5.434  18.076  0.00  0.00    +0.000 A 
ATOM      2  C   UNL     1       6.124   6.224  16.895  0.00  0.00    +0.000 A 
ATOM      3  C   UNL     1       5.143   5.598  15.921  0.00  0.00    +0.000 C 
ATOM      4  N   UNL     1       6.454   7.454  16.612  0.00  0.00    +0.000 NA
ATOM      5  C   UNL     1       7.359   8.060  17.424  0.00  0.00    +0.000 A 
ATOM      6  C   UNL     1       7.869   9.331  17.436  0.00  0.00    +0.000 A 
ATOM      7  C   UNL     1       8.775   9.382  18.526  0.00  0.00    +0.000 A 
ATOM      8  N   UNL     1       8.829   8.200  19.162  0.00  0.00    +0.000 NA
ATOM      9  N   UNL     1       7.949   7.405  18.489  0.00  0.00    +0.000 N 
ATOM     10  C   UNL     1       7.590   6.085  18.804  0.00  0.00    +0.000 A 
ENDROOT
BRANCH   7  11
ATOM     11  C   UNL     1       9.542  10.555  18.963  0.00  0.00    +0.000 A 
ATOM     12  C   UNL     1      10.255  11.329  18.035  0.00  0.00    +0.000 A 
ATOM     13  C   UNL     1      11.052  12.398  18.469  0.00  0.00    +0.000 A 
ATOM     14  C   UNL     1      11.126  12.694  19.820  0.00  0.00    +0.000 A 
ATOM     15  F   UNL     1      11.901  13.706  20.235  0.00  0.00    +0.000 F 
ATOM     16  C   UNL     1      10.416  11.953  20.757  0.00  0.00    +0.000 A 
ATOM     17  C   UNL     1       9.623  10.886  20.326  0.00  0.00    +0.000 A 
ENDBRANCH   7  11
BRANCH  10  18
ATOM     18  O   UNL     1       8.199   5.485  19.900  0.00  0.00    +0.000 OA
ATOM     19  H   UNL     1       9.102   5.870  19.947  0.00  0.00    +0.000 HD
ENDBRANCH  10  18
BRANCH   1  20
ATOM     20  C   UNL     1       6.181   4.044  18.404  0.00  0.00    +0.000 C 
BRANCH  20  21
ATOM     21  C   UNL     1       4.936   4.020  19.292  0.00  0.00    +0.000 C 
BRANCH  21  22
ATOM     22  C   UNL     1       3.733   3.598  18.493  0.00  0.00    +0.000 C 
ATOM     23  O   UNL     1       3.707   2.679  17.687  0.00  0.00    +0.000 OA
BRANCH  22  24
ATOM     24  O   UNL     1       2.721   4.484  18.712  0.00  0.00    +0.000 OA
BRANCH  24  26
ATOM     25  C   UNL     1       2.601   6.835  18.385  0.00  0.00    +0.000 C 
ATOM     26  C   UNL     1       3.140   5.731  19.277  0.00  0.00    +0.000 C 
ENDBRANCH  24  26
ENDBRANCH  22  24
ENDBRANCH  21  22
ENDBRANCH  20  21
ENDBRANCH   1  20
TORSDOF 7
ENDMDL
