MODEL 1
REMARK VINA RESULT:      -8.4      0.000      0.000
REMARK  Name = 
REMARK  5 active torsions:
REMARK  status: ('A' for Active; 'I' for Inactive)
REMARK    1  A    between atoms: C_2  and  C_3
REMARK    2  A    between atoms: N_5  and  C_6
REMARK    3  A    between atoms: C_9  and  C_10
REMARK    4  A    between atoms: C_10  and  O_12
REMARK    5  A    between atoms: C_17  and  C_18
REMARK                            x       y       z     vdW  Elec       q    Type
REMARK                         _______ _______ _______ _____ _____    ______ ____
ROOT
ATOM      1  C   UNL     1       2.296   4.114  20.412  0.00  0.00    +0.000 A 
ATOM      2  C   UNL     1       3.056   3.779  19.314  0.00  0.00    +0.000 A 
ATOM      3  N   UNL     1       3.328   4.926  18.589  0.00  0.00    +0.000 N 
ATOM      4  C   UNL     1       2.661   5.994  19.196  0.00  0.00    +0.000 A 
ATOM      5  C   UNL     1       2.508   7.348  18.819  0.00  0.00    +0.000 A 
ATOM      6  C   UNL     1       1.746   8.237  19.607  0.00  0.00    +0.000 A 
ATOM      7  C   UNL     1       1.133   7.725  20.759  0.00  0.00    +0.000 A 
ATOM      8  C   UNL     1       1.261   6.383  21.134  0.00  0.00    +0.000 A 
ATOM      9  C   UNL     1       2.019   5.500  20.336  0.00  0.00    +0.000 A 
ENDROOT
BRANCH   3  10
ATOM     10  C   UNL     1       4.174   4.947  17.438  0.00  0.00    +0.000 A 
ATOM     11  C   UNL     1       4.660   3.739  16.915  0.00  0.00    +0.000 A 
ATOM     12  C   UNL     1       5.531   3.742  15.822  0.00  0.00    +0.000 A 
ATOM     13  C   UNL     1       5.940   4.951  15.250  0.00  0.00    +0.000 A 
ATOM     14  C   UNL     1       5.434   6.157  15.747  0.00  0.00    +0.000 A 
ATOM     15  C   UNL     1       4.563   6.155  16.845  0.00  0.00    +0.000 A 
BRANCH  13  16
ATOM     16  C   UNL     1       6.893   4.893  14.112  0.00  0.00    +0.000 C 
ATOM     17  O   UNL     1       7.877   5.608  14.038  0.00  0.00    +0.000 OA
BRANCH  16  18
ATOM     18  O   UNL     1       6.543   4.018  13.147  0.00  0.00    +0.000 OA
ATOM     19  H   UNL     1       7.274   3.504  12.761  0.00  0.00    +0.000 HD
ENDBRANCH  16  18
ENDBRANCH  13  16
ENDBRANCH   3  10
BRANCH   6  20
ATOM     20  C   UNL     1       1.612   9.666  19.222  0.00  0.00    +0.000 A 
ATOM     21  C   UNL     1       2.285  10.193  18.103  0.00  0.00    +0.000 A 
ATOM     22  C   UNL     1       2.202  11.549  17.768  0.00  0.00    +0.000 A 
ATOM     23  C   UNL     1       1.426  12.409  18.534  0.00  0.00    +0.000 A 
ATOM     24  C   UNL     1       0.732  11.914  19.634  0.00  0.00    +0.000 A 
ATOM     25  C   UNL     1       0.830  10.560  19.976  0.00  0.00    +0.000 A 
ENDBRANCH   6  20
BRANCH   1  27
ATOM     26  N   UNL     1       1.538   2.449  22.247  0.00  0.00    +0.000 NA
ATOM     27  C   UNL     1       1.875   3.197  21.425  0.00  0.00    +0.000 C 
ENDBRANCH   1  27
TORSDOF 5
ENDMDL
MODEL 2
REMARK VINA RESULT:      -8.4      3.065      6.749
REMARK  Name = 
REMARK  5 active torsions:
REMARK  status: ('A' for Active; 'I' for Inactive)
REMARK    1  A    between atoms: C_2  and  C_3
REMARK    2  A    between atoms: N_5  and  C_6
REMARK    3  A    between atoms: C_9  and  C_10
REMARK    4  A    between atoms: C_10  and  O_12
REMARK    5  A    between atoms: C_17  and  C_18
REMARK                            x       y       z     vdW  Elec       q    Type
REMARK                         _______ _______ _______ _____ _____    ______ ____
ROOT
ATOM      1  C   UNL     1       2.111   4.110  20.654  0.00  0.00    +0.000 A 
ATOM      2  C   UNL     1       1.757   5.438  20.733  0.00  0.00    +0.000 A 
ATOM      3  N   UNL     1       2.281   6.111  19.643  0.00  0.00    +0.000 N 
ATOM      4  C   UNL     1       3.048   5.207  18.902  0.00  0.00    +0.000 A 
ATOM      5  C   UNL     1       3.879   5.380  17.772  0.00  0.00    +0.000 A 
ATOM      6  C   UNL     1       4.583   4.289  17.217  0.00  0.00    +0.000 A 
ATOM      7  C   UNL     1       4.444   3.041  17.838  0.00  0.00    +0.000 A 
ATOM      8  C   UNL     1       3.640   2.859  18.968  0.00  0.00    +0.000 A 
ATOM      9  C   UNL     1       2.945   3.957  19.519  0.00  0.00    +0.000 A 
ENDROOT
BRANCH   3  10
ATOM     10  C   UNL     1       2.022   7.489  19.369  0.00  0.00    +0.000 A 
ATOM     11  C   UNL     1       1.443   8.293  20.362  0.00  0.00    +0.000 A 
ATOM     12  C   UNL     1       1.134   9.630  20.096  0.00  0.00    +0.000 A 
ATOM     13  C   UNL     1       1.383  10.174  18.832  0.00  0.00    +0.000 A 
ATOM     14  C   UNL     1       1.990   9.385  17.849  0.00  0.00    +0.000 A 
ATOM     15  C   UNL     1       2.297   8.044  18.113  0.00  0.00    +0.000 A 
BRANCH  13  16
ATOM     16  C   UNL     1       1.003  11.590  18.598  0.00  0.00    +0.000 C 
ATOM     17  O   UNL     1      -0.042  12.068  19.002  0.00  0.00    +0.000 OA
BRANCH  16  18
ATOM     18  O   UNL     1       1.891  12.281  17.854  0.00  0.00    +0.000 OA
ATOM     19  H   UNL     1       2.575  11.746  17.413  0.00  0.00    +0.000 HD
ENDBRANCH  16  18
ENDBRANCH  13  16
ENDBRANCH   3  10
BRANCH   6  20
ATOM     20  C   UNL     1       5.432   4.471  16.011  0.00  0.00    +0.000 A 
ATOM     21  C   UNL     1       5.073   3.918  14.767  0.00  0.00    +0.000 A 
ATOM     22  C   UNL     1       5.896   4.044  13.643  0.00  0.00    +0.000 A 
ATOM     23  C   UNL     1       7.092   4.747  13.730  0.00  0.00    +0.000 A 
ATOM     24  C   UNL     1       7.463   5.324  14.940  0.00  0.00    +0.000 A 
ATOM     25  C   UNL     1       6.646   5.182  16.068  0.00  0.00    +0.000 A 
ENDBRANCH   6  20
BRANCH   1  27
ATOM     26  N   UNL     1       1.363   2.270  22.316  0.00  0.00    +0.000 NA
ATOM     27  C   UNL     1       1.698   3.097  21.573  0.00  0.00    +0.000 C 
ENDBRANCH   1  27
TORSDOF 5
ENDMDL
MODEL 3
REMARK VINA RESULT:      -8.3      0.074      1.132
REMARK  Name = 
REMARK  5 active torsions:
REMARK  status: ('A' for Active; 'I' for Inactive)
REMARK    1  A    between atoms: C_2  and  C_3
REMARK    2  A    between atoms: N_5  and  C_6
REMARK    3  A    between atoms: C_9  and  C_10
REMARK    4  A    between atoms: C_10  and  O_12
REMARK    5  A    between atoms: C_17  and  C_18
REMARK                            x       y       z     vdW  Elec       q    Type
REMARK                         _______ _______ _______ _____ _____    ______ ____
ROOT
ATOM      1  C   UNL     1       2.255   4.126  20.415  0.00  0.00    +0.000 A 
ATOM      2  C   UNL     1       3.005   3.785  19.312  0.00  0.00    +0.000 A 
ATOM      3  N   UNL     1       3.289   4.931  18.588  0.00  0.00    +0.000 N 
ATOM      4  C   UNL     1       2.638   6.005  19.202  0.00  0.00    +0.000 A 
ATOM      5  C   UNL     1       2.501   7.362  18.830  0.00  0.00    +0.000 A 
ATOM      6  C   UNL     1       1.755   8.258  19.625  0.00  0.00    +0.000 A 
ATOM      7  C   UNL     1       1.141   7.751  20.778  0.00  0.00    +0.000 A 
ATOM      8  C   UNL     1       1.253   6.407  21.149  0.00  0.00    +0.000 A 
ATOM      9  C   UNL     1       1.996   5.516  20.344  0.00  0.00    +0.000 A 
ENDROOT
BRANCH   3  10
ATOM     10  C   UNL     1       4.129   4.944  17.433  0.00  0.00    +0.000 A 
ATOM     11  C   UNL     1       4.586   3.730  16.897  0.00  0.00    +0.000 A 
ATOM     12  C   UNL     1       5.452   3.725  15.800  0.00  0.00    +0.000 A 
ATOM     13  C   UNL     1       5.884   4.930  15.236  0.00  0.00    +0.000 A 
ATOM     14  C   UNL     1       5.405   6.142  15.747  0.00  0.00    +0.000 A 
ATOM     15  C   UNL     1       4.540   6.149  16.849  0.00  0.00    +0.000 A 
BRANCH  13  16
ATOM     16  C   UNL     1       6.829   4.862  14.093  0.00  0.00    +0.000 C 
ATOM     17  O   UNL     1       6.640   4.151  13.121  0.00  0.00    +0.000 OA
BRANCH  16  18
ATOM     18  O   UNL     1       7.938   5.613  14.253  0.00  0.00    +0.000 OA
ATOM     19  H   UNL     1       8.643   5.210  14.790  0.00  0.00    +0.000 HD
ENDBRANCH  16  18
ENDBRANCH  13  16
ENDBRANCH   3  10
BRANCH   6  20
ATOM     20  C   UNL     1       1.639   9.690  19.245  0.00  0.00    +0.000 A 
ATOM     21  C   UNL     1       0.815  10.578  19.962  0.00  0.00    +0.000 A 
ATOM     22  C   UNL     1       0.664  11.915  19.576  0.00  0.00    +0.000 A 
ATOM     23  C   UNL     1       1.351  12.402  18.470  0.00  0.00    +0.000 A 
ATOM     24  C   UNL     1       2.189  11.554  17.753  0.00  0.00    +0.000 A 
ATOM     25  C   UNL     1       2.325  10.213  18.133  0.00  0.00    +0.000 A 
ENDBRANCH   6  20
BRANCH   1  27
ATOM     26  N   UNL     1       1.485   2.469  22.251  0.00  0.00    +0.000 NA
ATOM     27  C   UNL     1       1.827   3.212  21.427  0.00  0.00    +0.000 C 
ENDBRANCH   1  27
TORSDOF 5
ENDMDL
MODEL 4
REMARK VINA RESULT:      -8.2      2.937      6.656
REMARK  Name = 
REMARK  5 active torsions:
REMARK  status: ('A' for Active; 'I' for Inactive)
REMARK    1  A    between atoms: C_2  and  C_3
REMARK    2  A    between atoms: N_5  and  C_6
REMARK    3  A    between atoms: C_9  and  C_10
REMARK    4  A    between atoms: C_10  and  O_12
REMARK    5  A    between atoms: C_17  and  C_18
REMARK                            x       y       z     vdW  Elec       q    Type
REMARK                         _______ _______ _______ _____ _____    ______ ____
ROOT
ATOM      1  C   UNL     1       2.094   4.064  20.663  0.00  0.00    +0.000 A 
ATOM      2  C   UNL     1       1.734   5.391  20.722  0.00  0.00    +0.000 A 
ATOM      3  N   UNL     1       2.269   6.052  19.629  0.00  0.00    +0.000 N 
ATOM      4  C   UNL     1       3.049   5.141  18.910  0.00  0.00    +0.000 A 
ATOM      5  C   UNL     1       3.893   5.303  17.788  0.00  0.00    +0.000 A 
ATOM      6  C   UNL     1       4.607   4.208  17.255  0.00  0.00    +0.000 A 
ATOM      7  C   UNL     1       4.465   2.967  17.890  0.00  0.00    +0.000 A 
ATOM      8  C   UNL     1       3.647   2.796  19.012  0.00  0.00    +0.000 A 
ATOM      9  C   UNL     1       2.942   3.898  19.542  0.00  0.00    +0.000 A 
ENDROOT
BRANCH   3  10
ATOM     10  C   UNL     1       2.009   7.425  19.335  0.00  0.00    +0.000 A 
ATOM     11  C   UNL     1       2.339   7.935  18.070  0.00  0.00    +0.000 A 
ATOM     12  C   UNL     1       2.141   9.288  17.780  0.00  0.00    +0.000 A 
ATOM     13  C   UNL     1       1.629  10.150  18.755  0.00  0.00    +0.000 A 
ATOM     14  C   UNL     1       1.270   9.640  20.008  0.00  0.00    +0.000 A 
ATOM     15  C   UNL     1       1.470   8.285  20.300  0.00  0.00    +0.000 A 
BRANCH  13  16
ATOM     16  C   UNL     1       1.472  11.584  18.401  0.00  0.00    +0.000 C 
ATOM     17  O   UNL     1       0.563  12.274  18.828  0.00  0.00    +0.000 OA
BRANCH  16  18
ATOM     18  O   UNL     1       2.392  12.036  17.524  0.00  0.00    +0.000 OA
ATOM     19  H   UNL     1       2.037  12.514  16.754  0.00  0.00    +0.000 HD
ENDBRANCH  16  18
ENDBRANCH  13  16
ENDBRANCH   3  10
BRANCH   6  20
ATOM     20  C   UNL     1       5.470   4.377  16.058  0.00  0.00    +0.000 A 
ATOM     21  C   UNL     1       6.682   5.093  16.118  0.00  0.00    +0.000 A 
ATOM     22  C   UNL     1       7.471   5.298  14.981  0.00  0.00    +0.000 A 
ATOM     23  C   UNL     1       7.076   4.773  13.756  0.00  0.00    +0.000 A 
ATOM     24  C   UNL     1       5.895   4.043  13.669  0.00  0.00    +0.000 A 
ATOM     25  C   UNL     1       5.100   3.854  14.805  0.00  0.00    +0.000 A 
ENDBRANCH   6  20
BRANCH   1  27
ATOM     26  N   UNL     1       1.325   2.249  22.344  0.00  0.00    +0.000 NA
ATOM     27  C   UNL     1       1.673   3.061  21.590  0.00  0.00    +0.000 C 
ENDBRANCH   1  27
TORSDOF 5
ENDMDL
MODEL 5
REMARK VINA RESULT:      -7.9      0.187      1.148
REMARK  Name = 
REMARK  5 active torsions:
REMARK  status: ('A' for Active; 'I' for Inactive)
REMARK    1  A    between atoms: C_2  and  C_3
REMARK    2  A    between atoms: N_5  and  C_6
REMARK    3  A    between atoms: C_9  and  C_10
REMARK    4  A    between atoms: C_10  and  O_12
REMARK    5  A    between atoms: C_17  and  C_18
REMARK                            x       y       z     vdW  Elec       q    Type
REMARK                         _______ _______ _______ _____ _____    ______ ____
ROOT
ATOM      1  C   UNL     1       2.293   3.983  20.456  0.00  0.00    +0.000 A 
ATOM      2  C   UNL     1       3.094   3.630  19.394  0.00  0.00    +0.000 A 
ATOM      3  N   UNL     1       3.400   4.765  18.663  0.00  0.00    +0.000 N 
ATOM      4  C   UNL     1       2.714   5.844  19.228  0.00  0.00    +0.000 A 
ATOM      5  C   UNL     1       2.582   7.193  18.826  0.00  0.00    +0.000 A 
ATOM      6  C   UNL     1       1.793   8.096  19.570  0.00  0.00    +0.000 A 
ATOM      7  C   UNL     1       1.133   7.604  20.704  0.00  0.00    +0.000 A 
ATOM      8  C   UNL     1       1.240   6.267  21.104  0.00  0.00    +0.000 A 
ATOM      9  C   UNL     1       2.026   5.370  20.349  0.00  0.00    +0.000 A 
ENDROOT
BRANCH   3  10
ATOM     10  C   UNL     1       4.291   4.766  17.546  0.00  0.00    +0.000 A 
ATOM     11  C   UNL     1       4.568   5.972  16.884  0.00  0.00    +0.000 A 
ATOM     12  C   UNL     1       5.395   5.986  15.758  0.00  0.00    +0.000 A 
ATOM     13  C   UNL     1       5.941   4.795  15.269  0.00  0.00    +0.000 A 
ATOM     14  C   UNL     1       5.693   3.594  15.944  0.00  0.00    +0.000 A 
ATOM     15  C   UNL     1       4.862   3.579  17.072  0.00  0.00    +0.000 A 
BRANCH  13  16
ATOM     16  C   UNL     1       6.785   4.866  14.049  0.00  0.00    +0.000 C 
ATOM     17  O   UNL     1       6.518   4.261  13.026  0.00  0.00    +0.000 OA
BRANCH  16  18
ATOM     18  O   UNL     1       7.898   5.616  14.195  0.00  0.00    +0.000 OA
ATOM     19  H   UNL     1       8.548   5.279  14.836  0.00  0.00    +0.000 HD
ENDBRANCH  16  18
ENDBRANCH  13  16
ENDBRANCH   3  10
BRANCH   6  20
ATOM     20  C   UNL     1       1.682   9.520  19.159  0.00  0.00    +0.000 A 
ATOM     21  C   UNL     1       2.365  10.017  18.033  0.00  0.00    +0.000 A 
ATOM     22  C   UNL     1       2.302  11.368  17.673  0.00  0.00    +0.000 A 
ATOM     23  C   UNL     1       1.536  12.253  18.422  0.00  0.00    +0.000 A 
ATOM     24  C   UNL     1       0.832  11.787  19.528  0.00  0.00    +0.000 A 
ATOM     25  C   UNL     1       0.910  10.439  19.895  0.00  0.00    +0.000 A 
ENDBRANCH   6  20
BRANCH   1  27
ATOM     26  N   UNL     1       1.447   2.350  22.280  0.00  0.00    +0.000 NA
ATOM     27  C   UNL     1       1.829   3.083  21.464  0.00  0.00    +0.000 C 
ENDBRANCH   1  27
TORSDOF 5
ENDMDL
MODEL 6
REMARK VINA RESULT:      -7.3      1.309      1.757
REMARK  Name = 
REMARK  5 active torsions:
REMARK  status: ('A' for Active; 'I' for Inactive)
REMARK    1  A    between atoms: C_2  and  C_3
REMARK    2  A    between atoms: N_5  and  C_6
REMARK    3  A    between atoms: C_9  and  C_10
REMARK    4  A    between atoms: C_10  and  O_12
REMARK    5  A    between atoms: C_17  and  C_18
REMARK                            x       y       z     vdW  Elec       q    Type
REMARK                         _______ _______ _______ _____ _____    ______ ____
ROOT
ATOM      1  C   UNL     1       4.014   3.138  19.971  0.00  0.00    +0.000 A 
ATOM      2  C   UNL     1       4.741   3.040  18.806  0.00  0.00    +0.000 A 
ATOM      3  N   UNL     1       4.657   4.240  18.121  0.00  0.00    +0.000 N 
ATOM      4  C   UNL     1       3.796   5.085  18.827  0.00  0.00    +0.000 A 
ATOM      5  C   UNL     1       3.279   6.366  18.529  0.00  0.00    +0.000 A 
ATOM      6  C   UNL     1       2.385   7.009  19.413  0.00  0.00    +0.000 A 
ATOM      7  C   UNL     1       2.017   6.325  20.579  0.00  0.00    +0.000 A 
ATOM      8  C   UNL     1       2.506   5.049  20.877  0.00  0.00    +0.000 A 
ATOM      9  C   UNL     1       3.394   4.411  19.984  0.00  0.00    +0.000 A 
ENDROOT
BRANCH   3  10
ATOM     10  C   UNL     1       5.374   4.509  16.915  0.00  0.00    +0.000 A 
ATOM     11  C   UNL     1       4.827   4.116  15.684  0.00  0.00    +0.000 A 
ATOM     12  C   UNL     1       5.536   4.323  14.498  0.00  0.00    +0.000 A 
ATOM     13  C   UNL     1       6.806   4.909  14.528  0.00  0.00    +0.000 A 
ATOM     14  C   UNL     1       7.342   5.331  15.750  0.00  0.00    +0.000 A 
ATOM     15  C   UNL     1       6.633   5.121  16.940  0.00  0.00    +0.000 A 
BRANCH  13  16
ATOM     16  C   UNL     1       7.526   5.073  13.240  0.00  0.00    +0.000 C 
ATOM     17  O   UNL     1       7.215   4.469  12.228  0.00  0.00    +0.000 OA
BRANCH  16  18
ATOM     18  O   UNL     1       8.586   5.906  13.306  0.00  0.00    +0.000 OA
ATOM     19  H   UNL     1       8.464   6.772  12.880  0.00  0.00    +0.000 HD
ENDBRANCH  16  18
ENDBRANCH  13  16
ENDBRANCH   3  10
BRANCH   6  20
ATOM     20  C   UNL     1       1.868   8.368  19.110  0.00  0.00    +0.000 A 
ATOM     21  C   UNL     1       2.208   9.038  17.919  0.00  0.00    +0.000 A 
ATOM     22  C   UNL     1       1.764  10.338  17.654  0.00  0.00    +0.000 A 
ATOM     23  C   UNL     1       0.949  10.995  18.568  0.00  0.00    +0.000 A 
ATOM     24  C   UNL     1       0.577  10.352  19.744  0.00  0.00    +0.000 A 
ATOM     25  C   UNL     1       1.037   9.057  20.014  0.00  0.00    +0.000 A 
ENDBRANCH   6  20
BRANCH   1  27
ATOM     26  N   UNL     1       3.840   1.280  21.768  0.00  0.00    +0.000 NA
ATOM     27  C   UNL     1       3.920   2.114  20.965  0.00  0.00    +0.000 C 
ENDBRANCH   1  27
TORSDOF 5
ENDMDL
MODEL 7
REMARK VINA RESULT:      -7.2      0.963      1.628
REMARK  Name = 
REMARK  5 active torsions:
REMARK  status: ('A' for Active; 'I' for Inactive)
REMARK    1  A    between atoms: C_2  and  C_3
REMARK    2  A    between atoms: N_5  and  C_6
REMARK    3  A    between atoms: C_9  and  C_10
REMARK    4  A    between atoms: C_10  and  O_12
REMARK    5  A    between atoms: C_17  and  C_18
REMARK                            x       y       z     vdW  Elec       q    Type
REMARK                         _______ _______ _______ _____ _____    ______ ____
ROOT
ATOM      1  C   UNL     1       3.063   3.357  20.422  0.00  0.00    +0.000 A 
ATOM      2  C   UNL     1       3.821   3.098  19.302  0.00  0.00    +0.000 A 
ATOM      3  N   UNL     1       3.945   4.261  18.562  0.00  0.00    +0.000 N 
ATOM      4  C   UNL     1       3.183   5.255  19.183  0.00  0.00    +0.000 A 
ATOM      5  C   UNL     1       2.871   6.580  18.803  0.00  0.00    +0.000 A 
ATOM      6  C   UNL     1       2.040   7.388  19.609  0.00  0.00    +0.000 A 
ATOM      7  C   UNL     1       1.522   6.823  20.782  0.00  0.00    +0.000 A 
ATOM      8  C   UNL     1       1.808   5.507  21.162  0.00  0.00    +0.000 A 
ATOM      9  C   UNL     1       2.634   4.704  20.346  0.00  0.00    +0.000 A 
ENDROOT
BRANCH   3  10
ATOM     10  C   UNL     1       4.748   4.363  17.385  0.00  0.00    +0.000 A 
ATOM     11  C   UNL     1       6.040   4.903  17.476  0.00  0.00    +0.000 A 
ATOM     12  C   UNL     1       6.822   5.060  16.329  0.00  0.00    +0.000 A 
ATOM     13  C   UNL     1       6.317   4.697  15.076  0.00  0.00    +0.000 A 
ATOM     14  C   UNL     1       5.041   4.129  14.984  0.00  0.00    +0.000 A 
ATOM     15  C   UNL     1       4.256   3.974  16.134  0.00  0.00    +0.000 A 
BRANCH  13  16
ATOM     16  C   UNL     1       7.181   4.919  13.888  0.00  0.00    +0.000 C 
ATOM     17  O   UNL     1       6.963   4.399  12.808  0.00  0.00    +0.000 OA
BRANCH  16  18
ATOM     18  O   UNL     1       8.254   5.700  14.128  0.00  0.00    +0.000 OA
ATOM     19  H   UNL     1       9.097   5.229  14.249  0.00  0.00    +0.000 HD
ENDBRANCH  16  18
ENDBRANCH  13  16
ENDBRANCH   3  10
BRANCH   6  20
ATOM     20  C   UNL     1       1.740   8.790  19.220  0.00  0.00    +0.000 A 
ATOM     21  C   UNL     1       0.805   9.567  19.929  0.00  0.00    +0.000 A 
ATOM     22  C   UNL     1       0.482  10.870  19.534  0.00  0.00    +0.000 A 
ATOM     23  C   UNL     1       1.104  11.436  18.427  0.00  0.00    +0.000 A 
ATOM     24  C   UNL     1       2.049  10.700  17.718  0.00  0.00    +0.000 A 
ATOM     25  C   UNL     1       2.357   9.392  18.107  0.00  0.00    +0.000 A 
ENDBRANCH   6  20
BRANCH   1  27
ATOM     26  N   UNL     1       2.541   1.644  22.294  0.00  0.00    +0.000 NA
ATOM     27  C   UNL     1       2.775   2.409  21.452  0.00  0.00    +0.000 C 
ENDBRANCH   1  27
TORSDOF 5
ENDMDL
MODEL 8
REMARK VINA RESULT:      -6.9      4.496      7.966
REMARK  Name = 
REMARK  5 active torsions:
REMARK  status: ('A' for Active; 'I' for Inactive)
REMARK    1  A    between atoms: C_2  and  C_3
REMARK    2  A    between atoms: N_5  and  C_6
REMARK    3  A    between atoms: C_9  and  C_10
REMARK    4  A    between atoms: C_10  and  O_12
REMARK    5  A    between atoms: C_17  and  C_18
REMARK                            x       y       z     vdW  Elec       q    Type
REMARK                         _______ _______ _______ _____ _____    ______ ____
ROOT
ATOM      1  C   UNL     1      -1.072  11.557  22.364  0.00  0.00    +0.000 A 
ATOM      2  C   UNL     1      -0.316  12.571  21.821  0.00  0.00    +0.000 A 
ATOM      3  N   UNL     1       0.645  12.021  20.990  0.00  0.00    +0.000 N 
ATOM      4  C   UNL     1       0.545  10.629  21.071  0.00  0.00    +0.000 A 
ATOM      5  C   UNL     1       1.336   9.594  20.523  0.00  0.00    +0.000 A 
ATOM      6  C   UNL     1       1.035   8.239  20.782  0.00  0.00    +0.000 A 
ATOM      7  C   UNL     1      -0.057   7.962  21.615  0.00  0.00    +0.000 A 
ATOM      8  C   UNL     1      -0.837   8.977  22.180  0.00  0.00    +0.000 A 
ATOM      9  C   UNL     1      -0.524  10.329  21.920  0.00  0.00    +0.000 A 
ENDROOT
BRANCH   3  10
ATOM     10  C   UNL     1       1.538  12.803  20.195  0.00  0.00    +0.000 A 
ATOM     11  C   UNL     1       1.533  12.652  18.799  0.00  0.00    +0.000 A 
ATOM     12  C   UNL     1       2.436  13.368  18.009  0.00  0.00    +0.000 A 
ATOM     13  C   UNL     1       3.364  14.230  18.602  0.00  0.00    +0.000 A 
ATOM     14  C   UNL     1       3.351  14.408  19.990  0.00  0.00    +0.000 A 
ATOM     15  C   UNL     1       2.449  13.688  20.784  0.00  0.00    +0.000 A 
BRANCH  13  16
ATOM     16  C   UNL     1       4.320  14.939  17.714  0.00  0.00    +0.000 C 
ATOM     17  O   UNL     1       5.528  14.860  17.848  0.00  0.00    +0.000 OA
BRANCH  16  18
ATOM     18  O   UNL     1       3.730  15.719  16.784  0.00  0.00    +0.000 OA
ATOM     19  H   UNL     1       3.675  15.336  15.891  0.00  0.00    +0.000 HD
ENDBRANCH  16  18
ENDBRANCH  13  16
ENDBRANCH   3  10
BRANCH   6  20
ATOM     20  C   UNL     1       1.852   7.154  20.179  0.00  0.00    +0.000 A 
ATOM     21  C   UNL     1       1.938   5.880  20.773  0.00  0.00    +0.000 A 
ATOM     22  C   UNL     1       2.747   4.873  20.236  0.00  0.00    +0.000 A 
ATOM     23  C   UNL     1       3.476   5.109  19.076  0.00  0.00    +0.000 A 
ATOM     24  C   UNL     1       3.394   6.351  18.454  0.00  0.00    +0.000 A 
ATOM     25  C   UNL     1       2.597   7.362  19.003  0.00  0.00    +0.000 A 
ENDBRANCH   6  20
BRANCH   1  27
ATOM     26  N   UNL     1      -3.116  11.900  23.918  0.00  0.00    +0.000 NA
ATOM     27  C   UNL     1      -2.198  11.747  23.224  0.00  0.00    +0.000 C 
ENDBRANCH   1  27
TORSDOF 5
ENDMDL
MODEL 9
REMARK VINA RESULT:      -6.9      4.521      8.014
REMARK  Name = 
REMARK  5 active torsions:
REMARK  status: ('A' for Active; 'I' for Inactive)
REMARK    1  A    between atoms: C_2  and  C_3
REMARK    2  A    between atoms: N_5  and  C_6
REMARK    3  A    between atoms: C_9  and  C_10
REMARK    4  A    between atoms: C_10  and  O_12
REMARK    5  A    between atoms: C_17  and  C_18
REMARK                            x       y       z     vdW  Elec       q    Type
REMARK                         _______ _______ _______ _____ _____    ______ ____
ROOT
ATOM      1  C   UNL     1      -1.019  11.526  22.270  0.00  0.00    +0.000 A 
ATOM      2  C   UNL     1      -0.246  12.530  21.731  0.00  0.00    +0.000 A 
ATOM      3  N   UNL     1       0.718  11.967  20.912  0.00  0.00    +0.000 N 
ATOM      4  C   UNL     1       0.603  10.576  20.998  0.00  0.00    +0.000 A 
ATOM      5  C   UNL     1       1.387   9.530  20.462  0.00  0.00    +0.000 A 
ATOM      6  C   UNL     1       1.070   8.180  20.724  0.00  0.00    +0.000 A 
ATOM      7  C   UNL     1      -0.034   7.918  21.546  0.00  0.00    +0.000 A 
ATOM      8  C   UNL     1      -0.809   8.943  22.098  0.00  0.00    +0.000 A 
ATOM      9  C   UNL     1      -0.479  10.291  21.837  0.00  0.00    +0.000 A 
ENDROOT
BRANCH   3  10
ATOM     10  C   UNL     1       1.628  12.735  20.124  0.00  0.00    +0.000 A 
ATOM     11  C   UNL     1       2.553  13.577  20.760  0.00  0.00    +0.000 A 
ATOM     12  C   UNL     1       3.416  14.376  20.006  0.00  0.00    +0.000 A 
ATOM     13  C   UNL     1       3.355  14.357  18.608  0.00  0.00    +0.000 A 
ATOM     14  C   UNL     1       2.455  13.496  17.969  0.00  0.00    +0.000 A 
ATOM     15  C   UNL     1       1.587  12.697  18.724  0.00  0.00    +0.000 A 
BRANCH  13  16
ATOM     16  C   UNL     1       4.273  15.253  17.861  0.00  0.00    +0.000 C 
ATOM     17  O   UNL     1       5.435  14.965  17.634  0.00  0.00    +0.000 OA
BRANCH  16  18
ATOM     18  O   UNL     1       3.722  16.431  17.505  0.00  0.00    +0.000 OA
ATOM     19  H   UNL     1       3.296  16.929  18.225  0.00  0.00    +0.000 HD
ENDBRANCH  16  18
ENDBRANCH  13  16
ENDBRANCH   3  10
BRANCH   6  20
ATOM     20  C   UNL     1       1.881   7.083  20.134  0.00  0.00    +0.000 A 
ATOM     21  C   UNL     1       2.643   7.277  18.966  0.00  0.00    +0.000 A 
ATOM     22  C   UNL     1       3.367   6.233  18.380  0.00  0.00    +0.000 A 
ATOM     23  C   UNL     1       3.363   4.971  18.962  0.00  0.00    +0.000 A 
ATOM     24  C   UNL     1       2.637   4.754  20.129  0.00  0.00    +0.000 A 
ATOM     25  C   UNL     1       1.901   5.796  20.703  0.00  0.00    +0.000 A 
ENDBRANCH   6  20
BRANCH   1  27
ATOM     26  N   UNL     1      -3.073  11.904  23.801  0.00  0.00    +0.000 NA
ATOM     27  C   UNL     1      -2.152  11.732  23.117  0.00  0.00    +0.000 C 
ENDBRANCH   1  27
TORSDOF 5
ENDMDL
