MODEL 1
REMARK VINA RESULT:      -7.9      0.000      0.000
REMARK  Name = 
REMARK  6 active torsions:
REMARK  status: ('A' for Active; 'I' for Inactive)
REMARK    1  A    between atoms: N_2  and  C_4
REMARK    2  A    between atoms: C_7  and  S_8
REMARK    3  A    between atoms: S_8  and  C_9
REMARK    4  A    between atoms: C_12  and  O_13
REMARK    5  A    between atoms: N_14  and  C_15
REMARK    6  A    between atoms: C_18  and  C_19
REMARK                            x       y       z     vdW  Elec       q    Type
REMARK                         _______ _______ _______ _____ _____    ______ ____
ROOT
ATOM      1  C   UNL     1       4.083   4.132  19.632  0.00  0.00    +0.000 A 
ATOM      2  N   UNL     1       3.989   2.835  19.850  0.00  0.00    +0.000 NA
ATOM      3  N   UNL     1       2.672   2.531  20.052  0.00  0.00    +0.000 NA
ATOM      4  C   UNL     1       1.999   3.648  19.957  0.00  0.00    +0.000 A 
ATOM      5  N   UNL     1       2.829   4.729  19.688  0.00  0.00    +0.000 N 
ENDROOT
BRANCH   5   6
ATOM      6  C   UNL     1       2.410   6.078  19.475  0.00  0.00    +0.000 A 
ATOM      7  C   UNL     1       2.560   6.660  18.206  0.00  0.00    +0.000 A 
ATOM      8  C   UNL     1       2.192   7.990  17.978  0.00  0.00    +0.000 A 
ATOM      9  C   UNL     1       1.665   8.770  19.013  0.00  0.00    +0.000 A 
ATOM     10  C   UNL     1       1.513   8.189  20.279  0.00  0.00    +0.000 A 
ATOM     11  C   UNL     1       1.885   6.860  20.510  0.00  0.00    +0.000 A 
BRANCH   9  12
ATOM     12  C   UNL     1       1.275  10.210  18.791  0.00  0.00    +0.000 C 
ATOM     13  F   UNL     1       1.287  10.960  19.927  0.00  0.00    +0.000 F 
ATOM     14  F   UNL     1       2.105  10.843  17.917  0.00  0.00    +0.000 F 
ATOM     15  F   UNL     1       0.022  10.335  18.274  0.00  0.00    +0.000 F 
ENDBRANCH   9  12
ENDBRANCH   5   6
BRANCH   4  16
ATOM     16  O   UNL     1       0.676   3.667  19.985  0.00  0.00    +0.000 OA
ATOM     17  H   UNL     1       0.487   3.878  20.918  0.00  0.00    +0.000 HD
ENDBRANCH   4  16
BRANCH   1  18
ATOM     18  S   UNL     1       5.591   4.913  19.298  0.00  0.00    +0.000 S 
BRANCH  18  22
ATOM     19  C   UNL     1       6.323   4.609  15.257  0.00  0.00    +0.000 A 
ATOM     20  C   UNL     1       5.109   4.024  15.532  0.00  0.00    +0.000 A 
ATOM     21  N   UNL     1       4.730   4.064  16.869  0.00  0.00    +0.000 NA
ATOM     22  C   UNL     1       5.651   4.702  17.562  0.00  0.00    +0.000 A 
ATOM     23  S   UNL     1       7.025   5.232  16.670  0.00  0.00    +0.000 S 
BRANCH  19  25
ATOM     24  O   UNL     1       7.906   5.521  13.916  0.00  0.00    +0.000 OA
ATOM     25  N   UNL     1       6.972   4.711  13.988  0.00  0.00    +0.000 N 
ATOM     26  O   UNL     1       6.563   4.004  13.059  0.00  0.00    +0.000 OA
ENDBRANCH  19  25
ENDBRANCH  18  22
ENDBRANCH   1  18
TORSDOF 6
ENDMDL
MODEL 2
REMARK VINA RESULT:      -7.9      0.094      1.242
REMARK  Name = 
REMARK  6 active torsions:
REMARK  status: ('A' for Active; 'I' for Inactive)
REMARK    1  A    between atoms: N_2  and  C_4
REMARK    2  A    between atoms: C_7  and  S_8
REMARK    3  A    between atoms: S_8  and  C_9
REMARK    4  A    between atoms: C_12  and  O_13
REMARK    5  A    between atoms: N_14  and  C_15
REMARK    6  A    between atoms: C_18  and  C_19
REMARK                            x       y       z     vdW  Elec       q    Type
REMARK                         _______ _______ _______ _____ _____    ______ ____
ROOT
ATOM      1  C   UNL     1       4.092   4.145  19.637  0.00  0.00    +0.000 A 
ATOM      2  N   UNL     1       3.962   2.854  19.871  0.00  0.00    +0.000 NA
ATOM      3  N   UNL     1       2.634   2.587  20.057  0.00  0.00    +0.000 NA
ATOM      4  C   UNL     1       1.992   3.720  19.938  0.00  0.00    +0.000 A 
ATOM      5  N   UNL     1       2.854   4.776  19.668  0.00  0.00    +0.000 N 
ENDROOT
BRANCH   5   6
ATOM      6  C   UNL     1       2.474   6.132  19.431  0.00  0.00    +0.000 A 
ATOM      7  C   UNL     1       1.956   6.902  20.484  0.00  0.00    +0.000 A 
ATOM      8  C   UNL     1       1.543   8.221  20.274  0.00  0.00    +0.000 A 
ATOM      9  C   UNL     1       1.637   8.803  19.004  0.00  0.00    +0.000 A 
ATOM     10  C   UNL     1       2.155   8.035  17.953  0.00  0.00    +0.000 A 
ATOM     11  C   UNL     1       2.565   6.713  18.161  0.00  0.00    +0.000 A 
BRANCH   9  12
ATOM     12  C   UNL     1       1.183  10.219  18.753  0.00  0.00    +0.000 C 
ATOM     13  F   UNL     1       0.001  10.302  18.083  0.00  0.00    +0.000 F 
ATOM     14  F   UNL     1       1.008  10.920  19.906  0.00  0.00    +0.000 F 
ATOM     15  F   UNL     1       2.081  10.928  18.016  0.00  0.00    +0.000 F 
ENDBRANCH   9  12
ENDBRANCH   5   6
BRANCH   4  16
ATOM     16  O   UNL     1       0.670   3.775  19.948  0.00  0.00    +0.000 OA
ATOM     17  H   UNL     1       0.423   2.885  20.259  0.00  0.00    +0.000 HD
ENDBRANCH   4  16
BRANCH   1  18
ATOM     18  S   UNL     1       5.625   4.881  19.315  0.00  0.00    +0.000 S 
BRANCH  18  22
ATOM     19  C   UNL     1       6.345   4.630  15.269  0.00  0.00    +0.000 A 
ATOM     20  C   UNL     1       5.135   4.037  15.540  0.00  0.00    +0.000 A 
ATOM     21  N   UNL     1       4.761   4.058  16.879  0.00  0.00    +0.000 NA
ATOM     22  C   UNL     1       5.681   4.693  17.577  0.00  0.00    +0.000 A 
ATOM     23  S   UNL     1       7.050   5.240  16.686  0.00  0.00    +0.000 S 
BRANCH  19  25
ATOM     24  O   UNL     1       7.899   5.590  13.925  0.00  0.00    +0.000 OA
ATOM     25  N   UNL     1       6.991   4.752  13.999  0.00  0.00    +0.000 N 
ATOM     26  O   UNL     1       6.602   4.031  13.071  0.00  0.00    +0.000 OA
ENDBRANCH  19  25
ENDBRANCH  18  22
ENDBRANCH   1  18
TORSDOF 6
ENDMDL
MODEL 3
REMARK VINA RESULT:      -7.8      0.235      1.364
REMARK  Name = 
REMARK  6 active torsions:
REMARK  status: ('A' for Active; 'I' for Inactive)
REMARK    1  A    between atoms: N_2  and  C_4
REMARK    2  A    between atoms: C_7  and  S_8
REMARK    3  A    between atoms: S_8  and  C_9
REMARK    4  A    between atoms: C_12  and  O_13
REMARK    5  A    between atoms: N_14  and  C_15
REMARK    6  A    between atoms: C_18  and  C_19
REMARK                            x       y       z     vdW  Elec       q    Type
REMARK                         _______ _______ _______ _____ _____    ______ ____
ROOT
ATOM      1  C   UNL     1       4.262   4.242  19.584  0.00  0.00    +0.000 A 
ATOM      2  N   UNL     1       4.172   2.950  19.828  0.00  0.00    +0.000 NA
ATOM      3  N   UNL     1       2.855   2.644  20.027  0.00  0.00    +0.000 NA
ATOM      4  C   UNL     1       2.178   3.757  19.905  0.00  0.00    +0.000 A 
ATOM      5  N   UNL     1       3.006   4.835  19.619  0.00  0.00    +0.000 N 
ENDROOT
BRANCH   5   6
ATOM      6  C   UNL     1       2.583   6.178  19.376  0.00  0.00    +0.000 A 
ATOM      7  C   UNL     1       2.021   6.929  20.420  0.00  0.00    +0.000 A 
ATOM      8  C   UNL     1       1.565   8.233  20.201  0.00  0.00    +0.000 A 
ATOM      9  C   UNL     1       1.662   8.818  18.934  0.00  0.00    +0.000 A 
ATOM     10  C   UNL     1       2.224   8.069  17.891  0.00  0.00    +0.000 A 
ATOM     11  C   UNL     1       2.676   6.762  18.107  0.00  0.00    +0.000 A 
BRANCH   9  12
ATOM     12  C   UNL     1       1.163  10.218  18.674  0.00  0.00    +0.000 C 
ATOM     13  F   UNL     1       2.046  10.993  17.987  0.00  0.00    +0.000 F 
ATOM     14  F   UNL     1       0.011  10.231  17.948  0.00  0.00    +0.000 F 
ATOM     15  F   UNL     1       0.889  10.892  19.824  0.00  0.00    +0.000 F 
ENDBRANCH   9  12
ENDBRANCH   5   6
BRANCH   4  16
ATOM     16  O   UNL     1       0.855   3.771  19.924  0.00  0.00    +0.000 OA
ATOM     17  H   UNL     1       0.648   3.195  20.682  0.00  0.00    +0.000 HD
ENDBRANCH   4  16
BRANCH   1  18
ATOM     18  S   UNL     1       5.769   5.021  19.243  0.00  0.00    +0.000 S 
BRANCH  18  22
ATOM     19  C   UNL     1       6.515   4.688  15.208  0.00  0.00    +0.000 A 
ATOM     20  C   UNL     1       5.433   3.901  15.524  0.00  0.00    +0.000 A 
ATOM     21  N   UNL     1       5.063   3.927  16.864  0.00  0.00    +0.000 NA
ATOM     22  C   UNL     1       5.855   4.753  17.517  0.00  0.00    +0.000 A 
ATOM     23  S   UNL     1       7.101   5.489  16.583  0.00  0.00    +0.000 S 
BRANCH  19  25
ATOM     24  O   UNL     1       6.665   4.165  13.007  0.00  0.00    +0.000 OA
ATOM     25  N   UNL     1       7.125   4.855  13.926  0.00  0.00    +0.000 N 
ATOM     26  O   UNL     1       8.062   5.657  13.821  0.00  0.00    +0.000 OA
ENDBRANCH  19  25
ENDBRANCH  18  22
ENDBRANCH   1  18
TORSDOF 6
ENDMDL
MODEL 4
REMARK VINA RESULT:      -7.8      4.508      7.508
REMARK  Name = 
REMARK  6 active torsions:
REMARK  status: ('A' for Active; 'I' for Inactive)
REMARK    1  A    between atoms: N_2  and  C_4
REMARK    2  A    between atoms: C_7  and  S_8
REMARK    3  A    between atoms: S_8  and  C_9
REMARK    4  A    between atoms: C_12  and  O_13
REMARK    5  A    between atoms: N_14  and  C_15
REMARK    6  A    between atoms: C_18  and  C_19
REMARK                            x       y       z     vdW  Elec       q    Type
REMARK                         _______ _______ _______ _____ _____    ______ ____
ROOT
ATOM      1  C   UNL     1       5.800   5.775  18.329  0.00  0.00    +0.000 A 
ATOM      2  N   UNL     1       6.367   5.864  19.516  0.00  0.00    +0.000 NA
ATOM      3  N   UNL     1       7.524   5.135  19.492  0.00  0.00    +0.000 NA
ATOM      4  C   UNL     1       7.629   4.619  18.295  0.00  0.00    +0.000 A 
ATOM      5  N   UNL     1       6.563   4.979  17.481  0.00  0.00    +0.000 N 
ENDROOT
BRANCH   5   6
ATOM      6  C   UNL     1       6.397   4.628  16.107  0.00  0.00    +0.000 A 
ATOM      7  C   UNL     1       5.371   3.746  15.734  0.00  0.00    +0.000 A 
ATOM      8  C   UNL     1       5.208   3.356  14.401  0.00  0.00    +0.000 A 
ATOM      9  C   UNL     1       6.068   3.839  13.408  0.00  0.00    +0.000 A 
ATOM     10  C   UNL     1       7.092   4.720  13.780  0.00  0.00    +0.000 A 
ATOM     11  C   UNL     1       7.259   5.108  15.114  0.00  0.00    +0.000 A 
BRANCH   9  12
ATOM     12  C   UNL     1       5.919   3.419  11.967  0.00  0.00    +0.000 C 
ATOM     13  F   UNL     1       4.734   3.792  11.410  0.00  0.00    +0.000 F 
ATOM     14  F   UNL     1       6.889   3.947  11.170  0.00  0.00    +0.000 F 
ATOM     15  F   UNL     1       5.999   2.069  11.809  0.00  0.00    +0.000 F 
ENDBRANCH   9  12
ENDBRANCH   5   6
BRANCH   4  16
ATOM     16  O   UNL     1       8.709   3.955  17.918  0.00  0.00    +0.000 OA
ATOM     17  H   UNL     1       8.459   3.626  17.035  0.00  0.00    +0.000 HD
ENDBRANCH   4  16
BRANCH   1  18
ATOM     18  S   UNL     1       4.324   6.590  17.939  0.00  0.00    +0.000 S 
BRANCH  18  22
ATOM     19  C   UNL     1       2.001   3.935  20.061  0.00  0.00    +0.000 A 
ATOM     20  C   UNL     1       1.738   5.208  20.510  0.00  0.00    +0.000 A 
ATOM     21  N   UNL     1       2.454   6.212  19.868  0.00  0.00    +0.000 NA
ATOM     22  C   UNL     1       3.213   5.676  18.934  0.00  0.00    +0.000 A 
ATOM     23  S   UNL     1       3.151   3.959  18.815  0.00  0.00    +0.000 S 
BRANCH  19  25
ATOM     24  O   UNL     1       1.191   2.650  21.745  0.00  0.00    +0.000 OA
ATOM     25  N   UNL     1       1.431   2.711  20.532  0.00  0.00    +0.000 N 
ATOM     26  O   UNL     1       1.225   1.806  19.714  0.00  0.00    +0.000 OA
ENDBRANCH  19  25
ENDBRANCH  18  22
ENDBRANCH   1  18
TORSDOF 6
ENDMDL
MODEL 5
REMARK VINA RESULT:      -7.8      4.473      7.510
REMARK  Name = 
REMARK  6 active torsions:
REMARK  status: ('A' for Active; 'I' for Inactive)
REMARK    1  A    between atoms: N_2  and  C_4
REMARK    2  A    between atoms: C_7  and  S_8
REMARK    3  A    between atoms: S_8  and  C_9
REMARK    4  A    between atoms: C_12  and  O_13
REMARK    5  A    between atoms: N_14  and  C_15
REMARK    6  A    between atoms: C_18  and  C_19
REMARK                            x       y       z     vdW  Elec       q    Type
REMARK                         _______ _______ _______ _____ _____    ______ ____
ROOT
ATOM      1  C   UNL     1       5.822   5.760  18.339  0.00  0.00    +0.000 A 
ATOM      2  N   UNL     1       6.408   5.902  19.512  0.00  0.00    +0.000 NA
ATOM      3  N   UNL     1       7.573   5.187  19.497  0.00  0.00    +0.000 NA
ATOM      4  C   UNL     1       7.665   4.624  18.320  0.00  0.00    +0.000 A 
ATOM      5  N   UNL     1       6.580   4.940  17.511  0.00  0.00    +0.000 N 
ENDROOT
BRANCH   5   6
ATOM      6  C   UNL     1       6.396   4.531  16.155  0.00  0.00    +0.000 A 
ATOM      7  C   UNL     1       7.243   5.038  15.156  0.00  0.00    +0.000 A 
ATOM      8  C   UNL     1       7.063   4.683  13.815  0.00  0.00    +0.000 A 
ATOM      9  C   UNL     1       6.033   3.814  13.440  0.00  0.00    +0.000 A 
ATOM     10  C   UNL     1       5.188   3.307  14.437  0.00  0.00    +0.000 A 
ATOM     11  C   UNL     1       5.364   3.665  15.779  0.00  0.00    +0.000 A 
BRANCH   9  12
ATOM     12  C   UNL     1       5.813   3.431  11.998  0.00  0.00    +0.000 C 
ATOM     13  F   UNL     1       5.958   2.099  11.759  0.00  0.00    +0.000 F 
ATOM     14  F   UNL     1       4.566   3.756  11.559  0.00  0.00    +0.000 F 
ATOM     15  F   UNL     1       6.681   4.058  11.157  0.00  0.00    +0.000 F 
ENDBRANCH   9  12
ENDBRANCH   5   6
BRANCH   4  16
ATOM     16  O   UNL     1       8.747   3.959  17.951  0.00  0.00    +0.000 OA
ATOM     17  H   UNL     1       8.864   4.241  17.025  0.00  0.00    +0.000 HD
ENDBRANCH   4  16
BRANCH   1  18
ATOM     18  S   UNL     1       4.330   6.541  17.943  0.00  0.00    +0.000 S 
BRANCH  18  22
ATOM     19  C   UNL     1       2.103   3.987  20.282  0.00  0.00    +0.000 A 
ATOM     20  C   UNL     1       1.790   5.282  20.620  0.00  0.00    +0.000 A 
ATOM     21  N   UNL     1       2.468   6.255  19.896  0.00  0.00    +0.000 NA
ATOM     22  C   UNL     1       3.252   5.671  19.011  0.00  0.00    +0.000 A 
ATOM     23  S   UNL     1       3.257   3.950  19.040  0.00  0.00    +0.000 S 
BRANCH  19  25
ATOM     24  O   UNL     1       1.504   2.757  22.091  0.00  0.00    +0.000 OA
ATOM     25  N   UNL     1       1.580   2.786  20.855  0.00  0.00    +0.000 N 
ATOM     26  O   UNL     1       1.250   1.867  20.095  0.00  0.00    +0.000 OA
ENDBRANCH  19  25
ENDBRANCH  18  22
ENDBRANCH   1  18
TORSDOF 6
ENDMDL
MODEL 6
REMARK VINA RESULT:      -7.7      4.516      7.558
REMARK  Name = 
REMARK  6 active torsions:
REMARK  status: ('A' for Active; 'I' for Inactive)
REMARK    1  A    between atoms: N_2  and  C_4
REMARK    2  A    between atoms: C_7  and  S_8
REMARK    3  A    between atoms: S_8  and  C_9
REMARK    4  A    between atoms: C_12  and  O_13
REMARK    5  A    between atoms: N_14  and  C_15
REMARK    6  A    between atoms: C_18  and  C_19
REMARK                            x       y       z     vdW  Elec       q    Type
REMARK                         _______ _______ _______ _____ _____    ______ ____
ROOT
ATOM      1  C   UNL     1       5.839   5.846  18.269  0.00  0.00    +0.000 A 
ATOM      2  N   UNL     1       6.397   5.958  19.458  0.00  0.00    +0.000 NA
ATOM      3  N   UNL     1       7.540   5.208  19.466  0.00  0.00    +0.000 NA
ATOM      4  C   UNL     1       7.646   4.654  18.285  0.00  0.00    +0.000 A 
ATOM      5  N   UNL     1       6.593   5.011  17.452  0.00  0.00    +0.000 N 
ENDROOT
BRANCH   5   6
ATOM      6  C   UNL     1       6.432   4.623  16.087  0.00  0.00    +0.000 A 
ATOM      7  C   UNL     1       5.506   3.623  15.753  0.00  0.00    +0.000 A 
ATOM      8  C   UNL     1       5.353   3.197  14.430  0.00  0.00    +0.000 A 
ATOM      9  C   UNL     1       6.124   3.761  13.408  0.00  0.00    +0.000 A 
ATOM     10  C   UNL     1       7.049   4.761  13.740  0.00  0.00    +0.000 A 
ATOM     11  C   UNL     1       7.206   5.184  15.064  0.00  0.00    +0.000 A 
BRANCH   9  12
ATOM     12  C   UNL     1       5.986   3.306  11.976  0.00  0.00    +0.000 C 
ATOM     13  F   UNL     1       7.064   3.607  11.201  0.00  0.00    +0.000 F 
ATOM     14  F   UNL     1       5.817   1.959  11.874  0.00  0.00    +0.000 F 
ATOM     15  F   UNL     1       4.911   3.866  11.356  0.00  0.00    +0.000 F 
ENDBRANCH   9  12
ENDBRANCH   5   6
BRANCH   4  16
ATOM     16  O   UNL     1       8.716   3.960  17.937  0.00  0.00    +0.000 OA
ATOM     17  H   UNL     1       8.586   3.117  18.410  0.00  0.00    +0.000 HD
ENDBRANCH   4  16
BRANCH   1  18
ATOM     18  S   UNL     1       4.382   6.676  17.843  0.00  0.00    +0.000 S 
BRANCH  18  22
ATOM     19  C   UNL     1       1.853   4.129  19.861  0.00  0.00    +0.000 A 
ATOM     20  C   UNL     1       1.920   5.320  20.545  0.00  0.00    +0.000 A 
ATOM     21  N   UNL     1       2.739   6.282  19.965  0.00  0.00    +0.000 NA
ATOM     22  C   UNL     1       3.244   5.805  18.845  0.00  0.00    +0.000 A 
ATOM     23  S   UNL     1       2.813   4.182  18.463  0.00  0.00    +0.000 S 
BRANCH  19  25
ATOM     24  O   UNL     1       0.499   2.401  19.294  0.00  0.00    +0.000 OA
ATOM     25  N   UNL     1       1.108   2.962  20.215  0.00  0.00    +0.000 N 
ATOM     26  O   UNL     1       1.113   2.598  21.397  0.00  0.00    +0.000 OA
ENDBRANCH  19  25
ENDBRANCH  18  22
ENDBRANCH   1  18
TORSDOF 6
ENDMDL
MODEL 7
REMARK VINA RESULT:      -7.6      0.818      1.257
REMARK  Name = 
REMARK  6 active torsions:
REMARK  status: ('A' for Active; 'I' for Inactive)
REMARK    1  A    between atoms: N_2  and  C_4
REMARK    2  A    between atoms: C_7  and  S_8
REMARK    3  A    between atoms: S_8  and  C_9
REMARK    4  A    between atoms: C_12  and  O_13
REMARK    5  A    between atoms: N_14  and  C_15
REMARK    6  A    between atoms: C_18  and  C_19
REMARK                            x       y       z     vdW  Elec       q    Type
REMARK                         _______ _______ _______ _____ _____    ______ ____
ROOT
ATOM      1  C   UNL     1       4.292   4.351  19.266  0.00  0.00    +0.000 A 
ATOM      2  N   UNL     1       4.275   3.033  19.215  0.00  0.00    +0.000 NA
ATOM      3  N   UNL     1       2.974   2.620  19.299  0.00  0.00    +0.000 NA
ATOM      4  C   UNL     1       2.234   3.694  19.403  0.00  0.00    +0.000 A 
ATOM      5  N   UNL     1       3.001   4.852  19.390  0.00  0.00    +0.000 N 
ENDROOT
BRANCH   5   6
ATOM      6  C   UNL     1       2.504   6.190  19.436  0.00  0.00    +0.000 A 
ATOM      7  C   UNL     1       1.966   6.691  20.631  0.00  0.00    +0.000 A 
ATOM      8  C   UNL     1       1.439   7.985  20.695  0.00  0.00    +0.000 A 
ATOM      9  C   UNL     1       1.437   8.809  19.565  0.00  0.00    +0.000 A 
ATOM     10  C   UNL     1       1.975   8.310  18.371  0.00  0.00    +0.000 A 
ATOM     11  C   UNL     1       2.498   7.014  18.304  0.00  0.00    +0.000 A 
BRANCH   9  12
ATOM     12  C   UNL     1       0.860  10.202  19.609  0.00  0.00    +0.000 C 
ATOM     13  F   UNL     1       0.967  10.800  20.827  0.00  0.00    +0.000 F 
ATOM     14  F   UNL     1       1.466  11.043  18.726  0.00  0.00    +0.000 F 
ATOM     15  F   UNL     1      -0.465  10.225  19.296  0.00  0.00    +0.000 F 
ENDBRANCH   9  12
ENDBRANCH   5   6
BRANCH   4  16
ATOM     16  O   UNL     1       0.913   3.632  19.382  0.00  0.00    +0.000 OA
ATOM     17  H   UNL     1       0.740   3.068  18.606  0.00  0.00    +0.000 HD
ENDBRANCH   4  16
BRANCH   1  18
ATOM     18  S   UNL     1       5.756   5.267  19.156  0.00  0.00    +0.000 S 
BRANCH  18  22
ATOM     19  C   UNL     1       6.509   5.165  15.110  0.00  0.00    +0.000 A 
ATOM     20  C   UNL     1       5.365   5.895  15.328  0.00  0.00    +0.000 A 
ATOM     21  N   UNL     1       4.996   6.019  16.663  0.00  0.00    +0.000 NA
ATOM     22  C   UNL     1       5.886   5.405  17.417  0.00  0.00    +0.000 A 
ATOM     23  S   UNL     1       7.162   4.614  16.575  0.00  0.00    +0.000 S 
BRANCH  19  25
ATOM     24  O   UNL     1       8.145   5.502  13.577  0.00  0.00    +0.000 OA
ATOM     25  N   UNL     1       7.122   4.862  13.855  0.00  0.00    +0.000 N 
ATOM     26  O   UNL     1       6.597   4.003  13.136  0.00  0.00    +0.000 OA
ENDBRANCH  19  25
ENDBRANCH  18  22
ENDBRANCH   1  18
TORSDOF 6
ENDMDL
MODEL 8
REMARK VINA RESULT:      -7.6      4.052      5.209
REMARK  Name = 
REMARK  6 active torsions:
REMARK  status: ('A' for Active; 'I' for Inactive)
REMARK    1  A    between atoms: N_2  and  C_4
REMARK    2  A    between atoms: C_7  and  S_8
REMARK    3  A    between atoms: S_8  and  C_9
REMARK    4  A    between atoms: C_12  and  O_13
REMARK    5  A    between atoms: N_14  and  C_15
REMARK    6  A    between atoms: C_18  and  C_19
REMARK                            x       y       z     vdW  Elec       q    Type
REMARK                         _______ _______ _______ _____ _____    ______ ____
ROOT
ATOM      1  C   UNL     1       6.322   6.294  17.408  0.00  0.00    +0.000 A 
ATOM      2  N   UNL     1       7.547   6.778  17.330  0.00  0.00    +0.000 NA
ATOM      3  N   UNL     1       8.199   6.477  18.493  0.00  0.00    +0.000 NA
ATOM      4  C   UNL     1       7.356   5.825  19.251  0.00  0.00    +0.000 A 
ATOM      5  N   UNL     1       6.123   5.663  18.630  0.00  0.00    +0.000 N 
ENDROOT
BRANCH   5   6
ATOM      6  C   UNL     1       5.001   4.955  19.161  0.00  0.00    +0.000 A 
ATOM      7  C   UNL     1       4.998   3.552  19.151  0.00  0.00    +0.000 A 
ATOM      8  C   UNL     1       3.898   2.833  19.631  0.00  0.00    +0.000 A 
ATOM      9  C   UNL     1       2.775   3.501  20.132  0.00  0.00    +0.000 A 
ATOM     10  C   UNL     1       2.779   4.902  20.143  0.00  0.00    +0.000 A 
ATOM     11  C   UNL     1       3.877   5.623  19.659  0.00  0.00    +0.000 A 
BRANCH   9  12
ATOM     12  C   UNL     1       1.573   2.745  20.641  0.00  0.00    +0.000 C 
ATOM     13  F   UNL     1       1.701   2.318  21.927  0.00  0.00    +0.000 F 
ATOM     14  F   UNL     1       0.437   3.495  20.607  0.00  0.00    +0.000 F 
ATOM     15  F   UNL     1       1.309   1.633  19.901  0.00  0.00    +0.000 F 
ENDBRANCH   9  12
ENDBRANCH   5   6
BRANCH   4  16
ATOM     16  O   UNL     1       7.727   5.288  20.402  0.00  0.00    +0.000 OA
ATOM     17  H   UNL     1       8.625   4.965  20.206  0.00  0.00    +0.000 HD
ENDBRANCH   4  16
BRANCH   1  18
ATOM     18  S   UNL     1       5.182   6.438  16.115  0.00  0.00    +0.000 S 
BRANCH  18  22
ATOM     19  C   UNL     1       6.458   3.905  13.130  0.00  0.00    +0.000 A 
ATOM     20  C   UNL     1       7.532   4.636  13.579  0.00  0.00    +0.000 A 
ATOM     21  N   UNL     1       7.243   5.533  14.601  0.00  0.00    +0.000 NA
ATOM     22  C   UNL     1       5.967   5.433  14.918  0.00  0.00    +0.000 A 
ATOM     23  S   UNL     1       5.050   4.316  13.982  0.00  0.00    +0.000 S 
BRANCH  19  25
ATOM     24  O   UNL     1       5.343   2.431  11.816  0.00  0.00    +0.000 OA
ATOM     25  N   UNL     1       6.446   2.923  12.092  0.00  0.00    +0.000 N 
ATOM     26  O   UNL     1       7.518   2.627  11.550  0.00  0.00    +0.000 OA
ENDBRANCH  19  25
ENDBRANCH  18  22
ENDBRANCH   1  18
TORSDOF 6
ENDMDL
MODEL 9
REMARK VINA RESULT:      -7.6      0.731      1.207
REMARK  Name = 
REMARK  6 active torsions:
REMARK  status: ('A' for Active; 'I' for Inactive)
REMARK    1  A    between atoms: N_2  and  C_4
REMARK    2  A    between atoms: C_7  and  S_8
REMARK    3  A    between atoms: S_8  and  C_9
REMARK    4  A    between atoms: C_12  and  O_13
REMARK    5  A    between atoms: N_14  and  C_15
REMARK    6  A    between atoms: C_18  and  C_19
REMARK                            x       y       z     vdW  Elec       q    Type
REMARK                         _______ _______ _______ _____ _____    ______ ____
ROOT
ATOM      1  C   UNL     1       4.287   4.318  19.297  0.00  0.00    +0.000 A 
ATOM      2  N   UNL     1       4.281   3.000  19.305  0.00  0.00    +0.000 NA
ATOM      3  N   UNL     1       2.981   2.579  19.338  0.00  0.00    +0.000 NA
ATOM      4  C   UNL     1       2.229   3.650  19.354  0.00  0.00    +0.000 A 
ATOM      5  N   UNL     1       2.989   4.813  19.330  0.00  0.00    +0.000 N 
ENDROOT
BRANCH   5   6
ATOM      6  C   UNL     1       2.481   6.148  19.288  0.00  0.00    +0.000 A 
ATOM      7  C   UNL     1       2.442   6.838  18.067  0.00  0.00    +0.000 A 
ATOM      8  C   UNL     1       1.983   8.158  18.003  0.00  0.00    +0.000 A 
ATOM      9  C   UNL     1       1.553   8.819  19.159  0.00  0.00    +0.000 A 
ATOM     10  C   UNL     1       1.591   8.129  20.378  0.00  0.00    +0.000 A 
ATOM     11  C   UNL     1       2.054   6.810  20.445  0.00  0.00    +0.000 A 
BRANCH   9  12
ATOM     12  C   UNL     1       1.068  10.247  19.114  0.00  0.00    +0.000 C 
ATOM     13  F   UNL     1       1.879  11.076  18.400  0.00  0.00    +0.000 F 
ATOM     14  F   UNL     1      -0.167  10.358  18.553  0.00  0.00    +0.000 F 
ATOM     15  F   UNL     1       0.967  10.799  20.354  0.00  0.00    +0.000 F 
ENDBRANCH   9  12
ENDBRANCH   5   6
BRANCH   4  16
ATOM     16  O   UNL     1       0.912   3.576  19.265  0.00  0.00    +0.000 OA
ATOM     17  H   UNL     1       0.783   3.054  18.452  0.00  0.00    +0.000 HD
ENDBRANCH   4  16
BRANCH   1  18
ATOM     18  S   UNL     1       5.749   5.241  19.223  0.00  0.00    +0.000 S 
BRANCH  18  22
ATOM     19  C   UNL     1       6.498   5.176  15.175  0.00  0.00    +0.000 A 
ATOM     20  C   UNL     1       5.443   6.024  15.416  0.00  0.00    +0.000 A 
ATOM     21  N   UNL     1       5.086   6.148  16.754  0.00  0.00    +0.000 NA
ATOM     22  C   UNL     1       5.899   5.416  17.490  0.00  0.00    +0.000 A 
ATOM     23  S   UNL     1       7.081   4.511  16.623  0.00  0.00    +0.000 S 
BRANCH  19  25
ATOM     24  O   UNL     1       6.604   3.856  13.335  0.00  0.00    +0.000 OA
ATOM     25  N   UNL     1       7.078   4.844  13.912  0.00  0.00    +0.000 N 
ATOM     26  O   UNL     1       8.003   5.547  13.486  0.00  0.00    +0.000 OA
ENDBRANCH  19  25
ENDBRANCH  18  22
ENDBRANCH   1  18
TORSDOF 6
ENDMDL
