MODEL 1
REMARK VINA RESULT:      -8.5      0.000      0.000
REMARK  Name = 
REMARK  12 active torsions:
REMARK  status: ('A' for Active; 'I' for Inactive)
REMARK    1  A    between atoms: C_1  and  C_2
REMARK    2  A    between atoms: C_2  and  O_3
REMARK    3  A    between atoms: O_3  and  C_4
REMARK    4  A    between atoms: C_7  and  C_8
REMARK    5  A    between atoms: N_10  and  C_11
REMARK    6  A    between atoms: C_11  and  C_12
REMARK    7  A    between atoms: N_14  and  C_15
REMARK    8  A    between atoms: C_15  and  C_16
REMARK    9  A    between atoms: C_16  and  C_17
REMARK   10  A    between atoms: C_16  and  N_25
REMARK   11  A    between atoms: C_20  and  O_21
REMARK   12  A    between atoms: O_21  and  C_22
REMARK                            x       y       z     vdW  Elec       q    Type
REMARK                         _______ _______ _______ _____ _____    ______ ____
ROOT
ATOM      1  C   UNL     1       6.976   6.271  18.559  0.00  0.00    +0.000 C 
ATOM      2  O   UNL     1       7.626   5.912  19.540  0.00  0.00    +0.000 OA
ATOM      3  N   UNL     1       5.635   6.000  18.392  0.00  0.00    +0.000 N 
ATOM      4  H   UNL     1       5.272   6.028  17.440  0.00  0.00    +0.000 HD
ENDROOT
BRANCH   1   5
ATOM      5  C   UNL     1       7.628   6.950  17.363  0.00  0.00    +0.000 C 
BRANCH   5   8
ATOM      6  C   UNL     1       7.328   5.047  15.840  0.00  0.00    +0.000 C 
ATOM      7  O   UNL     1       7.957   4.313  16.600  0.00  0.00    +0.000 OA
ATOM      8  N   UNL     1       7.087   6.371  16.150  0.00  0.00    +0.000 N 
ATOM      9  H   UNL     1       6.799   7.023  15.439  0.00  0.00    +0.000 HD
BRANCH   6  13
ATOM     10  C   UNL     1       5.670   3.566  12.149  0.00  0.00    +0.000 A 
ATOM     11  C   UNL     1       4.975   3.455  13.351  0.00  0.00    +0.000 A 
ATOM     12  C   UNL     1       5.533   3.936  14.539  0.00  0.00    +0.000 A 
ATOM     13  C   UNL     1       6.802   4.529  14.539  0.00  0.00    +0.000 A 
ATOM     14  C   UNL     1       7.510   4.610  13.333  0.00  0.00    +0.000 A 
ATOM     15  C   UNL     1       6.949   4.119  12.146  0.00  0.00    +0.000 A 
BRANCH  10  16
ATOM     16  O   UNL     1       5.012   3.096  11.048  0.00  0.00    +0.000 OA
BRANCH  16  18
ATOM     17  C   UNL     1       3.170   4.015   9.853  0.00  0.00    +0.000 C 
ATOM     18  C   UNL     1       3.588   3.211  11.069  0.00  0.00    +0.000 C 
ENDBRANCH  16  18
ENDBRANCH  10  16
ENDBRANCH   6  13
ENDBRANCH   5   8
ENDBRANCH   1   5
BRANCH   3  19
ATOM     19  C   UNL     1       4.863   5.331  19.428  0.00  0.00    +0.000 C 
BRANCH  19  20
ATOM     20  C   UNL     1       3.328   5.267  19.126  0.00  0.00    +0.000 C 
BRANCH  20  21
ATOM     21  C   UNL     1       2.659   6.654  19.098  0.00  0.00    +0.000 A 
ATOM     22  C   UNL     1       2.665   7.471  17.959  0.00  0.00    +0.000 A 
ATOM     23  C   UNL     1       2.048   8.724  17.969  0.00  0.00    +0.000 A 
ATOM     24  C   UNL     1       1.394   9.181  19.108  0.00  0.00    +0.000 A 
ATOM     25  C   UNL     1       1.385   8.390  20.257  0.00  0.00    +0.000 A 
ATOM     26  C   UNL     1       2.007   7.133  20.248  0.00  0.00    +0.000 A 
BRANCH  24  27
ATOM     27  O   UNL     1       0.844  10.429  19.005  0.00  0.00    +0.000 OA
ATOM     28  C   UNL     1       0.981  11.249  20.160  0.00  0.00    +0.000 C 
ENDBRANCH  24  27
ENDBRANCH  20  21
BRANCH  20  29
ATOM     29  N   UNL     1       2.917   4.450  17.959  0.00  0.00    +0.000 NA
ATOM     30  C   UNL     1       1.499   4.078  17.951  0.00  0.00    +0.000 C 
ATOM     31  C   UNL     1       1.442   2.638  18.427  0.00  0.00    +0.000 C 
ATOM     32  C   UNL     1       2.760   2.043  17.976  0.00  0.00    +0.000 C 
ATOM     33  C   UNL     1       3.682   3.227  17.719  0.00  0.00    +0.000 C 
ENDBRANCH  20  29
ENDBRANCH  19  20
ENDBRANCH   3  19
TORSDOF 10
ENDMDL
MODEL 2
REMARK VINA RESULT:      -8.0      3.543      6.647
REMARK  Name = 
REMARK  12 active torsions:
REMARK  status: ('A' for Active; 'I' for Inactive)
REMARK    1  A    between atoms: C_1  and  C_2
REMARK    2  A    between atoms: C_2  and  O_3
REMARK    3  A    between atoms: O_3  and  C_4
REMARK    4  A    between atoms: C_7  and  C_8
REMARK    5  A    between atoms: N_10  and  C_11
REMARK    6  A    between atoms: C_11  and  C_12
REMARK    7  A    between atoms: N_14  and  C_15
REMARK    8  A    between atoms: C_15  and  C_16
REMARK    9  A    between atoms: C_16  and  C_17
REMARK   10  A    between atoms: C_16  and  N_25
REMARK   11  A    between atoms: C_20  and  O_21
REMARK   12  A    between atoms: O_21  and  C_22
REMARK                            x       y       z     vdW  Elec       q    Type
REMARK                         _______ _______ _______ _____ _____    ______ ____
ROOT
ATOM      1  C   UNL     1       6.878   5.608  19.266  0.00  0.00    +0.000 C 
ATOM      2  O   UNL     1       7.313   5.193  20.339  0.00  0.00    +0.000 OA
ATOM      3  N   UNL     1       5.553   5.526  18.897  0.00  0.00    +0.000 N 
ATOM      4  H   UNL     1       5.346   5.575  17.900  0.00  0.00    +0.000 HD
ENDROOT
BRANCH   1   5
ATOM      5  C   UNL     1       7.796   6.149  18.178  0.00  0.00    +0.000 C 
BRANCH   5   8
ATOM      6  C   UNL     1       7.947   8.586  17.915  0.00  0.00    +0.000 C 
ATOM      7  O   UNL     1       7.160   8.554  16.971  0.00  0.00    +0.000 OA
ATOM      8  N   UNL     1       8.300   7.440  18.599  0.00  0.00    +0.000 N 
ATOM      9  H   UNL     1       9.114   7.425  19.193  0.00  0.00    +0.000 HD
BRANCH   6  13
ATOM     10  C   UNL     1       9.602  12.383  19.101  0.00  0.00    +0.000 A 
ATOM     11  C   UNL     1       8.854  12.253  17.934  0.00  0.00    +0.000 A 
ATOM     12  C   UNL     1       8.330  11.011  17.563  0.00  0.00    +0.000 A 
ATOM     13  C   UNL     1       8.559   9.878  18.355  0.00  0.00    +0.000 A 
ATOM     14  C   UNL     1       9.338  10.009  19.511  0.00  0.00    +0.000 A 
ATOM     15  C   UNL     1       9.867  11.255  19.875  0.00  0.00    +0.000 A 
BRANCH  10  16
ATOM     16  O   UNL     1      10.030  13.650  19.382  0.00  0.00    +0.000 OA
BRANCH  16  18
ATOM     17  C   UNL     1      10.293  14.693  21.505  0.00  0.00    +0.000 C 
ATOM     18  C   UNL     1      10.936  13.780  20.479  0.00  0.00    +0.000 C 
ENDBRANCH  16  18
ENDBRANCH  10  16
ENDBRANCH   6  13
ENDBRANCH   5   8
ENDBRANCH   1   5
BRANCH   3  19
ATOM     19  C   UNL     1       4.544   5.008  19.808  0.00  0.00    +0.000 C 
BRANCH  19  20
ATOM     20  C   UNL     1       3.083   5.113  19.255  0.00  0.00    +0.000 C 
BRANCH  20  21
ATOM     21  C   UNL     1       2.614   6.567  19.059  0.00  0.00    +0.000 A 
ATOM     22  C   UNL     1       2.802   7.265  17.858  0.00  0.00    +0.000 A 
ATOM     23  C   UNL     1       2.364   8.584  17.716  0.00  0.00    +0.000 A 
ATOM     24  C   UNL     1       1.710   9.228  18.760  0.00  0.00    +0.000 A 
ATOM     25  C   UNL     1       1.522   8.558  19.969  0.00  0.00    +0.000 A 
ATOM     26  C   UNL     1       1.965   7.234  20.114  0.00  0.00    +0.000 A 
BRANCH  24  27
ATOM     27  O   UNL     1       1.344  10.522  18.511  0.00  0.00    +0.000 OA
ATOM     28  C   UNL     1       0.957  11.273  19.656  0.00  0.00    +0.000 C 
ENDBRANCH  24  27
ENDBRANCH  20  21
BRANCH  20  29
ATOM     29  N   UNL     1       2.764   4.284  18.069  0.00  0.00    +0.000 NA
ATOM     30  C   UNL     1       1.412   3.716  18.073  0.00  0.00    +0.000 C 
ATOM     31  C   UNL     1       1.568   2.269  18.502  0.00  0.00    +0.000 C 
ATOM     32  C   UNL     1       2.946   1.879  18.008  0.00  0.00    +0.000 C 
ATOM     33  C   UNL     1       3.687   3.188  17.773  0.00  0.00    +0.000 C 
ENDBRANCH  20  29
ENDBRANCH  19  20
ENDBRANCH   3  19
TORSDOF 10
ENDMDL
MODEL 3
REMARK VINA RESULT:      -7.8      3.435      9.053
REMARK  Name = 
REMARK  12 active torsions:
REMARK  status: ('A' for Active; 'I' for Inactive)
REMARK    1  A    between atoms: C_1  and  C_2
REMARK    2  A    between atoms: C_2  and  O_3
REMARK    3  A    between atoms: O_3  and  C_4
REMARK    4  A    between atoms: C_7  and  C_8
REMARK    5  A    between atoms: N_10  and  C_11
REMARK    6  A    between atoms: C_11  and  C_12
REMARK    7  A    between atoms: N_14  and  C_15
REMARK    8  A    between atoms: C_15  and  C_16
REMARK    9  A    between atoms: C_16  and  C_17
REMARK   10  A    between atoms: C_16  and  N_25
REMARK   11  A    between atoms: C_20  and  O_21
REMARK   12  A    between atoms: O_21  and  C_22
REMARK                            x       y       z     vdW  Elec       q    Type
REMARK                         _______ _______ _______ _____ _____    ______ ____
ROOT
ATOM      1  C   UNL     1       2.144   8.132  18.772  0.00  0.00    +0.000 C 
ATOM      2  O   UNL     1       1.641   8.099  19.893  0.00  0.00    +0.000 OA
ATOM      3  N   UNL     1       3.023   7.181  18.302  0.00  0.00    +0.000 N 
ATOM      4  H   UNL     1       3.633   7.453  17.532  0.00  0.00    +0.000 HD
ENDROOT
BRANCH   1   5
ATOM      5  C   UNL     1       1.937   9.309  17.828  0.00  0.00    +0.000 C 
BRANCH   5   8
ATOM      6  C   UNL     1       0.098  10.758  18.569  0.00  0.00    +0.000 C 
ATOM      7  O   UNL     1       0.884  11.480  19.178  0.00  0.00    +0.000 OA
ATOM      8  N   UNL     1       0.533   9.669  17.841  0.00  0.00    +0.000 N 
ATOM      9  H   UNL     1      -0.110   8.949  17.555  0.00  0.00    +0.000 HD
BRANCH   6  13
ATOM     10  C   UNL     1      -4.106  11.693  18.715  0.00  0.00    +0.000 A 
ATOM     11  C   UNL     1      -3.190  12.343  19.540  0.00  0.00    +0.000 A 
ATOM     12  C   UNL     1      -1.832  12.022  19.481  0.00  0.00    +0.000 A 
ATOM     13  C   UNL     1      -1.372  11.034  18.600  0.00  0.00    +0.000 A 
ATOM     14  C   UNL     1      -2.301  10.362  17.795  0.00  0.00    +0.000 A 
ATOM     15  C   UNL     1      -3.663  10.683  17.863  0.00  0.00    +0.000 A 
BRANCH  10  16
ATOM     16  O   UNL     1      -5.400  12.116  18.832  0.00  0.00    +0.000 OA
BRANCH  16  18
ATOM     17  C   UNL     1      -6.837  12.914  17.111  0.00  0.00    +0.000 C 
ATOM     18  C   UNL     1      -6.299  11.681  17.810  0.00  0.00    +0.000 C 
ENDBRANCH  16  18
ENDBRANCH  10  16
ENDBRANCH   6  13
ENDBRANCH   5   8
ENDBRANCH   1   5
BRANCH   3  19
ATOM     19  C   UNL     1       3.355   6.002  19.089  0.00  0.00    +0.000 C 
BRANCH  19  20
ATOM     20  C   UNL     1       3.560   4.710  18.230  0.00  0.00    +0.000 C 
BRANCH  20  21
ATOM     21  C   UNL     1       4.739   4.819  17.245  0.00  0.00    +0.000 A 
ATOM     22  C   UNL     1       6.032   5.174  17.653  0.00  0.00    +0.000 A 
ATOM     23  C   UNL     1       7.077   5.264  16.731  0.00  0.00    +0.000 A 
ATOM     24  C   UNL     1       6.862   4.981  15.387  0.00  0.00    +0.000 A 
ATOM     25  C   UNL     1       5.580   4.636  14.956  0.00  0.00    +0.000 A 
ATOM     26  C   UNL     1       4.529   4.549  15.881  0.00  0.00    +0.000 A 
BRANCH  24  27
ATOM     27  O   UNL     1       7.955   5.120  14.578  0.00  0.00    +0.000 OA
ATOM     28  C   UNL     1       7.682   5.096  13.181  0.00  0.00    +0.000 C 
ENDBRANCH  24  27
ENDBRANCH  20  21
BRANCH  20  29
ATOM     29  N   UNL     1       3.596   3.424  18.967  0.00  0.00    +0.000 NA
ATOM     30  C   UNL     1       2.966   2.304  18.262  0.00  0.00    +0.000 C 
ATOM     31  C   UNL     1       1.598   2.127  18.893  0.00  0.00    +0.000 C 
ATOM     32  C   UNL     1       1.784   2.588  20.324  0.00  0.00    +0.000 C 
ATOM     33  C   UNL     1       3.049   3.436  20.324  0.00  0.00    +0.000 C 
ENDBRANCH  20  29
ENDBRANCH  19  20
ENDBRANCH   3  19
TORSDOF 10
ENDMDL
MODEL 4
REMARK VINA RESULT:      -7.5      2.991      9.668
REMARK  Name = 
REMARK  12 active torsions:
REMARK  status: ('A' for Active; 'I' for Inactive)
REMARK    1  A    between atoms: C_1  and  C_2
REMARK    2  A    between atoms: C_2  and  O_3
REMARK    3  A    between atoms: O_3  and  C_4
REMARK    4  A    between atoms: C_7  and  C_8
REMARK    5  A    between atoms: N_10  and  C_11
REMARK    6  A    between atoms: C_11  and  C_12
REMARK    7  A    between atoms: N_14  and  C_15
REMARK    8  A    between atoms: C_15  and  C_16
REMARK    9  A    between atoms: C_16  and  C_17
REMARK   10  A    between atoms: C_16  and  N_25
REMARK   11  A    between atoms: C_20  and  O_21
REMARK   12  A    between atoms: O_21  and  C_22
REMARK                            x       y       z     vdW  Elec       q    Type
REMARK                         _______ _______ _______ _____ _____    ______ ____
ROOT
ATOM      1  C   UNL     1       2.475   7.998  18.329  0.00  0.00    +0.000 C 
ATOM      2  O   UNL     1       3.535   7.995  17.707  0.00  0.00    +0.000 OA
ATOM      3  N   UNL     1       2.198   7.137  19.369  0.00  0.00    +0.000 N 
ATOM      4  H   UNL     1       1.216   6.979  19.592  0.00  0.00    +0.000 HD
ENDROOT
BRANCH   1   5
ATOM      5  C   UNL     1       1.303   8.882  17.924  0.00  0.00    +0.000 C 
BRANCH   5   8
ATOM      6  C   UNL     1      -0.391  10.239  19.073  0.00  0.00    +0.000 C 
ATOM      7  O   UNL     1      -1.113  10.217  18.080  0.00  0.00    +0.000 OA
ATOM      8  N   UNL     1       0.820   9.576  19.101  0.00  0.00    +0.000 N 
ATOM      9  H   UNL     1       1.511   9.793  19.801  0.00  0.00    +0.000 HD
BRANCH   6  13
ATOM     10  C   UNL     1      -1.688  12.475  22.521  0.00  0.00    +0.000 A 
ATOM     11  C   UNL     1      -2.072  12.842  21.233  0.00  0.00    +0.000 A 
ATOM     12  C   UNL     1      -1.636  12.108  20.128  0.00  0.00    +0.000 A 
ATOM     13  C   UNL     1      -0.798  10.997  20.297  0.00  0.00    +0.000 A 
ATOM     14  C   UNL     1      -0.390  10.651  21.591  0.00  0.00    +0.000 A 
ATOM     15  C   UNL     1      -0.825  11.395  22.697  0.00  0.00    +0.000 A 
BRANCH  10  16
ATOM     16  O   UNL     1      -2.205  13.243  23.526  0.00  0.00    +0.000 OA
BRANCH  16  18
ATOM     17  C   UNL     1      -4.209  12.420  24.512  0.00  0.00    +0.000 C 
ATOM     18  C   UNL     1      -3.624  13.410  23.524  0.00  0.00    +0.000 C 
ENDBRANCH  16  18
ENDBRANCH  10  16
ENDBRANCH   6  13
ENDBRANCH   5   8
ENDBRANCH   1   5
BRANCH   3  19
ATOM     19  C   UNL     1       3.199   6.205  19.867  0.00  0.00    +0.000 C 
BRANCH  19  20
ATOM     20  C   UNL     1       3.266   4.865  19.060  0.00  0.00    +0.000 C 
BRANCH  20  21
ATOM     21  C   UNL     1       4.430   4.824  18.052  0.00  0.00    +0.000 A 
ATOM     22  C   UNL     1       5.751   5.126  18.411  0.00  0.00    +0.000 A 
ATOM     23  C   UNL     1       6.781   5.079  17.470  0.00  0.00    +0.000 A 
ATOM     24  C   UNL     1       6.522   4.711  16.155  0.00  0.00    +0.000 A 
ATOM     25  C   UNL     1       5.213   4.418  15.770  0.00  0.00    +0.000 A 
ATOM     26  C   UNL     1       4.177   4.468  16.715  0.00  0.00    +0.000 A 
BRANCH  24  27
ATOM     27  O   UNL     1       7.605   4.718  15.321  0.00  0.00    +0.000 OA
ATOM     28  C   UNL     1       7.301   4.813  13.933  0.00  0.00    +0.000 C 
ENDBRANCH  24  27
ENDBRANCH  20  21
BRANCH  20  29
ATOM     29  N   UNL     1       3.199   3.612  19.850  0.00  0.00    +0.000 NA
ATOM     30  C   UNL     1       2.705   2.452  19.104  0.00  0.00    +0.000 C 
ATOM     31  C   UNL     1       1.255   2.276  19.515  0.00  0.00    +0.000 C 
ATOM     32  C   UNL     1       1.204   2.800  20.936  0.00  0.00    +0.000 C 
ATOM     33  C   UNL     1       2.441   3.672  21.100  0.00  0.00    +0.000 C 
ENDBRANCH  20  29
ENDBRANCH  19  20
ENDBRANCH   3  19
TORSDOF 10
ENDMDL
MODEL 5
REMARK VINA RESULT:      -7.4      3.849      9.084
REMARK  Name = 
REMARK  12 active torsions:
REMARK  status: ('A' for Active; 'I' for Inactive)
REMARK    1  A    between atoms: C_1  and  C_2
REMARK    2  A    between atoms: C_2  and  O_3
REMARK    3  A    between atoms: O_3  and  C_4
REMARK    4  A    between atoms: C_7  and  C_8
REMARK    5  A    between atoms: N_10  and  C_11
REMARK    6  A    between atoms: C_11  and  C_12
REMARK    7  A    between atoms: N_14  and  C_15
REMARK    8  A    between atoms: C_15  and  C_16
REMARK    9  A    between atoms: C_16  and  C_17
REMARK   10  A    between atoms: C_16  and  N_25
REMARK   11  A    between atoms: C_20  and  O_21
REMARK   12  A    between atoms: O_21  and  C_22
REMARK                            x       y       z     vdW  Elec       q    Type
REMARK                         _______ _______ _______ _____ _____    ______ ____
ROOT
ATOM      1  C   UNL     1       0.994   8.335  20.972  0.00  0.00    +0.000 C 
ATOM      2  O   UNL     1       0.155   7.782  21.680  0.00  0.00    +0.000 OA
ATOM      3  N   UNL     1       2.056   7.676  20.392  0.00  0.00    +0.000 N 
ATOM      4  H   UNL     1       2.860   8.241  20.120  0.00  0.00    +0.000 HD
ENDROOT
BRANCH   1   5
ATOM      5  C   UNL     1       1.009   9.844  20.765  0.00  0.00    +0.000 C 
BRANCH   5   8
ATOM      6  C   UNL     1      -0.618  10.302  18.985  0.00  0.00    +0.000 C 
ATOM      7  O   UNL     1       0.183   9.937  18.128  0.00  0.00    +0.000 OA
ATOM      8  N   UNL     1      -0.307  10.263  20.329  0.00  0.00    +0.000 N 
ATOM      9  H   UNL     1      -0.850  10.782  21.000  0.00  0.00    +0.000 HD
BRANCH   6  13
ATOM     10  C   UNL     1      -4.541  11.636  17.803  0.00  0.00    +0.000 A 
ATOM     11  C   UNL     1      -3.900  10.595  17.137  0.00  0.00    +0.000 A 
ATOM     12  C   UNL     1      -2.625  10.181  17.532  0.00  0.00    +0.000 A 
ATOM     13  C   UNL     1      -1.970  10.813  18.597  0.00  0.00    +0.000 A 
ATOM     14  C   UNL     1      -2.607  11.880  19.243  0.00  0.00    +0.000 A 
ATOM     15  C   UNL     1      -3.883  12.297  18.838  0.00  0.00    +0.000 A 
BRANCH  10  16
ATOM     16  O   UNL     1      -5.799  11.929  17.355  0.00  0.00    +0.000 OA
BRANCH  16  18
ATOM     17  C   UNL     1      -7.553  12.590  18.821  0.00  0.00    +0.000 C 
ATOM     18  C   UNL     1      -6.880  11.417  18.135  0.00  0.00    +0.000 C 
ENDBRANCH  16  18
ENDBRANCH  10  16
ENDBRANCH   6  13
ENDBRANCH   5   8
ENDBRANCH   1   5
BRANCH   3  19
ATOM     19  C   UNL     1       2.210   6.234  20.512  0.00  0.00    +0.000 C 
BRANCH  19  20
ATOM     20  C   UNL     1       2.172   5.480  19.141  0.00  0.00    +0.000 C 
BRANCH  20  21
ATOM     21  C   UNL     1       3.566   5.290  18.517  0.00  0.00    +0.000 A 
ATOM     22  C   UNL     1       3.800   5.415  17.140  0.00  0.00    +0.000 A 
ATOM     23  C   UNL     1       5.079   5.235  16.608  0.00  0.00    +0.000 A 
ATOM     24  C   UNL     1       6.157   4.948  17.439  0.00  0.00    +0.000 A 
ATOM     25  C   UNL     1       5.946   4.808  18.811  0.00  0.00    +0.000 A 
ATOM     26  C   UNL     1       4.661   4.985  19.345  0.00  0.00    +0.000 A 
BRANCH  24  27
ATOM     27  O   UNL     1       7.355   4.776  16.803  0.00  0.00    +0.000 OA
ATOM     28  C   UNL     1       7.280   4.677  15.385  0.00  0.00    +0.000 C 
ENDBRANCH  24  27
ENDBRANCH  20  21
BRANCH  20  29
ATOM     29  N   UNL     1       1.391   4.220  19.100  0.00  0.00    +0.000 NA
ATOM     30  C   UNL     1       1.051   3.675  20.417  0.00  0.00    +0.000 C 
ATOM     31  C   UNL     1       2.034   2.548  20.671  0.00  0.00    +0.000 C 
ATOM     32  C   UNL     1       2.359   2.019  19.289  0.00  0.00    +0.000 C 
ATOM     33  C   UNL     1       1.965   3.124  18.319  0.00  0.00    +0.000 C 
ENDBRANCH  20  29
ENDBRANCH  19  20
ENDBRANCH   3  19
TORSDOF 10
ENDMDL
MODEL 6
REMARK VINA RESULT:      -7.4      2.893      9.592
REMARK  Name = 
REMARK  12 active torsions:
REMARK  status: ('A' for Active; 'I' for Inactive)
REMARK    1  A    between atoms: C_1  and  C_2
REMARK    2  A    between atoms: C_2  and  O_3
REMARK    3  A    between atoms: O_3  and  C_4
REMARK    4  A    between atoms: C_7  and  C_8
REMARK    5  A    between atoms: N_10  and  C_11
REMARK    6  A    between atoms: C_11  and  C_12
REMARK    7  A    between atoms: N_14  and  C_15
REMARK    8  A    between atoms: C_15  and  C_16
REMARK    9  A    between atoms: C_16  and  C_17
REMARK   10  A    between atoms: C_16  and  N_25
REMARK   11  A    between atoms: C_20  and  O_21
REMARK   12  A    between atoms: O_21  and  C_22
REMARK                            x       y       z     vdW  Elec       q    Type
REMARK                         _______ _______ _______ _____ _____    ______ ____
ROOT
ATOM      1  C   UNL     1       2.498   8.064  18.269  0.00  0.00    +0.000 C 
ATOM      2  O   UNL     1       3.603   8.066  17.729  0.00  0.00    +0.000 OA
ATOM      3  N   UNL     1       2.150   7.209  19.291  0.00  0.00    +0.000 N 
ATOM      4  H   UNL     1       1.156   7.044  19.440  0.00  0.00    +0.000 HD
ENDROOT
BRANCH   1   5
ATOM      5  C   UNL     1       1.353   8.937  17.770  0.00  0.00    +0.000 C 
BRANCH   5   8
ATOM      6  C   UNL     1      -0.427  10.290  18.785  0.00  0.00    +0.000 C 
ATOM      7  O   UNL     1      -1.090  10.230  17.752  0.00  0.00    +0.000 OA
ATOM      8  N   UNL     1       0.792   9.651  18.899  0.00  0.00    +0.000 N 
ATOM      9  H   UNL     1       1.437   9.897  19.632  0.00  0.00    +0.000 HD
BRANCH   6  13
ATOM     10  C   UNL     1      -1.975  12.557  22.106  0.00  0.00    +0.000 A 
ATOM     11  C   UNL     1      -2.496  12.706  20.822  0.00  0.00    +0.000 A 
ATOM     12  C   UNL     1      -1.976  11.965  19.757  0.00  0.00    +0.000 A 
ATOM     13  C   UNL     1      -0.917  11.071  19.963  0.00  0.00    +0.000 A 
ATOM     14  C   UNL     1      -0.377  10.949  21.249  0.00  0.00    +0.000 A 
ATOM     15  C   UNL     1      -0.897  11.699  22.313  0.00  0.00    +0.000 A 
BRANCH  10  16
ATOM     16  O   UNL     1      -2.587  13.303  23.074  0.00  0.00    +0.000 OA
BRANCH  16  18
ATOM     17  C   UNL     1      -1.537  15.437  23.157  0.00  0.00    +0.000 C 
ATOM     18  C   UNL     1      -1.730  14.116  23.877  0.00  0.00    +0.000 C 
ENDBRANCH  16  18
ENDBRANCH  10  16
ENDBRANCH   6  13
ENDBRANCH   5   8
ENDBRANCH   1   5
BRANCH   3  19
ATOM     19  C   UNL     1       3.118   6.287  19.869  0.00  0.00    +0.000 C 
BRANCH  19  20
ATOM     20  C   UNL     1       3.207   4.916  19.120  0.00  0.00    +0.000 C 
BRANCH  20  21
ATOM     21  C   UNL     1       4.388   4.842  18.135  0.00  0.00    +0.000 A 
ATOM     22  C   UNL     1       4.210   4.756  16.747  0.00  0.00    +0.000 A 
ATOM     23  C   UNL     1       5.305   4.689  15.883  0.00  0.00    +0.000 A 
ATOM     24  C   UNL     1       6.603   4.728  16.382  0.00  0.00    +0.000 A 
ATOM     25  C   UNL     1       6.805   4.801  17.760  0.00  0.00    +0.000 A 
ATOM     26  C   UNL     1       5.705   4.865  18.628  0.00  0.00    +0.000 A 
BRANCH  24  27
ATOM     27  O   UNL     1       7.593   4.638  15.443  0.00  0.00    +0.000 OA
ATOM     28  C   UNL     1       7.179   4.875  14.102  0.00  0.00    +0.000 C 
ENDBRANCH  24  27
ENDBRANCH  20  21
BRANCH  20  29
ATOM     29  N   UNL     1       3.133   3.697  19.959  0.00  0.00    +0.000 NA
ATOM     30  C   UNL     1       2.679   2.498  19.247  0.00  0.00    +0.000 C 
ATOM     31  C   UNL     1       1.219   2.317  19.621  0.00  0.00    +0.000 C 
ATOM     32  C   UNL     1       1.116   2.899  21.016  0.00  0.00    +0.000 C 
ATOM     33  C   UNL     1       2.335   3.796  21.182  0.00  0.00    +0.000 C 
ENDBRANCH  20  29
ENDBRANCH  19  20
ENDBRANCH   3  19
TORSDOF 10
ENDMDL
MODEL 7
REMARK VINA RESULT:      -7.3      3.210      8.753
REMARK  Name = 
REMARK  12 active torsions:
REMARK  status: ('A' for Active; 'I' for Inactive)
REMARK    1  A    between atoms: C_1  and  C_2
REMARK    2  A    between atoms: C_2  and  O_3
REMARK    3  A    between atoms: O_3  and  C_4
REMARK    4  A    between atoms: C_7  and  C_8
REMARK    5  A    between atoms: N_10  and  C_11
REMARK    6  A    between atoms: C_11  and  C_12
REMARK    7  A    between atoms: N_14  and  C_15
REMARK    8  A    between atoms: C_15  and  C_16
REMARK    9  A    between atoms: C_16  and  C_17
REMARK   10  A    between atoms: C_16  and  N_25
REMARK   11  A    between atoms: C_20  and  O_21
REMARK   12  A    between atoms: O_21  and  C_22
REMARK                            x       y       z     vdW  Elec       q    Type
REMARK                         _______ _______ _______ _____ _____    ______ ____
ROOT
ATOM      1  C   UNL     1       2.251   7.297  20.066  0.00  0.00    +0.000 C 
ATOM      2  O   UNL     1       2.423   7.838  18.974  0.00  0.00    +0.000 OA
ATOM      3  N   UNL     1       2.891   6.141  20.454  0.00  0.00    +0.000 N 
ATOM      4  H   UNL     1       2.454   5.596  21.196  0.00  0.00    +0.000 HD
ENDROOT
BRANCH   1   5
ATOM      5  C   UNL     1       1.206   7.794  21.057  0.00  0.00    +0.000 C 
BRANCH   5   8
ATOM      6  C   UNL     1       0.110   9.878  20.361  0.00  0.00    +0.000 C 
ATOM      7  O   UNL     1       0.947  10.546  20.965  0.00  0.00    +0.000 OA
ATOM      8  N   UNL     1       0.174   8.500  20.325  0.00  0.00    +0.000 N 
ATOM      9  H   UNL     1      -0.626   7.953  20.052  0.00  0.00    +0.000 HD
BRANCH   6  13
ATOM     10  C   UNL     1      -3.187  11.655  18.231  0.00  0.00    +0.000 A 
ATOM     11  C   UNL     1      -2.584  10.482  17.783  0.00  0.00    +0.000 A 
ATOM     12  C   UNL     1      -1.512   9.925  18.485  0.00  0.00    +0.000 A 
ATOM     13  C   UNL     1      -1.022  10.542  19.643  0.00  0.00    +0.000 A 
ATOM     14  C   UNL     1      -1.613  11.738  20.071  0.00  0.00    +0.000 A 
ATOM     15  C   UNL     1      -2.683  12.297  19.359  0.00  0.00    +0.000 A 
BRANCH  10  16
ATOM     16  O   UNL     1      -4.250  12.086  17.487  0.00  0.00    +0.000 OA
BRANCH  16  18
ATOM     17  C   UNL     1      -6.594  11.849  17.822  0.00  0.00    +0.000 C 
ATOM     18  C   UNL     1      -5.330  11.163  17.339  0.00  0.00    +0.000 C 
ENDBRANCH  16  18
ENDBRANCH  10  16
ENDBRANCH   6  13
ENDBRANCH   5   8
ENDBRANCH   1   5
BRANCH   3  19
ATOM     19  C   UNL     1       3.901   5.516  19.613  0.00  0.00    +0.000 C 
BRANCH  19  20
ATOM     20  C   UNL     1       3.316   4.823  18.337  0.00  0.00    +0.000 C 
BRANCH  20  21
ATOM     21  C   UNL     1       4.268   4.881  17.128  0.00  0.00    +0.000 A 
ATOM     22  C   UNL     1       4.642   6.088  16.519  0.00  0.00    +0.000 A 
ATOM     23  C   UNL     1       5.507   6.102  15.423  0.00  0.00    +0.000 A 
ATOM     24  C   UNL     1       6.034   4.917  14.922  0.00  0.00    +0.000 A 
ATOM     25  C   UNL     1       5.667   3.703  15.503  0.00  0.00    +0.000 A 
ATOM     26  C   UNL     1       4.796   3.688  16.603  0.00  0.00    +0.000 A 
BRANCH  24  27
ATOM     27  O   UNL     1       6.854   5.055  13.836  0.00  0.00    +0.000 OA
ATOM     28  C   UNL     1       6.708   4.054  12.835  0.00  0.00    +0.000 C 
ENDBRANCH  24  27
ENDBRANCH  20  21
BRANCH  20  29
ATOM     29  N   UNL     1       2.765   3.459  18.519  0.00  0.00    +0.000 NA
ATOM     30  C   UNL     1       1.304   3.377  18.419  0.00  0.00    +0.000 C 
ATOM     31  C   UNL     1       0.790   3.304  19.844  0.00  0.00    +0.000 C 
ATOM     32  C   UNL     1       1.902   2.612  20.607  0.00  0.00    +0.000 C 
ATOM     33  C   UNL     1       3.149   2.760  19.746  0.00  0.00    +0.000 C 
ENDBRANCH  20  29
ENDBRANCH  19  20
ENDBRANCH   3  19
TORSDOF 10
ENDMDL
MODEL 8
REMARK VINA RESULT:      -7.3      3.427      9.163
REMARK  Name = 
REMARK  12 active torsions:
REMARK  status: ('A' for Active; 'I' for Inactive)
REMARK    1  A    between atoms: C_1  and  C_2
REMARK    2  A    between atoms: C_2  and  O_3
REMARK    3  A    between atoms: O_3  and  C_4
REMARK    4  A    between atoms: C_7  and  C_8
REMARK    5  A    between atoms: N_10  and  C_11
REMARK    6  A    between atoms: C_11  and  C_12
REMARK    7  A    between atoms: N_14  and  C_15
REMARK    8  A    between atoms: C_15  and  C_16
REMARK    9  A    between atoms: C_16  and  C_17
REMARK   10  A    between atoms: C_16  and  N_25
REMARK   11  A    between atoms: C_20  and  O_21
REMARK   12  A    between atoms: O_21  and  C_22
REMARK                            x       y       z     vdW  Elec       q    Type
REMARK                         _______ _______ _______ _____ _____    ______ ____
ROOT
ATOM      1  C   UNL     1       1.936   7.807  19.810  0.00  0.00    +0.000 C 
ATOM      2  O   UNL     1       1.309   7.580  20.844  0.00  0.00    +0.000 OA
ATOM      3  N   UNL     1       2.863   6.940  19.274  0.00  0.00    +0.000 N 
ATOM      4  H   UNL     1       3.556   7.336  18.640  0.00  0.00    +0.000 HD
ENDROOT
BRANCH   1   5
ATOM      5  C   UNL     1       1.836   9.140  19.081  0.00  0.00    +0.000 C 
BRANCH   5   8
ATOM      6  C   UNL     1       0.093  10.848  18.801  0.00  0.00    +0.000 C 
ATOM      7  O   UNL     1       0.943  11.712  18.597  0.00  0.00    +0.000 OA
ATOM      8  N   UNL     1       0.442   9.530  19.022  0.00  0.00    +0.000 N 
ATOM      9  H   UNL     1      -0.216   8.883  19.427  0.00  0.00    +0.000 HD
BRANCH   6  13
ATOM     10  C   UNL     1      -4.061  11.982  18.947  0.00  0.00    +0.000 A 
ATOM     11  C   UNL     1      -3.153  12.436  19.901  0.00  0.00    +0.000 A 
ATOM     12  C   UNL     1      -1.811  12.052  19.839  0.00  0.00    +0.000 A 
ATOM     13  C   UNL     1      -1.361  11.197  18.824  0.00  0.00    +0.000 A 
ATOM     14  C   UNL     1      -2.285  10.719  17.886  0.00  0.00    +0.000 A 
ATOM     15  C   UNL     1      -3.632  11.101  17.956  0.00  0.00    +0.000 A 
BRANCH  10  16
ATOM     16  O   UNL     1      -5.337  12.452  19.085  0.00  0.00    +0.000 OA
BRANCH  16  18
ATOM     17  C   UNL     1      -7.013  10.789  19.388  0.00  0.00    +0.000 C 
ATOM     18  C   UNL     1      -6.138  11.816  20.082  0.00  0.00    +0.000 C 
ENDBRANCH  16  18
ENDBRANCH  10  16
ENDBRANCH   6  13
ENDBRANCH   5   8
ENDBRANCH   1   5
BRANCH   3  19
ATOM     19  C   UNL     1       3.104   5.631  19.863  0.00  0.00    +0.000 C 
BRANCH  19  20
ATOM     20  C   UNL     1       3.130   4.466  18.818  0.00  0.00    +0.000 C 
BRANCH  20  21
ATOM     21  C   UNL     1       4.345   4.527  17.875  0.00  0.00    +0.000 A 
ATOM     22  C   UNL     1       4.284   4.110  16.537  0.00  0.00    +0.000 A 
ATOM     23  C   UNL     1       5.408   4.179  15.711  0.00  0.00    +0.000 A 
ATOM     24  C   UNL     1       6.610   4.685  16.191  0.00  0.00    +0.000 A 
ATOM     25  C   UNL     1       6.698   5.095  17.522  0.00  0.00    +0.000 A 
ATOM     26  C   UNL     1       5.571   5.023  18.354  0.00  0.00    +0.000 A 
BRANCH  24  27
ATOM     27  O   UNL     1       7.643   4.686  15.296  0.00  0.00    +0.000 OA
ATOM     28  C   UNL     1       7.270   4.906  13.940  0.00  0.00    +0.000 C 
ENDBRANCH  24  27
ENDBRANCH  20  21
BRANCH  20  29
ATOM     29  N   UNL     1       2.934   3.096  19.350  0.00  0.00    +0.000 NA
ATOM     30  C   UNL     1       1.553   2.609  19.274  0.00  0.00    +0.000 C 
ATOM     31  C   UNL     1       0.977   2.763  20.668  0.00  0.00    +0.000 C 
ATOM     32  C   UNL     1       2.172   2.605  21.586  0.00  0.00    +0.000 C 
ATOM     33  C   UNL     1       3.397   2.855  20.717  0.00  0.00    +0.000 C 
ENDBRANCH  20  29
ENDBRANCH  19  20
ENDBRANCH   3  19
TORSDOF 10
ENDMDL
MODEL 9
REMARK VINA RESULT:      -7.3      3.359      9.114
REMARK  Name = 
REMARK  12 active torsions:
REMARK  status: ('A' for Active; 'I' for Inactive)
REMARK    1  A    between atoms: C_1  and  C_2
REMARK    2  A    between atoms: C_2  and  O_3
REMARK    3  A    between atoms: O_3  and  C_4
REMARK    4  A    between atoms: C_7  and  C_8
REMARK    5  A    between atoms: N_10  and  C_11
REMARK    6  A    between atoms: C_11  and  C_12
REMARK    7  A    between atoms: N_14  and  C_15
REMARK    8  A    between atoms: C_15  and  C_16
REMARK    9  A    between atoms: C_16  and  C_17
REMARK   10  A    between atoms: C_16  and  N_25
REMARK   11  A    between atoms: C_20  and  O_21
REMARK   12  A    between atoms: O_21  and  C_22
REMARK                            x       y       z     vdW  Elec       q    Type
REMARK                         _______ _______ _______ _____ _____    ______ ____
ROOT
ATOM      1  C   UNL     1       1.632   8.618  19.100  0.00  0.00    +0.000 C 
ATOM      2  O   UNL     1       1.442   8.926  20.275  0.00  0.00    +0.000 OA
ATOM      3  N   UNL     1       2.371   7.524  18.708  0.00  0.00    +0.000 N 
ATOM      4  H   UNL     1       2.752   7.536  17.763  0.00  0.00    +0.000 HD
ENDROOT
BRANCH   1   5
ATOM      5  C   UNL     1       1.164   9.499  17.949  0.00  0.00    +0.000 C 
BRANCH   5   8
ATOM      6  C   UNL     1       1.133  11.893  18.493  0.00  0.00    +0.000 C 
ATOM      7  O   UNL     1      -0.038  11.817  18.858  0.00  0.00    +0.000 OA
ATOM      8  N   UNL     1       1.826  10.784  18.052  0.00  0.00    +0.000 N 
ATOM      9  H   UNL     1       2.681  10.884  17.529  0.00  0.00    +0.000 HD
BRANCH   6  13
ATOM     10  C   UNL     1       3.094  15.727  18.626  0.00  0.00    +0.000 A 
ATOM     11  C   UNL     1       1.724  15.607  18.844  0.00  0.00    +0.000 A 
ATOM     12  C   UNL     1       1.105  14.356  18.791  0.00  0.00    +0.000 A 
ATOM     13  C   UNL     1       1.853  13.204  18.508  0.00  0.00    +0.000 A 
ATOM     14  C   UNL     1       3.224  13.335  18.258  0.00  0.00    +0.000 A 
ATOM     15  C   UNL     1       3.839  14.594  18.305  0.00  0.00    +0.000 A 
BRANCH  10  16
ATOM     16  O   UNL     1       3.595  16.994  18.740  0.00  0.00    +0.000 OA
BRANCH  16  18
ATOM     17  C   UNL     1       4.411  17.332  20.950  0.00  0.00    +0.000 C 
ATOM     18  C   UNL     1       4.799  17.128  19.498  0.00  0.00    +0.000 C 
ENDBRANCH  16  18
ENDBRANCH  10  16
ENDBRANCH   6  13
ENDBRANCH   5   8
ENDBRANCH   1   5
BRANCH   3  19
ATOM     19  C   UNL     1       2.917   6.591  19.683  0.00  0.00    +0.000 C 
BRANCH  19  20
ATOM     20  C   UNL     1       3.134   5.147  19.118  0.00  0.00    +0.000 C 
BRANCH  20  21
ATOM     21  C   UNL     1       4.341   5.044  18.168  0.00  0.00    +0.000 A 
ATOM     22  C   UNL     1       4.204   4.763  16.801  0.00  0.00    +0.000 A 
ATOM     23  C   UNL     1       5.322   4.676  15.969  0.00  0.00    +0.000 A 
ATOM     24  C   UNL     1       6.600   4.890  16.476  0.00  0.00    +0.000 A 
ATOM     25  C   UNL     1       6.762   5.160  17.835  0.00  0.00    +0.000 A 
ATOM     26  C   UNL     1       5.639   5.244  18.672  0.00  0.00    +0.000 A 
BRANCH  24  27
ATOM     27  O   UNL     1       7.616   4.761  15.570  0.00  0.00    +0.000 OA
ATOM     28  C   UNL     1       7.224   4.834  14.204  0.00  0.00    +0.000 C 
ENDBRANCH  24  27
ENDBRANCH  20  21
BRANCH  20  29
ATOM     29  N   UNL     1       3.137   4.043  20.108  0.00  0.00    +0.000 NA
ATOM     30  C   UNL     1       3.014   2.705  19.523  0.00  0.00    +0.000 C 
ATOM     31  C   UNL     1       1.567   2.293  19.718  0.00  0.00    +0.000 C 
ATOM     32  C   UNL     1       1.144   3.005  20.987  0.00  0.00    +0.000 C 
ATOM     33  C   UNL     1       2.150   4.131  21.184  0.00  0.00    +0.000 C 
ENDBRANCH  20  29
ENDBRANCH  19  20
ENDBRANCH   3  19
TORSDOF 10
ENDMDL
