MODEL 1
REMARK VINA RESULT:      -7.9      0.000      0.000
REMARK  Name = 
REMARK  4 active torsions:
REMARK  status: ('A' for Active; 'I' for Inactive)
REMARK    1  A    between atoms: C_4  and  O_5
REMARK    2  A    between atoms: O_5  and  C_6
REMARK    3  A    between atoms: C_6  and  C_7
REMARK    4  A    between atoms: C_8  and  C_9
REMARK                            x       y       z     vdW  Elec       q    Type
REMARK                         _______ _______ _______ _____ _____    ______ ____
ROOT
ATOM      1  O   UNL     1       2.755   6.634  19.631  0.00  0.00    +0.000 OA
ATOM      2  C   UNL     1       3.411   5.611  19.475  0.00  0.00    +0.000 A 
ATOM      3  N   UNL     1       4.779   5.605  19.428  0.00  0.00    +0.000 N 
ATOM      4  C   UNL     1       5.506   4.463  19.282  0.00  0.00    +0.000 A 
ATOM      5  N   UNL     1       4.994   3.288  19.172  0.00  0.00    +0.000 NA
ATOM      6  C   UNL     1       3.600   3.196  19.180  0.00  0.00    +0.000 A 
ATOM      7  N   UNL     1       3.122   1.945  19.010  0.00  0.00    +0.000 NA
ATOM      8  C   UNL     1       1.779   1.801  18.960  0.00  0.00    +0.000 A 
ATOM      9  C   UNL     1       0.881   2.851  19.080  0.00  0.00    +0.000 A 
ATOM     10  C   UNL     1       1.387   4.133  19.269  0.00  0.00    +0.000 A 
ATOM     11  C   UNL     1       2.770   4.300  19.316  0.00  0.00    +0.000 A 
ATOM     12  H   UNL     1       5.263   6.486  19.511  0.00  0.00    +0.000 HD
ENDROOT
BRANCH   4  13
ATOM     13  O   UNL     1       6.838   4.699  19.264  0.00  0.00    +0.000 OA
BRANCH  13  14
ATOM     14  C   UNL     1       7.273   5.652  18.278  0.00  0.00    +0.000 C 
BRANCH  14  15
ATOM     15  C   UNL     1       7.164   5.001  16.934  0.00  0.00    +0.000 C 
ATOM     16  C   UNL     1       6.638   5.588  15.844  0.00  0.00    +0.000 C 
BRANCH  16  17
ATOM     17  C   UNL     1       6.555   4.947  14.521  0.00  0.00    +0.000 A 
ATOM     18  C   UNL     1       7.578   5.160  13.586  0.00  0.00    +0.000 A 
ATOM     19  C   UNL     1       7.555   4.512  12.346  0.00  0.00    +0.000 A 
ATOM     20  C   UNL     1       6.513   3.643  12.029  0.00  0.00    +0.000 A 
ATOM     21  C   UNL     1       5.492   3.423  12.949  0.00  0.00    +0.000 A 
ATOM     22  C   UNL     1       5.518   4.066  14.188  0.00  0.00    +0.000 A 
ENDBRANCH  16  17
ENDBRANCH  14  15
ENDBRANCH  13  14
ENDBRANCH   4  13
TORSDOF 4
ENDMDL
MODEL 2
REMARK VINA RESULT:      -7.9      3.923      5.721
REMARK  Name = 
REMARK  4 active torsions:
REMARK  status: ('A' for Active; 'I' for Inactive)
REMARK    1  A    between atoms: C_4  and  O_5
REMARK    2  A    between atoms: O_5  and  C_6
REMARK    3  A    between atoms: C_6  and  C_7
REMARK    4  A    between atoms: C_8  and  C_9
REMARK                            x       y       z     vdW  Elec       q    Type
REMARK                         _______ _______ _______ _____ _____    ______ ____
ROOT
ATOM      1  O   UNL     1       2.604   7.241  17.965  0.00  0.00    +0.000 OA
ATOM      2  C   UNL     1       3.478   6.383  17.985  0.00  0.00    +0.000 A 
ATOM      3  N   UNL     1       4.814   6.683  17.963  0.00  0.00    +0.000 N 
ATOM      4  C   UNL     1       5.783   5.728  18.014  0.00  0.00    +0.000 A 
ATOM      5  N   UNL     1       5.553   4.464  18.084  0.00  0.00    +0.000 NA
ATOM      6  C   UNL     1       4.215   4.060  18.083  0.00  0.00    +0.000 A 
ATOM      7  N   UNL     1       4.037   2.721  18.106  0.00  0.00    +0.000 NA
ATOM      8  C   UNL     1       2.764   2.269  18.057  0.00  0.00    +0.000 A 
ATOM      9  C   UNL     1       1.650   3.093  17.992  0.00  0.00    +0.000 A 
ATOM     10  C   UNL     1       1.848   4.470  17.983  0.00  0.00    +0.000 A 
ATOM     11  C   UNL     1       3.154   4.953  18.026  0.00  0.00    +0.000 A 
ATOM     12  H   UNL     1       5.085   7.653  17.912  0.00  0.00    +0.000 HD
ENDROOT
BRANCH   4  13
ATOM     13  O   UNL     1       7.029   6.256  17.982  0.00  0.00    +0.000 OA
BRANCH  13  14
ATOM     14  C   UNL     1       7.137   7.514  17.291  0.00  0.00    +0.000 C 
BRANCH  14  15
ATOM     15  C   UNL     1       8.163   8.339  18.004  0.00  0.00    +0.000 C 
ATOM     16  C   UNL     1       8.331   9.662  17.828  0.00  0.00    +0.000 C 
BRANCH  16  17
ATOM     17  C   UNL     1       9.329  10.470  18.550  0.00  0.00    +0.000 A 
ATOM     18  C   UNL     1      10.255  11.233  17.825  0.00  0.00    +0.000 A 
ATOM     19  C   UNL     1      11.171  12.058  18.487  0.00  0.00    +0.000 A 
ATOM     20  C   UNL     1      11.169  12.131  19.879  0.00  0.00    +0.000 A 
ATOM     21  C   UNL     1      10.255  11.378  20.609  0.00  0.00    +0.000 A 
ATOM     22  C   UNL     1       9.337  10.559  19.948  0.00  0.00    +0.000 A 
ENDBRANCH  16  17
ENDBRANCH  14  15
ENDBRANCH  13  14
ENDBRANCH   4  13
TORSDOF 4
ENDMDL
MODEL 3
REMARK VINA RESULT:      -7.9      3.991      5.860
REMARK  Name = 
REMARK  4 active torsions:
REMARK  status: ('A' for Active; 'I' for Inactive)
REMARK    1  A    between atoms: C_4  and  O_5
REMARK    2  A    between atoms: O_5  and  C_6
REMARK    3  A    between atoms: C_6  and  C_7
REMARK    4  A    between atoms: C_8  and  C_9
REMARK                            x       y       z     vdW  Elec       q    Type
REMARK                         _______ _______ _______ _____ _____    ______ ____
ROOT
ATOM      1  O   UNL     1       2.647   7.425  17.839  0.00  0.00    +0.000 OA
ATOM      2  C   UNL     1       3.510   6.559  17.919  0.00  0.00    +0.000 A 
ATOM      3  N   UNL     1       4.848   6.845  17.955  0.00  0.00    +0.000 N 
ATOM      4  C   UNL     1       5.804   5.882  18.072  0.00  0.00    +0.000 A 
ATOM      5  N   UNL     1       5.557   4.623  18.158  0.00  0.00    +0.000 NA
ATOM      6  C   UNL     1       4.217   4.231  18.101  0.00  0.00    +0.000 A 
ATOM      7  N   UNL     1       4.024   2.895  18.144  0.00  0.00    +0.000 NA
ATOM      8  C   UNL     1       2.750   2.454  18.044  0.00  0.00    +0.000 A 
ATOM      9  C   UNL     1       1.650   3.286  17.908  0.00  0.00    +0.000 A 
ATOM     10  C   UNL     1       1.862   4.661  17.879  0.00  0.00    +0.000 A 
ATOM     11  C   UNL     1       3.170   5.133  17.975  0.00  0.00    +0.000 A 
ATOM     12  H   UNL     1       5.132   7.811  17.897  0.00  0.00    +0.000 HD
ENDROOT
BRANCH   4  13
ATOM     13  O   UNL     1       7.055   6.398  18.088  0.00  0.00    +0.000 OA
BRANCH  13  14
ATOM     14  C   UNL     1       7.224   7.605  17.323  0.00  0.00    +0.000 C 
BRANCH  14  15
ATOM     15  C   UNL     1       8.248   8.447  18.019  0.00  0.00    +0.000 C 
ATOM     16  C   UNL     1       8.368   9.779  17.868  0.00  0.00    +0.000 C 
BRANCH  16  17
ATOM     17  C   UNL     1       9.365  10.602  18.574  0.00  0.00    +0.000 A 
ATOM     18  C   UNL     1       9.285  10.739  19.967  0.00  0.00    +0.000 A 
ATOM     19  C   UNL     1      10.256  11.463  20.668  0.00  0.00    +0.000 A 
ATOM     20  C   UNL     1      11.318  12.053  19.985  0.00  0.00    +0.000 A 
ATOM     21  C   UNL     1      11.408  11.924  18.603  0.00  0.00    +0.000 A 
ATOM     22  C   UNL     1      10.442  11.197  17.904  0.00  0.00    +0.000 A 
ENDBRANCH  16  17
ENDBRANCH  14  15
ENDBRANCH  13  14
ENDBRANCH   4  13
TORSDOF 4
ENDMDL
MODEL 4
REMARK VINA RESULT:      -7.8      4.036      5.867
REMARK  Name = 
REMARK  4 active torsions:
REMARK  status: ('A' for Active; 'I' for Inactive)
REMARK    1  A    between atoms: C_4  and  O_5
REMARK    2  A    between atoms: O_5  and  C_6
REMARK    3  A    between atoms: C_6  and  C_7
REMARK    4  A    between atoms: C_8  and  C_9
REMARK                            x       y       z     vdW  Elec       q    Type
REMARK                         _______ _______ _______ _____ _____    ______ ____
ROOT
ATOM      1  O   UNL     1       2.244   7.498  18.222  0.00  0.00    +0.000 OA
ATOM      2  C   UNL     1       3.141   6.758  17.837  0.00  0.00    +0.000 A 
ATOM      3  N   UNL     1       4.340   7.225  17.367  0.00  0.00    +0.000 N 
ATOM      4  C   UNL     1       5.345   6.399  16.966  0.00  0.00    +0.000 A 
ATOM      5  N   UNL     1       5.278   5.115  16.983  0.00  0.00    +0.000 NA
ATOM      6  C   UNL     1       4.079   4.545  17.420  0.00  0.00    +0.000 A 
ATOM      7  N   UNL     1       4.051   3.196  17.367  0.00  0.00    +0.000 NA
ATOM      8  C   UNL     1       2.899   2.590  17.732  0.00  0.00    +0.000 A 
ATOM      9  C   UNL     1       1.767   3.268  18.158  0.00  0.00    +0.000 A 
ATOM     10  C   UNL     1       1.815   4.657  18.222  0.00  0.00    +0.000 A 
ATOM     11  C   UNL     1       2.993   5.298  17.842  0.00  0.00    +0.000 A 
ATOM     12  H   UNL     1       4.479   8.223  17.324  0.00  0.00    +0.000 HD
ENDROOT
BRANCH   4  13
ATOM     13  O   UNL     1       6.434   7.082  16.543  0.00  0.00    +0.000 OA
BRANCH  13  14
ATOM     14  C   UNL     1       7.539   7.092  17.465  0.00  0.00    +0.000 C 
BRANCH  14  15
ATOM     15  C   UNL     1       7.826   8.518  17.819  0.00  0.00    +0.000 C 
ATOM     16  C   UNL     1       8.840   8.918  18.607  0.00  0.00    +0.000 C 
BRANCH  16  17
ATOM     17  C   UNL     1       9.127  10.325  18.932  0.00  0.00    +0.000 A 
ATOM     18  C   UNL     1       8.955  11.310  17.948  0.00  0.00    +0.000 A 
ATOM     19  C   UNL     1       9.160  12.661  18.249  0.00  0.00    +0.000 A 
ATOM     20  C   UNL     1       9.534  13.042  19.536  0.00  0.00    +0.000 A 
ATOM     21  C   UNL     1       9.708  12.075  20.521  0.00  0.00    +0.000 A 
ATOM     22  C   UNL     1       9.499  10.727  20.221  0.00  0.00    +0.000 A 
ENDBRANCH  16  17
ENDBRANCH  14  15
ENDBRANCH  13  14
ENDBRANCH   4  13
TORSDOF 4
ENDMDL
MODEL 5
REMARK VINA RESULT:      -7.8      1.512      2.395
REMARK  Name = 
REMARK  4 active torsions:
REMARK  status: ('A' for Active; 'I' for Inactive)
REMARK    1  A    between atoms: C_4  and  O_5
REMARK    2  A    between atoms: O_5  and  C_6
REMARK    3  A    between atoms: C_6  and  C_7
REMARK    4  A    between atoms: C_8  and  C_9
REMARK                            x       y       z     vdW  Elec       q    Type
REMARK                         _______ _______ _______ _____ _____    ______ ____
ROOT
ATOM      1  O   UNL     1       5.137   1.714  20.460  0.00  0.00    +0.000 OA
ATOM      2  C   UNL     1       4.746   2.799  20.048  0.00  0.00    +0.000 A 
ATOM      3  N   UNL     1       5.568   3.695  19.418  0.00  0.00    +0.000 N 
ATOM      4  C   UNL     1       5.124   4.889  18.937  0.00  0.00    +0.000 A 
ATOM      5  N   UNL     1       3.907   5.297  19.021  0.00  0.00    +0.000 NA
ATOM      6  C   UNL     1       2.998   4.460  19.675  0.00  0.00    +0.000 A 
ATOM      7  N   UNL     1       1.750   4.965  19.777  0.00  0.00    +0.000 NA
ATOM      8  C   UNL     1       0.838   4.222  20.443  0.00  0.00    +0.000 A 
ATOM      9  C   UNL     1       1.111   2.986  21.011  0.00  0.00    +0.000 A 
ATOM     10  C   UNL     1       2.398   2.472  20.885  0.00  0.00    +0.000 A 
ATOM     11  C   UNL     1       3.352   3.229  20.207  0.00  0.00    +0.000 A 
ATOM     12  H   UNL     1       6.540   3.453  19.305  0.00  0.00    +0.000 HD
ENDROOT
BRANCH   4  13
ATOM     13  O   UNL     1       6.111   5.607  18.353  0.00  0.00    +0.000 OA
BRANCH  13  14
ATOM     14  C   UNL     1       5.662   6.631  17.446  0.00  0.00    +0.000 C 
BRANCH  14  15
ATOM     15  C   UNL     1       5.728   6.073  16.059  0.00  0.00    +0.000 C 
ATOM     16  C   UNL     1       6.727   5.300  15.595  0.00  0.00    +0.000 C 
BRANCH  16  17
ATOM     17  C   UNL     1       6.772   4.737  14.235  0.00  0.00    +0.000 A 
ATOM     18  C   UNL     1       5.853   3.743  13.869  0.00  0.00    +0.000 A 
ATOM     19  C   UNL     1       5.834   3.237  12.565  0.00  0.00    +0.000 A 
ATOM     20  C   UNL     1       6.728   3.723  11.612  0.00  0.00    +0.000 A 
ATOM     21  C   UNL     1       7.644   4.710  11.963  0.00  0.00    +0.000 A 
ATOM     22  C   UNL     1       7.660   5.217  13.264  0.00  0.00    +0.000 A 
ENDBRANCH  16  17
ENDBRANCH  14  15
ENDBRANCH  13  14
ENDBRANCH   4  13
TORSDOF 4
ENDMDL
MODEL 6
REMARK VINA RESULT:      -7.7      4.098      6.044
REMARK  Name = 
REMARK  4 active torsions:
REMARK  status: ('A' for Active; 'I' for Inactive)
REMARK    1  A    between atoms: C_4  and  O_5
REMARK    2  A    between atoms: O_5  and  C_6
REMARK    3  A    between atoms: C_6  and  C_7
REMARK    4  A    between atoms: C_8  and  C_9
REMARK                            x       y       z     vdW  Elec       q    Type
REMARK                         _______ _______ _______ _____ _____    ______ ____
ROOT
ATOM      1  O   UNL     1       5.344   3.434  15.728  0.00  0.00    +0.000 OA
ATOM      2  C   UNL     1       5.204   4.076  16.763  0.00  0.00    +0.000 A 
ATOM      3  N   UNL     1       6.157   4.937  17.237  0.00  0.00    +0.000 N 
ATOM      4  C   UNL     1       5.987   5.669  18.373  0.00  0.00    +0.000 A 
ATOM      5  N   UNL     1       4.934   5.630  19.110  0.00  0.00    +0.000 NA
ATOM      6  C   UNL     1       3.916   4.755  18.720  0.00  0.00    +0.000 A 
ATOM      7  N   UNL     1       2.859   4.720  19.560  0.00  0.00    +0.000 NA
ATOM      8  C   UNL     1       1.864   3.855  19.260  0.00  0.00    +0.000 A 
ATOM      9  C   UNL     1       1.868   3.022  18.151  0.00  0.00    +0.000 A 
ATOM     10  C   UNL     1       2.956   3.079  17.287  0.00  0.00    +0.000 A 
ATOM     11  C   UNL     1       3.994   3.960  17.585  0.00  0.00    +0.000 A 
ATOM     12  H   UNL     1       7.016   5.033  16.717  0.00  0.00    +0.000 HD
ENDROOT
BRANCH   4  13
ATOM     13  O   UNL     1       7.057   6.451  18.646  0.00  0.00    +0.000 OA
BRANCH  13  14
ATOM     14  C   UNL     1       7.423   7.366  17.597  0.00  0.00    +0.000 C 
BRANCH  14  15
ATOM     15  C   UNL     1       8.464   8.294  18.143  0.00  0.00    +0.000 C 
ATOM     16  C   UNL     1       8.340   9.632  18.193  0.00  0.00    +0.000 C 
BRANCH  16  17
ATOM     17  C   UNL     1       9.360  10.535  18.753  0.00  0.00    +0.000 A 
ATOM     18  C   UNL     1      10.268  11.169  17.892  0.00  0.00    +0.000 A 
ATOM     19  C   UNL     1      11.205  12.079  18.391  0.00  0.00    +0.000 A 
ATOM     20  C   UNL     1      11.243  12.368  19.754  0.00  0.00    +0.000 A 
ATOM     21  C   UNL     1      10.348  11.746  20.619  0.00  0.00    +0.000 A 
ATOM     22  C   UNL     1       9.409  10.841  20.119  0.00  0.00    +0.000 A 
ENDBRANCH  16  17
ENDBRANCH  14  15
ENDBRANCH  13  14
ENDBRANCH   4  13
TORSDOF 4
ENDMDL
MODEL 7
REMARK VINA RESULT:      -7.6      1.396      2.195
REMARK  Name = 
REMARK  4 active torsions:
REMARK  status: ('A' for Active; 'I' for Inactive)
REMARK    1  A    between atoms: C_4  and  O_5
REMARK    2  A    between atoms: O_5  and  C_6
REMARK    3  A    between atoms: C_6  and  C_7
REMARK    4  A    between atoms: C_8  and  C_9
REMARK                            x       y       z     vdW  Elec       q    Type
REMARK                         _______ _______ _______ _____ _____    ______ ____
ROOT
ATOM      1  O   UNL     1       3.369   1.591  19.084  0.00  0.00    +0.000 OA
ATOM      2  C   UNL     1       3.784   2.739  19.187  0.00  0.00    +0.000 A 
ATOM      3  N   UNL     1       5.077   3.090  18.901  0.00  0.00    +0.000 N 
ATOM      4  C   UNL     1       5.528   4.371  18.991  0.00  0.00    +0.000 A 
ATOM      5  N   UNL     1       4.804   5.372  19.349  0.00  0.00    +0.000 NA
ATOM      6  C   UNL     1       3.474   5.106  19.689  0.00  0.00    +0.000 A 
ATOM      7  N   UNL     1       2.779   6.186  20.106  0.00  0.00    +0.000 NA
ATOM      8  C   UNL     1       1.501   5.982  20.496  0.00  0.00    +0.000 A 
ATOM      9  C   UNL     1       0.874   4.745  20.483  0.00  0.00    +0.000 A 
ATOM     10  C   UNL     1       1.598   3.644  20.038  0.00  0.00    +0.000 A 
ATOM     11  C   UNL     1       2.920   3.835  19.639  0.00  0.00    +0.000 A 
ATOM     12  H   UNL     1       5.714   2.366  18.608  0.00  0.00    +0.000 HD
ENDROOT
BRANCH   4  13
ATOM     13  O   UNL     1       6.835   4.481  18.659  0.00  0.00    +0.000 OA
BRANCH  13  14
ATOM     14  C   UNL     1       7.227   5.768  18.148  0.00  0.00    +0.000 C 
BRANCH  14  15
ATOM     15  C   UNL     1       7.239   5.683  16.654  0.00  0.00    +0.000 C 
ATOM     16  C   UNL     1       6.886   4.591  15.951  0.00  0.00    +0.000 C 
BRANCH  16  17
ATOM     17  C   UNL     1       6.880   4.524  14.480  0.00  0.00    +0.000 A 
ATOM     18  C   UNL     1       7.714   5.381  13.747  0.00  0.00    +0.000 A 
ATOM     19  C   UNL     1       7.774   5.293  12.352  0.00  0.00    +0.000 A 
ATOM     20  C   UNL     1       7.005   4.348  11.676  0.00  0.00    +0.000 A 
ATOM     21  C   UNL     1       6.173   3.493  12.392  0.00  0.00    +0.000 A 
ATOM     22  C   UNL     1       6.118   3.577  13.785  0.00  0.00    +0.000 A 
ENDBRANCH  16  17
ENDBRANCH  14  15
ENDBRANCH  13  14
ENDBRANCH   4  13
TORSDOF 4
ENDMDL
MODEL 8
REMARK VINA RESULT:      -7.5      3.257      5.060
REMARK  Name = 
REMARK  4 active torsions:
REMARK  status: ('A' for Active; 'I' for Inactive)
REMARK    1  A    between atoms: C_4  and  O_5
REMARK    2  A    between atoms: O_5  and  C_6
REMARK    3  A    between atoms: C_6  and  C_7
REMARK    4  A    between atoms: C_8  and  C_9
REMARK                            x       y       z     vdW  Elec       q    Type
REMARK                         _______ _______ _______ _____ _____    ______ ____
ROOT
ATOM      1  O   UNL     1       2.523   6.774  19.081  0.00  0.00    +0.000 OA
ATOM      2  C   UNL     1       3.349   5.869  19.045  0.00  0.00    +0.000 A 
ATOM      3  N   UNL     1       4.695   6.086  19.164  0.00  0.00    +0.000 N 
ATOM      4  C   UNL     1       5.608   5.076  19.151  0.00  0.00    +0.000 A 
ATOM      5  N   UNL     1       5.309   3.831  19.028  0.00  0.00    +0.000 NA
ATOM      6  C   UNL     1       3.957   3.513  18.872  0.00  0.00    +0.000 A 
ATOM      7  N   UNL     1       3.711   2.197  18.695  0.00  0.00    +0.000 NA
ATOM      8  C   UNL     1       2.424   1.834  18.489  0.00  0.00    +0.000 A 
ATOM      9  C   UNL     1       1.363   2.726  18.458  0.00  0.00    +0.000 A 
ATOM     10  C   UNL     1       1.630   4.076  18.656  0.00  0.00    +0.000 A 
ATOM     11  C   UNL     1       2.951   4.468  18.862  0.00  0.00    +0.000 A 
ATOM     12  H   UNL     1       5.018   7.036  19.269  0.00  0.00    +0.000 HD
ENDROOT
BRANCH   4  13
ATOM     13  O   UNL     1       6.877   5.526  19.285  0.00  0.00    +0.000 OA
BRANCH  13  14
ATOM     14  C   UNL     1       7.464   6.052  18.082  0.00  0.00    +0.000 C 
BRANCH  14  15
ATOM     15  C   UNL     1       8.124   7.351  18.425  0.00  0.00    +0.000 C 
ATOM     16  C   UNL     1       7.808   8.536  17.869  0.00  0.00    +0.000 C 
BRANCH  16  17
ATOM     17  C   UNL     1       8.447   9.812  18.230  0.00  0.00    +0.000 A 
ATOM     18  C   UNL     1       9.324   9.861  19.324  0.00  0.00    +0.000 A 
ATOM     19  C   UNL     1       9.993  11.046  19.648  0.00  0.00    +0.000 A 
ATOM     20  C   UNL     1       9.796  12.193  18.881  0.00  0.00    +0.000 A 
ATOM     21  C   UNL     1       8.929  12.158  17.794  0.00  0.00    +0.000 A 
ATOM     22  C   UNL     1       8.265  10.973  17.467  0.00  0.00    +0.000 A 
ENDBRANCH  16  17
ENDBRANCH  14  15
ENDBRANCH  13  14
ENDBRANCH   4  13
TORSDOF 4
ENDMDL
MODEL 9
REMARK VINA RESULT:      -7.4      5.058      7.256
REMARK  Name = 
REMARK  4 active torsions:
REMARK  status: ('A' for Active; 'I' for Inactive)
REMARK    1  A    between atoms: C_4  and  O_5
REMARK    2  A    between atoms: O_5  and  C_6
REMARK    3  A    between atoms: C_6  and  C_7
REMARK    4  A    between atoms: C_8  and  C_9
REMARK                            x       y       z     vdW  Elec       q    Type
REMARK                         _______ _______ _______ _____ _____    ______ ____
ROOT
ATOM      1  O   UNL     1       6.712   5.249  14.847  0.00  0.00    +0.000 OA
ATOM      2  C   UNL     1       6.660   5.438  16.056  0.00  0.00    +0.000 A 
ATOM      3  N   UNL     1       7.469   6.334  16.703  0.00  0.00    +0.000 N 
ATOM      4  C   UNL     1       7.391   6.562  18.043  0.00  0.00    +0.000 A 
ATOM      5  N   UNL     1       6.564   5.971  18.831  0.00  0.00    +0.000 NA
ATOM      6  C   UNL     1       5.715   5.017  18.265  0.00  0.00    +0.000 A 
ATOM      7  N   UNL     1       4.907   4.394  19.150  0.00  0.00    +0.000 NA
ATOM      8  C   UNL     1       4.097   3.425  18.668  0.00  0.00    +0.000 A 
ATOM      9  C   UNL     1       4.047   3.049  17.334  0.00  0.00    +0.000 A 
ATOM     10  C   UNL     1       4.875   3.708  16.431  0.00  0.00    +0.000 A 
ATOM     11  C   UNL     1       5.722   4.705  16.913  0.00  0.00    +0.000 A 
ATOM     12  H   UNL     1       8.147   6.845  16.158  0.00  0.00    +0.000 HD
ENDROOT
BRANCH   4  13
ATOM     13  O   UNL     1       8.285   7.488  18.460  0.00  0.00    +0.000 OA
BRANCH  13  14
ATOM     14  C   UNL     1       8.237   8.741  17.754  0.00  0.00    +0.000 C 
BRANCH  14  15
ATOM     15  C   UNL     1       8.731   9.807  18.681  0.00  0.00    +0.000 C 
ATOM     16  C   UNL     1       9.330  10.944  18.283  0.00  0.00    +0.000 C 
BRANCH  16  17
ATOM     17  C   UNL     1       9.793  11.997  19.202  0.00  0.00    +0.000 A 
ATOM     18  C   UNL     1      10.355  13.171  18.680  0.00  0.00    +0.000 A 
ATOM     19  C   UNL     1      10.744  14.213  19.529  0.00  0.00    +0.000 A 
ATOM     20  C   UNL     1      10.572  14.095  20.907  0.00  0.00    +0.000 A 
ATOM     21  C   UNL     1      10.015  12.935  21.437  0.00  0.00    +0.000 A 
ATOM     22  C   UNL     1       9.623  11.898  20.589  0.00  0.00    +0.000 A 
ENDBRANCH  16  17
ENDBRANCH  14  15
ENDBRANCH  13  14
ENDBRANCH   4  13
TORSDOF 4
ENDMDL
