MODEL 1
REMARK VINA RESULT:      -7.2      0.000      0.000
REMARK  Name = 
REMARK  4 active torsions:
REMARK  status: ('A' for Active; 'I' for Inactive)
REMARK    1  A    between atoms: C_1  and  O_2
REMARK    2  A    between atoms: O_2  and  C_3
REMARK    3  A    between atoms: C_7  and  N_8
REMARK    4  A    between atoms: C_9  and  C_11
REMARK                            x       y       z     vdW  Elec       q    Type
REMARK                         _______ _______ _______ _____ _____    ______ ____
ROOT
ATOM      1  N   UNL     1       2.360   6.690  19.290  0.00  0.00    +0.000 N 
ATOM      2  C   UNL     1       2.168   7.943  18.726  0.00  0.00    +0.000 C 
ATOM      3  O   UNL     1       2.570   8.307  17.626  0.00  0.00    +0.000 OA
ATOM      4  H   UNL     1       1.805   6.438  20.098  0.00  0.00    +0.000 HD
ENDROOT
BRANCH   2   5
ATOM      5  C   UNL     1       1.362   8.934  19.489  0.00  0.00    +0.000 A 
ATOM      6  C   UNL     1       1.038  10.125  18.825  0.00  0.00    +0.000 A 
ATOM      7  C   UNL     1       0.418  11.190  19.483  0.00  0.00    +0.000 A 
ATOM      8  C   UNL     1       0.143  11.025  20.843  0.00  0.00    +0.000 A 
ATOM      9  S   UNL     1      -0.550  12.113  21.985  0.00  0.00    +0.000 S 
ATOM     10  N   UNL     1      -0.438  11.023  23.246  0.00  0.00    +0.000 NA
ATOM     11  N   UNL     1       0.093   9.868  22.886  0.00  0.00    +0.000 NA
ATOM     12  C   UNL     1       0.434   9.845  21.536  0.00  0.00    +0.000 A 
ATOM     13  C   UNL     1       1.048   8.773  20.846  0.00  0.00    +0.000 A 
ENDBRANCH   2   5
BRANCH   1  18
ATOM     14  C   UNL     1       5.323   4.570  18.516  0.00  0.00    +0.000 A 
ATOM     15  C   UNL     1       4.777   3.641  17.633  0.00  0.00    +0.000 A 
ATOM     16  C   UNL     1       3.438   3.721  17.272  0.00  0.00    +0.000 A 
ATOM     17  C   UNL     1       2.635   4.732  17.803  0.00  0.00    +0.000 A 
ATOM     18  C   UNL     1       3.155   5.664  18.711  0.00  0.00    +0.000 A 
ATOM     19  C   UNL     1       4.513   5.585  19.052  0.00  0.00    +0.000 A 
BRANCH  14  21
ATOM     20  C   UNL     1       7.576   4.689  17.740  0.00  0.00    +0.000 C 
ATOM     21  O   UNL     1       6.653   4.370  18.771  0.00  0.00    +0.000 OA
ENDBRANCH  14  21
ENDBRANCH   1  18
TORSDOF 3
ENDMDL
MODEL 2
REMARK VINA RESULT:      -7.1      1.168      1.637
REMARK  Name = 
REMARK  4 active torsions:
REMARK  status: ('A' for Active; 'I' for Inactive)
REMARK    1  A    between atoms: C_1  and  O_2
REMARK    2  A    between atoms: O_2  and  C_3
REMARK    3  A    between atoms: C_7  and  N_8
REMARK    4  A    between atoms: C_9  and  C_11
REMARK                            x       y       z     vdW  Elec       q    Type
REMARK                         _______ _______ _______ _____ _____    ______ ____
ROOT
ATOM      1  N   UNL     1       2.277   6.683  19.918  0.00  0.00    +0.000 N 
ATOM      2  C   UNL     1       1.946   7.936  19.421  0.00  0.00    +0.000 C 
ATOM      3  O   UNL     1       2.147   8.332  18.277  0.00  0.00    +0.000 OA
ATOM      4  H   UNL     1       1.873   6.396  20.801  0.00  0.00    +0.000 HD
ENDROOT
BRANCH   2   5
ATOM      5  C   UNL     1       1.241   8.881  20.327  0.00  0.00    +0.000 A 
ATOM      6  C   UNL     1       1.266   8.575  21.696  0.00  0.00    +0.000 A 
ATOM      7  C   UNL     1       0.516   9.300  22.625  0.00  0.00    +0.000 A 
ATOM      8  C   UNL     1      -0.274  10.342  22.134  0.00  0.00    +0.000 A 
ATOM      9  S   UNL     1      -1.358  11.405  22.948  0.00  0.00    +0.000 S 
ATOM     10  N   UNL     1      -1.776  12.216  21.549  0.00  0.00    +0.000 NA
ATOM     11  N   UNL     1      -1.160  11.751  20.477  0.00  0.00    +0.000 NA
ATOM     12  C   UNL     1      -0.310  10.690  20.780  0.00  0.00    +0.000 A 
ATOM     13  C   UNL     1       0.469   9.952  19.857  0.00  0.00    +0.000 A 
ENDBRANCH   2   5
BRANCH   1  18
ATOM     14  C   UNL     1       5.127   4.599  18.734  0.00  0.00    +0.000 A 
ATOM     15  C   UNL     1       4.495   3.754  17.824  0.00  0.00    +0.000 A 
ATOM     16  C   UNL     1       3.134   3.881  17.580  0.00  0.00    +0.000 A 
ATOM     17  C   UNL     1       2.394   4.853  18.256  0.00  0.00    +0.000 A 
ATOM     18  C   UNL     1       3.003   5.699  19.193  0.00  0.00    +0.000 A 
ATOM     19  C   UNL     1       4.382   5.576  19.416  0.00  0.00    +0.000 A 
BRANCH  14  21
ATOM     20  C   UNL     1       7.306   4.697  17.765  0.00  0.00    +0.000 C 
ATOM     21  O   UNL     1       6.470   4.362  18.862  0.00  0.00    +0.000 OA
ENDBRANCH  14  21
ENDBRANCH   1  18
TORSDOF 3
ENDMDL
MODEL 3
REMARK VINA RESULT:      -7.1      1.684      1.691
REMARK  Name = 
REMARK  4 active torsions:
REMARK  status: ('A' for Active; 'I' for Inactive)
REMARK    1  A    between atoms: C_1  and  O_2
REMARK    2  A    between atoms: O_2  and  C_3
REMARK    3  A    between atoms: C_7  and  N_8
REMARK    4  A    between atoms: C_9  and  C_11
REMARK                            x       y       z     vdW  Elec       q    Type
REMARK                         _______ _______ _______ _____ _____    ______ ____
ROOT
ATOM      1  N   UNL     1       2.846   7.246  18.265  0.00  0.00    +0.000 N 
ATOM      2  C   UNL     1       2.292   7.129  19.533  0.00  0.00    +0.000 C 
ATOM      3  O   UNL     1       2.438   6.182  20.297  0.00  0.00    +0.000 OA
ATOM      4  H   UNL     1       2.835   8.155  17.819  0.00  0.00    +0.000 HD
ENDROOT
BRANCH   2   5
ATOM      5  C   UNL     1       1.483   8.267  20.046  0.00  0.00    +0.000 A 
ATOM      6  C   UNL     1       1.212   9.304  19.141  0.00  0.00    +0.000 A 
ATOM      7  C   UNL     1       0.594  10.490  19.545  0.00  0.00    +0.000 A 
ATOM      8  C   UNL     1       0.266  10.609  20.898  0.00  0.00    +0.000 A 
ATOM      9  S   UNL     1      -0.441  11.918  21.767  0.00  0.00    +0.000 S 
ATOM     10  N   UNL     1      -0.402  11.106  23.226  0.00  0.00    +0.000 NA
ATOM     11  N   UNL     1       0.115   9.893  23.129  0.00  0.00    +0.000 NA
ATOM     12  C   UNL     1       0.503   9.591  21.827  0.00  0.00    +0.000 A 
ATOM     13  C   UNL     1       1.116   8.391  21.393  0.00  0.00    +0.000 A 
ENDBRANCH   2   5
BRANCH   1  18
ATOM     14  C   UNL     1       5.515   5.582  16.272  0.00  0.00    +0.000 A 
ATOM     15  C   UNL     1       5.125   4.246  16.344  0.00  0.00    +0.000 A 
ATOM     16  C   UNL     1       3.971   3.891  17.029  0.00  0.00    +0.000 A 
ATOM     17  C   UNL     1       3.204   4.875  17.656  0.00  0.00    +0.000 A 
ATOM     18  C   UNL     1       3.589   6.222  17.618  0.00  0.00    +0.000 A 
ATOM     19  C   UNL     1       4.745   6.571  16.905  0.00  0.00    +0.000 A 
BRANCH  14  21
ATOM     20  C   UNL     1       6.949   4.874  14.501  0.00  0.00    +0.000 C 
ATOM     21  O   UNL     1       6.666   5.780  15.556  0.00  0.00    +0.000 OA
ENDBRANCH  14  21
ENDBRANCH   1  18
TORSDOF 3
ENDMDL
MODEL 4
REMARK VINA RESULT:      -7.1      1.079      1.123
REMARK  Name = 
REMARK  4 active torsions:
REMARK  status: ('A' for Active; 'I' for Inactive)
REMARK    1  A    between atoms: C_1  and  O_2
REMARK    2  A    between atoms: O_2  and  C_3
REMARK    3  A    between atoms: C_7  and  N_8
REMARK    4  A    between atoms: C_9  and  C_11
REMARK                            x       y       z     vdW  Elec       q    Type
REMARK                         _______ _______ _______ _____ _____    ______ ____
ROOT
ATOM      1  N   UNL     1       2.514   7.049  18.924  0.00  0.00    +0.000 N 
ATOM      2  C   UNL     1       1.835   7.163  20.129  0.00  0.00    +0.000 C 
ATOM      3  O   UNL     1       1.765   6.302  21.000  0.00  0.00    +0.000 OA
ATOM      4  H   UNL     1       2.681   7.891  18.386  0.00  0.00    +0.000 HD
ENDROOT
BRANCH   2   5
ATOM      5  C   UNL     1       1.164   8.456  20.430  0.00  0.00    +0.000 A 
ATOM      6  C   UNL     1       1.189   9.427  19.419  0.00  0.00    +0.000 A 
ATOM      7  C   UNL     1       0.728  10.728  19.636  0.00  0.00    +0.000 A 
ATOM      8  C   UNL     1       0.248  11.030  20.913  0.00  0.00    +0.000 A 
ATOM      9  S   UNL     1      -0.341  12.511  21.566  0.00  0.00    +0.000 S 
ATOM     10  N   UNL     1      -0.629  11.850  23.073  0.00  0.00    +0.000 NA
ATOM     11  N   UNL     1      -0.311  10.570  23.146  0.00  0.00    +0.000 NA
ATOM     12  C   UNL     1       0.190  10.084  21.942  0.00  0.00    +0.000 A 
ATOM     13  C   UNL     1       0.649   8.768  21.696  0.00  0.00    +0.000 A 
ENDBRANCH   2   5
BRANCH   1  18
ATOM     14  C   UNL     1       5.174   4.518  18.303  0.00  0.00    +0.000 A 
ATOM     15  C   UNL     1       4.461   3.522  17.638  0.00  0.00    +0.000 A 
ATOM     16  C   UNL     1       3.108   3.690  17.371  0.00  0.00    +0.000 A 
ATOM     17  C   UNL     1       2.459   4.856  17.779  0.00  0.00    +0.000 A 
ATOM     18  C   UNL     1       3.149   5.860  18.471  0.00  0.00    +0.000 A 
ATOM     19  C   UNL     1       4.519   5.690  18.716  0.00  0.00    +0.000 A 
BRANCH  14  21
ATOM     20  C   UNL     1       7.454   5.004  17.794  0.00  0.00    +0.000 C 
ATOM     21  O   UNL     1       6.497   4.216  18.486  0.00  0.00    +0.000 OA
ENDBRANCH  14  21
ENDBRANCH   1  18
TORSDOF 3
ENDMDL
MODEL 5
REMARK VINA RESULT:      -6.9      3.716      7.782
REMARK  Name = 
REMARK  4 active torsions:
REMARK  status: ('A' for Active; 'I' for Inactive)
REMARK    1  A    between atoms: C_1  and  O_2
REMARK    2  A    between atoms: O_2  and  C_3
REMARK    3  A    between atoms: C_7  and  N_8
REMARK    4  A    between atoms: C_9  and  C_11
REMARK                            x       y       z     vdW  Elec       q    Type
REMARK                         _______ _______ _______ _____ _____    ______ ____
ROOT
ATOM      1  N   UNL     1       2.119   8.517  18.645  0.00  0.00    +0.000 N 
ATOM      2  C   UNL     1       2.405   7.271  19.188  0.00  0.00    +0.000 C 
ATOM      3  O   UNL     1       1.772   6.712  20.077  0.00  0.00    +0.000 OA
ATOM      4  H   UNL     1       2.574   8.778  17.779  0.00  0.00    +0.000 HD
ENDROOT
BRANCH   2   5
ATOM      5  C   UNL     1       3.550   6.511  18.620  0.00  0.00    +0.000 A 
ATOM      6  C   UNL     1       4.091   5.497  19.423  0.00  0.00    +0.000 A 
ATOM      7  C   UNL     1       5.258   4.818  19.065  0.00  0.00    +0.000 A 
ATOM      8  C   UNL     1       5.877   5.200  17.872  0.00  0.00    +0.000 A 
ATOM      9  S   UNL     1       7.334   4.644  17.139  0.00  0.00    +0.000 S 
ATOM     10  N   UNL     1       7.194   5.680  15.836  0.00  0.00    +0.000 NA
ATOM     11  N   UNL     1       6.116   6.442  15.893  0.00  0.00    +0.000 NA
ATOM     12  C   UNL     1       5.359   6.193  17.035  0.00  0.00    +0.000 A 
ATOM     13  C   UNL     1       4.167   6.858  17.410  0.00  0.00    +0.000 A 
ENDBRANCH   2   5
BRANCH   1  18
ATOM     14  C   UNL     1       0.128  10.635  20.972  0.00  0.00    +0.000 A 
ATOM     15  C   UNL     1      -0.866  11.121  20.125  0.00  0.00    +0.000 A 
ATOM     16  C   UNL     1      -0.899  10.736  18.791  0.00  0.00    +0.000 A 
ATOM     17  C   UNL     1       0.074   9.866  18.295  0.00  0.00    +0.000 A 
ATOM     18  C   UNL     1       1.098   9.383  19.122  0.00  0.00    +0.000 A 
ATOM     19  C   UNL     1       1.108   9.762  20.472  0.00  0.00    +0.000 A 
BRANCH  14  21
ATOM     20  C   UNL     1      -0.913  10.457  23.112  0.00  0.00    +0.000 C 
ATOM     21  O   UNL     1       0.025  11.094  22.258  0.00  0.00    +0.000 OA
ENDBRANCH  14  21
ENDBRANCH   1  18
TORSDOF 3
ENDMDL
MODEL 6
REMARK VINA RESULT:      -6.9      1.288      1.288
REMARK  Name = 
REMARK  4 active torsions:
REMARK  status: ('A' for Active; 'I' for Inactive)
REMARK    1  A    between atoms: C_1  and  O_2
REMARK    2  A    between atoms: O_2  and  C_3
REMARK    3  A    between atoms: C_7  and  N_8
REMARK    4  A    between atoms: C_9  and  C_11
REMARK                            x       y       z     vdW  Elec       q    Type
REMARK                         _______ _______ _______ _____ _____    ______ ____
ROOT
ATOM      1  N   UNL     1       2.413   6.791  18.655  0.00  0.00    +0.000 N 
ATOM      2  C   UNL     1       2.140   8.111  18.321  0.00  0.00    +0.000 C 
ATOM      3  O   UNL     1       2.495   8.681  17.295  0.00  0.00    +0.000 OA
ATOM      4  H   UNL     1       1.893   6.372  19.415  0.00  0.00    +0.000 HD
ENDROOT
BRANCH   2   5
ATOM      5  C   UNL     1       1.303   8.906  19.257  0.00  0.00    +0.000 A 
ATOM      6  C   UNL     1       0.637  10.016  18.717  0.00  0.00    +0.000 A 
ATOM      7  C   UNL     1      -0.054  10.923  19.523  0.00  0.00    +0.000 A 
ATOM      8  C   UNL     1      -0.046  10.688  20.901  0.00  0.00    +0.000 A 
ATOM      9  S   UNL     1      -0.726  11.598  22.196  0.00  0.00    +0.000 S 
ATOM     10  N   UNL     1      -0.180  10.537  23.364  0.00  0.00    +0.000 NA
ATOM     11  N   UNL     1       0.497   9.519  22.863  0.00  0.00    +0.000 NA
ATOM     12  C   UNL     1       0.590   9.583  21.475  0.00  0.00    +0.000 A 
ATOM     13  C   UNL     1       1.272   8.668  20.639  0.00  0.00    +0.000 A 
ENDBRANCH   2   5
BRANCH   1  18
ATOM     14  C   UNL     1       5.241   5.632  16.527  0.00  0.00    +0.000 A 
ATOM     15  C   UNL     1       4.957   4.274  16.402  0.00  0.00    +0.000 A 
ATOM     16  C   UNL     1       3.822   3.738  16.998  0.00  0.00    +0.000 A 
ATOM     17  C   UNL     1       2.969   4.563  17.733  0.00  0.00    +0.000 A 
ATOM     18  C   UNL     1       3.246   5.927  17.893  0.00  0.00    +0.000 A 
ATOM     19  C   UNL     1       4.383   6.461  17.269  0.00  0.00    +0.000 A 
BRANCH  14  21
ATOM     20  C   UNL     1       7.077   5.031  15.126  0.00  0.00    +0.000 C 
ATOM     21  O   UNL     1       6.385   6.016  15.879  0.00  0.00    +0.000 OA
ENDBRANCH  14  21
ENDBRANCH   1  18
TORSDOF 3
ENDMDL
MODEL 7
REMARK VINA RESULT:      -6.9      1.206      1.222
REMARK  Name = 
REMARK  4 active torsions:
REMARK  status: ('A' for Active; 'I' for Inactive)
REMARK    1  A    between atoms: C_1  and  O_2
REMARK    2  A    between atoms: O_2  and  C_3
REMARK    3  A    between atoms: C_7  and  N_8
REMARK    4  A    between atoms: C_9  and  C_11
REMARK                            x       y       z     vdW  Elec       q    Type
REMARK                         _______ _______ _______ _____ _____    ______ ____
ROOT
ATOM      1  N   UNL     1       2.156   6.342  20.385  0.00  0.00    +0.000 N 
ATOM      2  C   UNL     1       2.124   7.505  19.627  0.00  0.00    +0.000 C 
ATOM      3  O   UNL     1       2.681   7.676  18.548  0.00  0.00    +0.000 OA
ATOM      4  H   UNL     1       1.491   6.245  21.142  0.00  0.00    +0.000 HD
ENDROOT
BRANCH   2   5
ATOM      5  C   UNL     1       1.309   8.641  20.131  0.00  0.00    +0.000 A 
ATOM      6  C   UNL     1       1.082   9.698  19.237  0.00  0.00    +0.000 A 
ATOM      7  C   UNL     1       0.462  10.883  19.639  0.00  0.00    +0.000 A 
ATOM      8  C   UNL     1       0.083  10.981  20.981  0.00  0.00    +0.000 A 
ATOM      9  S   UNL     1      -0.643  12.281  21.847  0.00  0.00    +0.000 S 
ATOM     10  N   UNL     1      -0.667  11.441  23.290  0.00  0.00    +0.000 NA
ATOM     11  N   UNL     1      -0.160  10.225  23.190  0.00  0.00    +0.000 NA
ATOM     12  C   UNL     1       0.275   9.943  21.898  0.00  0.00    +0.000 A 
ATOM     13  C   UNL     1       0.892   8.745  21.466  0.00  0.00    +0.000 A 
ENDBRANCH   2   5
BRANCH   1  18
ATOM     14  C   UNL     1       5.028   4.275  19.224  0.00  0.00    +0.000 A 
ATOM     15  C   UNL     1       4.550   2.985  19.443  0.00  0.00    +0.000 A 
ATOM     16  C   UNL     1       3.272   2.790  19.952  0.00  0.00    +0.000 A 
ATOM     17  C   UNL     1       2.469   3.891  20.254  0.00  0.00    +0.000 A 
ATOM     18  C   UNL     1       2.937   5.198  20.065  0.00  0.00    +0.000 A 
ATOM     19  C   UNL     1       4.220   5.383  19.531  0.00  0.00    +0.000 A 
BRANCH  14  21
ATOM     20  C   UNL     1       7.038   5.512  18.866  0.00  0.00    +0.000 C 
ATOM     21  O   UNL     1       6.298   4.310  18.711  0.00  0.00    +0.000 OA
ENDBRANCH  14  21
ENDBRANCH   1  18
TORSDOF 3
ENDMDL
MODEL 8
REMARK VINA RESULT:      -6.9      3.788      7.879
REMARK  Name = 
REMARK  4 active torsions:
REMARK  status: ('A' for Active; 'I' for Inactive)
REMARK    1  A    between atoms: C_1  and  O_2
REMARK    2  A    between atoms: O_2  and  C_3
REMARK    3  A    between atoms: C_7  and  N_8
REMARK    4  A    between atoms: C_9  and  C_11
REMARK                            x       y       z     vdW  Elec       q    Type
REMARK                         _______ _______ _______ _____ _____    ______ ____
ROOT
ATOM      1  N   UNL     1       2.179   7.996  19.067  0.00  0.00    +0.000 N 
ATOM      2  C   UNL     1       2.434   6.632  19.121  0.00  0.00    +0.000 C 
ATOM      3  O   UNL     1       1.938   5.839  19.914  0.00  0.00    +0.000 OA
ATOM      4  H   UNL     1       2.477   8.506  18.245  0.00  0.00    +0.000 HD
ENDROOT
BRANCH   2   5
ATOM      5  C   UNL     1       3.354   6.056  18.105  0.00  0.00    +0.000 A 
ATOM      6  C   UNL     1       3.138   4.716  17.750  0.00  0.00    +0.000 A 
ATOM      7  C   UNL     1       4.024   4.022  16.923  0.00  0.00    +0.000 A 
ATOM      8  C   UNL     1       5.150   4.715  16.470  0.00  0.00    +0.000 A 
ATOM      9  S   UNL     1       6.472   4.189  15.498  0.00  0.00    +0.000 S 
ATOM     10  N   UNL     1       7.230   5.677  15.545  0.00  0.00    +0.000 NA
ATOM     11  N   UNL     1       6.566   6.575  16.250  0.00  0.00    +0.000 NA
ATOM     12  C   UNL     1       5.391   6.056  16.787  0.00  0.00    +0.000 A 
ATOM     13  C   UNL     1       4.472   6.745  17.614  0.00  0.00    +0.000 A 
ENDBRANCH   2   5
BRANCH   1  18
ATOM     14  C   UNL     1      -0.333  10.382  20.430  0.00  0.00    +0.000 A 
ATOM     15  C   UNL     1      -0.275  10.101  21.793  0.00  0.00    +0.000 A 
ATOM     16  C   UNL     1       0.608   9.142  22.272  0.00  0.00    +0.000 A 
ATOM     17  C   UNL     1       1.432   8.450  21.382  0.00  0.00    +0.000 A 
ATOM     18  C   UNL     1       1.374   8.698  20.004  0.00  0.00    +0.000 A 
ATOM     19  C   UNL     1       0.494   9.684  19.535  0.00  0.00    +0.000 A 
BRANCH  14  21
ATOM     20  C   UNL     1      -1.685  11.425  18.762  0.00  0.00    +0.000 C 
ATOM     21  O   UNL     1      -1.242  11.356  20.109  0.00  0.00    +0.000 OA
ENDBRANCH  14  21
ENDBRANCH   1  18
TORSDOF 3
ENDMDL
MODEL 9
REMARK VINA RESULT:      -6.9      2.225      2.841
REMARK  Name = 
REMARK  4 active torsions:
REMARK  status: ('A' for Active; 'I' for Inactive)
REMARK    1  A    between atoms: C_1  and  O_2
REMARK    2  A    between atoms: O_2  and  C_3
REMARK    3  A    between atoms: C_7  and  N_8
REMARK    4  A    between atoms: C_9  and  C_11
REMARK                            x       y       z     vdW  Elec       q    Type
REMARK                         _______ _______ _______ _____ _____    ______ ____
ROOT
ATOM      1  N   UNL     1       4.450   6.979  17.838  0.00  0.00    +0.000 N 
ATOM      2  C   UNL     1       3.158   6.611  18.187  0.00  0.00    +0.000 C 
ATOM      3  O   UNL     1       2.684   5.483  18.106  0.00  0.00    +0.000 OA
ATOM      4  H   UNL     1       4.792   7.880  18.147  0.00  0.00    +0.000 HD
ENDROOT
BRANCH   2   5
ATOM      5  C   UNL     1       2.267   7.657  18.757  0.00  0.00    +0.000 A 
ATOM      6  C   UNL     1       1.841   8.666  17.880  0.00  0.00    +0.000 A 
ATOM      7  C   UNL     1       1.129   9.780  18.331  0.00  0.00    +0.000 A 
ATOM      8  C   UNL     1       0.866   9.857  19.701  0.00  0.00    +0.000 A 
ATOM      9  S   UNL     1       0.078  11.082  20.622  0.00  0.00    +0.000 S 
ATOM     10  N   UNL     1       0.281  10.269  22.067  0.00  0.00    +0.000 NA
ATOM     11  N   UNL     1       0.912   9.116  21.928  0.00  0.00    +0.000 NA
ATOM     12  C   UNL     1       1.257   8.863  20.604  0.00  0.00    +0.000 A 
ATOM     13  C   UNL     1       1.964   7.735  20.124  0.00  0.00    +0.000 A 
ENDBRANCH   2   5
BRANCH   1  18
ATOM     14  C   UNL     1       6.330   5.153  15.193  0.00  0.00    +0.000 A 
ATOM     15  C   UNL     1       7.253   4.435  15.951  0.00  0.00    +0.000 A 
ATOM     16  C   UNL     1       7.245   4.531  17.337  0.00  0.00    +0.000 A 
ATOM     17  C   UNL     1       6.315   5.358  17.970  0.00  0.00    +0.000 A 
ATOM     18  C   UNL     1       5.393   6.108  17.228  0.00  0.00    +0.000 A 
ATOM     19  C   UNL     1       5.397   5.987  15.831  0.00  0.00    +0.000 A 
BRANCH  14  21
ATOM     20  C   UNL     1       6.132   3.664  13.338  0.00  0.00    +0.000 C 
ATOM     21  O   UNL     1       6.453   4.951  13.843  0.00  0.00    +0.000 OA
ENDBRANCH  14  21
ENDBRANCH   1  18
TORSDOF 3
ENDMDL
