MODEL 1
REMARK VINA RESULT:      -8.4      0.000      0.000
REMARK  Name = 
REMARK  15 active torsions:
REMARK  status: ('A' for Active; 'I' for Inactive)
REMARK    1  A    between atoms: C_1  and  C_2
REMARK    2  A    between atoms: C_2  and  C_3
REMARK    3  A    between atoms: C_2  and  C_4
REMARK    4  A    between atoms: C_2  and  C_5
REMARK    5  A    between atoms: C_8  and  C_9
REMARK    6  A    between atoms: C_9  and  N_10
REMARK    7  A    between atoms: N_10  and  C_11
REMARK    8  A    between atoms: N_10  and  S_24
REMARK    9  A    between atoms: C_11  and  C_12
REMARK   10  A    between atoms: C_16  and  N_17
REMARK   11  A    between atoms: N_17  and  C_18
REMARK   12  A    between atoms: C_18  and  C_19
REMARK   13  A    between atoms: C_19  and  C_20
REMARK   14  A    between atoms: C_20  and  O_22
REMARK   15  A    between atoms: S_24  and  C_27
REMARK                            x       y       z     vdW  Elec       q    Type
REMARK                         _______ _______ _______ _____ _____    ______ ____
ROOT
ATOM      1  N   UNL     1       3.451   5.158  17.317  0.00  0.00    +0.000 NA
ENDROOT
BRANCH   1   2
ATOM      2  S   UNL     1       2.239   3.903  17.463  0.00  0.00    +0.000 S 
ATOM      3  O   UNL     1       0.930   4.466  17.258  0.00  0.00    +0.000 OA
ATOM      4  O   UNL     1       2.714   2.779  16.681  0.00  0.00    +0.000 OA
BRANCH   2   5
ATOM      5  C   UNL     1       2.287   3.424  19.150  0.00  0.00    +0.000 A 
ATOM      6  C   UNL     1       1.232   3.705  20.019  0.00  0.00    +0.000 A 
ATOM      7  C   UNL     1       1.336   3.310  21.349  0.00  0.00    +0.000 A 
ATOM      8  C   UNL     1       2.490   2.651  21.747  0.00  0.00    +0.000 A 
ATOM      9  N   UNL     1       3.527   2.378  20.921  0.00  0.00    +0.000 NA
ATOM     10  C   UNL     1       3.412   2.782  19.635  0.00  0.00    +0.000 A 
ENDBRANCH   2   5
ENDBRANCH   1   2
BRANCH   1  11
ATOM     11  C   UNL     1       3.548   5.984  18.563  0.00  0.00    +0.000 C 
BRANCH  11  15
ATOM     12  C   UNL     1       1.145   9.548  19.300  0.00  0.00    +0.000 A 
ATOM     13  C   UNL     1       1.338   8.585  20.307  0.00  0.00    +0.000 A 
ATOM     14  C   UNL     1       2.017   7.376  20.061  0.00  0.00    +0.000 A 
ATOM     15  C   UNL     1       2.523   7.084  18.789  0.00  0.00    +0.000 A 
ATOM     16  C   UNL     1       2.238   7.987  17.754  0.00  0.00    +0.000 A 
ATOM     17  C   UNL     1       1.558   9.190  18.004  0.00  0.00    +0.000 A 
BRANCH  12  19
ATOM     18  C   UNL     1       0.625  11.365  21.075  0.00  0.00    +0.000 C 
ATOM     19  C   UNL     1       0.592  10.964  19.580  0.00  0.00    +0.000 C 
ATOM     20  C   UNL     1      -0.873  11.093  19.115  0.00  0.00    +0.000 C 
ATOM     21  C   UNL     1       1.444  12.015  18.827  0.00  0.00    +0.000 C 
ENDBRANCH  12  19
ENDBRANCH  11  15
ENDBRANCH   1  11
BRANCH   1  22
ATOM     22  C   UNL     1       4.797   4.545  16.966  0.00  0.00    +0.000 C 
BRANCH  22  23
ATOM     23  C   UNL     1       6.006   5.246  17.580  0.00  0.00    +0.000 A 
ATOM     24  C   UNL     1       6.510   4.750  18.781  0.00  0.00    +0.000 A 
ATOM     25  C   UNL     1       7.488   5.475  19.439  0.00  0.00    +0.000 A 
ATOM     26  C   UNL     1       7.959   6.646  18.859  0.00  0.00    +0.000 A 
ATOM     27  C   UNL     1       7.441   7.081  17.639  0.00  0.00    +0.000 A 
ATOM     28  N   UNL     1       6.472   6.394  16.995  0.00  0.00    +0.000 NA
BRANCH  27  29
ATOM     29  N   UNL     1       7.976   8.281  17.145  0.00  0.00    +0.000 N 
ATOM     30  H   UNL     1       7.735   8.364  16.161  0.00  0.00    +0.000 HD
BRANCH  29  31
ATOM     31  C   UNL     1       7.747   9.504  17.899  0.00  0.00    +0.000 C 
BRANCH  31  32
ATOM     32  C   UNL     1       9.109  10.047  18.324  0.00  0.00    +0.000 C 
BRANCH  32  33
ATOM     33  C   UNL     1       9.159  11.535  18.138  0.00  0.00    +0.000 C 
ATOM     34  O   UNL     1       8.338  12.167  17.493  0.00  0.00    +0.000 OA
BRANCH  33  35
ATOM     35  O   UNL     1      10.202  12.126  18.762  0.00  0.00    +0.000 OA
ATOM     36  H   UNL     1      10.082  12.240  19.726  0.00  0.00    +0.000 HD
ENDBRANCH  33  35
ENDBRANCH  32  33
ENDBRANCH  31  32
ENDBRANCH  29  31
ENDBRANCH  27  29
ENDBRANCH  22  23
ENDBRANCH   1  22
TORSDOF 12
ENDMDL
MODEL 2
REMARK VINA RESULT:      -8.3      0.822      1.557
REMARK  Name = 
REMARK  15 active torsions:
REMARK  status: ('A' for Active; 'I' for Inactive)
REMARK    1  A    between atoms: C_1  and  C_2
REMARK    2  A    between atoms: C_2  and  C_3
REMARK    3  A    between atoms: C_2  and  C_4
REMARK    4  A    between atoms: C_2  and  C_5
REMARK    5  A    between atoms: C_8  and  C_9
REMARK    6  A    between atoms: C_9  and  N_10
REMARK    7  A    between atoms: N_10  and  C_11
REMARK    8  A    between atoms: N_10  and  S_24
REMARK    9  A    between atoms: C_11  and  C_12
REMARK   10  A    between atoms: C_16  and  N_17
REMARK   11  A    between atoms: N_17  and  C_18
REMARK   12  A    between atoms: C_18  and  C_19
REMARK   13  A    between atoms: C_19  and  C_20
REMARK   14  A    between atoms: C_20  and  O_22
REMARK   15  A    between atoms: S_24  and  C_27
REMARK                            x       y       z     vdW  Elec       q    Type
REMARK                         _______ _______ _______ _____ _____    ______ ____
ROOT
ATOM      1  N   UNL     1       3.427   5.162  17.358  0.00  0.00    +0.000 NA
ENDROOT
BRANCH   1   2
ATOM      2  S   UNL     1       2.246   3.875  17.462  0.00  0.00    +0.000 S 
ATOM      3  O   UNL     1       0.930   4.400  17.205  0.00  0.00    +0.000 OA
ATOM      4  O   UNL     1       2.782   2.762  16.703  0.00  0.00    +0.000 OA
BRANCH   2   5
ATOM      5  C   UNL     1       2.242   3.401  19.151  0.00  0.00    +0.000 A 
ATOM      6  C   UNL     1       3.340   2.768  19.734  0.00  0.00    +0.000 A 
ATOM      7  C   UNL     1       3.271   2.405  21.076  0.00  0.00    +0.000 A 
ATOM      8  C   UNL     1       2.107   2.695  21.772  0.00  0.00    +0.000 A 
ATOM      9  N   UNL     1       1.029   3.301  21.222  0.00  0.00    +0.000 NA
ATOM     10  C   UNL     1       1.111   3.633  19.912  0.00  0.00    +0.000 A 
ENDBRANCH   2   5
ENDBRANCH   1   2
BRANCH   1  11
ATOM     11  C   UNL     1       3.589   5.874  18.666  0.00  0.00    +0.000 C 
BRANCH  11  15
ATOM     12  C   UNL     1       1.092   9.433  19.003  0.00  0.00    +0.000 A 
ATOM     13  C   UNL     1       1.918   9.233  17.882  0.00  0.00    +0.000 A 
ATOM     14  C   UNL     1       2.813   8.148  17.802  0.00  0.00    +0.000 A 
ATOM     15  C   UNL     1       2.917   7.226  18.848  0.00  0.00    +0.000 A 
ATOM     16  C   UNL     1       2.179   7.480  20.013  0.00  0.00    +0.000 A 
ATOM     17  C   UNL     1       1.291   8.564  20.091  0.00  0.00    +0.000 A 
BRANCH  12  19
ATOM     18  C   UNL     1      -1.158  10.237  17.994  0.00  0.00    +0.000 C 
ATOM     19  C   UNL     1      -0.042  10.483  19.039  0.00  0.00    +0.000 C 
ATOM     20  C   UNL     1       0.505  11.902  18.782  0.00  0.00    +0.000 C 
ATOM     21  C   UNL     1      -0.729  10.462  20.426  0.00  0.00    +0.000 C 
ENDBRANCH  12  19
ENDBRANCH  11  15
ENDBRANCH   1  11
BRANCH   1  22
ATOM     22  C   UNL     1       4.758   4.612  16.871  0.00  0.00    +0.000 C 
BRANCH  22  23
ATOM     23  C   UNL     1       5.992   5.324  17.420  0.00  0.00    +0.000 A 
ATOM     24  C   UNL     1       6.730   4.681  18.412  0.00  0.00    +0.000 A 
ATOM     25  C   UNL     1       7.743   5.382  19.043  0.00  0.00    +0.000 A 
ATOM     26  C   UNL     1       8.011   6.683  18.637  0.00  0.00    +0.000 A 
ATOM     27  C   UNL     1       7.261   7.268  17.617  0.00  0.00    +0.000 A 
ATOM     28  N   UNL     1       6.256   6.602  17.006  0.00  0.00    +0.000 NA
BRANCH  27  29
ATOM     29  N   UNL     1       7.603   8.589  17.291  0.00  0.00    +0.000 N 
ATOM     30  H   UNL     1       6.763   9.080  16.994  0.00  0.00    +0.000 HD
BRANCH  29  31
ATOM     31  C   UNL     1       8.412   9.349  18.232  0.00  0.00    +0.000 C 
BRANCH  31  32
ATOM     32  C   UNL     1       8.409  10.805  17.775  0.00  0.00    +0.000 C 
BRANCH  32  33
ATOM     33  C   UNL     1       9.702  11.471  18.143  0.00  0.00    +0.000 C 
ATOM     34  O   UNL     1      10.118  12.488  17.610  0.00  0.00    +0.000 OA
BRANCH  33  35
ATOM     35  O   UNL     1      10.372  10.846  19.136  0.00  0.00    +0.000 OA
ATOM     36  H   UNL     1      11.151  10.336  18.837  0.00  0.00    +0.000 HD
ENDBRANCH  33  35
ENDBRANCH  32  33
ENDBRANCH  31  32
ENDBRANCH  29  31
ENDBRANCH  27  29
ENDBRANCH  22  23
ENDBRANCH   1  22
TORSDOF 12
ENDMDL
MODEL 3
REMARK VINA RESULT:      -8.1      1.462      1.906
REMARK  Name = 
REMARK  15 active torsions:
REMARK  status: ('A' for Active; 'I' for Inactive)
REMARK    1  A    between atoms: C_1  and  C_2
REMARK    2  A    between atoms: C_2  and  C_3
REMARK    3  A    between atoms: C_2  and  C_4
REMARK    4  A    between atoms: C_2  and  C_5
REMARK    5  A    between atoms: C_8  and  C_9
REMARK    6  A    between atoms: C_9  and  N_10
REMARK    7  A    between atoms: N_10  and  C_11
REMARK    8  A    between atoms: N_10  and  S_24
REMARK    9  A    between atoms: C_11  and  C_12
REMARK   10  A    between atoms: C_16  and  N_17
REMARK   11  A    between atoms: N_17  and  C_18
REMARK   12  A    between atoms: C_18  and  C_19
REMARK   13  A    between atoms: C_19  and  C_20
REMARK   14  A    between atoms: C_20  and  O_22
REMARK   15  A    between atoms: S_24  and  C_27
REMARK                            x       y       z     vdW  Elec       q    Type
REMARK                         _______ _______ _______ _____ _____    ______ ____
ROOT
ATOM      1  N   UNL     1       4.150   5.270  17.566  0.00  0.00    +0.000 NA
ENDROOT
BRANCH   1   2
ATOM      2  S   UNL     1       4.269   3.621  18.142  0.00  0.00    +0.000 S 
ATOM      3  O   UNL     1       4.355   2.720  17.023  0.00  0.00    +0.000 OA
ATOM      4  O   UNL     1       5.268   3.625  19.194  0.00  0.00    +0.000 OA
BRANCH   2   5
ATOM      5  C   UNL     1       2.719   3.292  18.895  0.00  0.00    +0.000 A 
ATOM      6  C   UNL     1       2.495   3.550  20.247  0.00  0.00    +0.000 A 
ATOM      7  C   UNL     1       1.247   3.256  20.789  0.00  0.00    +0.000 A 
ATOM      8  C   UNL     1       0.282   2.718  19.950  0.00  0.00    +0.000 A 
ATOM      9  N   UNL     1       0.483   2.453  18.639  0.00  0.00    +0.000 NA
ATOM     10  C   UNL     1       1.708   2.734  18.135  0.00  0.00    +0.000 A 
ENDBRANCH   2   5
ENDBRANCH   1   2
BRANCH   1  11
ATOM     11  C   UNL     1       4.079   6.249  18.697  0.00  0.00    +0.000 C 
BRANCH  11  15
ATOM     12  C   UNL     1       1.145   9.453  19.077  0.00  0.00    +0.000 A 
ATOM     13  C   UNL     1       1.280   8.474  20.078  0.00  0.00    +0.000 A 
ATOM     14  C   UNL     1       2.142   7.370  19.928  0.00  0.00    +0.000 A 
ATOM     15  C   UNL     1       2.897   7.204  18.762  0.00  0.00    +0.000 A 
ATOM     16  C   UNL     1       2.686   8.114  17.716  0.00  0.00    +0.000 A 
ATOM     17  C   UNL     1       1.822   9.211  17.868  0.00  0.00    +0.000 A 
BRANCH  12  19
ATOM     18  C   UNL     1      -0.988  10.832  18.555  0.00  0.00    +0.000 C 
ATOM     19  C   UNL     1       0.374  10.776  19.289  0.00  0.00    +0.000 C 
ATOM     20  C   UNL     1       1.196  11.985  18.797  0.00  0.00    +0.000 C 
ATOM     21  C   UNL     1       0.068  10.966  20.795  0.00  0.00    +0.000 C 
ENDBRANCH  12  19
ENDBRANCH  11  15
ENDBRANCH   1  11
BRANCH   1  22
ATOM     22  C   UNL     1       5.317   5.587  16.645  0.00  0.00    +0.000 C 
BRANCH  22  23
ATOM     23  C   UNL     1       6.514   6.248  17.324  0.00  0.00    +0.000 A 
ATOM     24  C   UNL     1       7.222   5.507  18.268  0.00  0.00    +0.000 A 
ATOM     25  C   UNL     1       8.195   6.144  19.018  0.00  0.00    +0.000 A 
ATOM     26  C   UNL     1       8.457   7.486  18.773  0.00  0.00    +0.000 A 
ATOM     27  C   UNL     1       7.739   8.173  17.794  0.00  0.00    +0.000 A 
ATOM     28  N   UNL     1       6.772   7.568  17.068  0.00  0.00    +0.000 NA
BRANCH  27  29
ATOM     29  N   UNL     1       8.071   9.528  17.634  0.00  0.00    +0.000 N 
ATOM     30  H   UNL     1       7.223  10.049  17.428  0.00  0.00    +0.000 HD
BRANCH  29  31
ATOM     31  C   UNL     1       8.906  10.161  18.643  0.00  0.00    +0.000 C 
BRANCH  31  32
ATOM     32  C   UNL     1       9.570  11.375  17.999  0.00  0.00    +0.000 C 
BRANCH  32  33
ATOM     33  C   UNL     1      10.993  11.498  18.457  0.00  0.00    +0.000 C 
ATOM     34  O   UNL     1      11.331  11.493  19.631  0.00  0.00    +0.000 OA
BRANCH  33  35
ATOM     35  O   UNL     1      11.882  11.607  17.446  0.00  0.00    +0.000 OA
ATOM     36  H   UNL     1      11.480  11.784  16.573  0.00  0.00    +0.000 HD
ENDBRANCH  33  35
ENDBRANCH  32  33
ENDBRANCH  31  32
ENDBRANCH  29  31
ENDBRANCH  27  29
ENDBRANCH  22  23
ENDBRANCH   1  22
TORSDOF 12
ENDMDL
MODEL 4
REMARK VINA RESULT:      -8.1      0.614      1.094
REMARK  Name = 
REMARK  15 active torsions:
REMARK  status: ('A' for Active; 'I' for Inactive)
REMARK    1  A    between atoms: C_1  and  C_2
REMARK    2  A    between atoms: C_2  and  C_3
REMARK    3  A    between atoms: C_2  and  C_4
REMARK    4  A    between atoms: C_2  and  C_5
REMARK    5  A    between atoms: C_8  and  C_9
REMARK    6  A    between atoms: C_9  and  N_10
REMARK    7  A    between atoms: N_10  and  C_11
REMARK    8  A    between atoms: N_10  and  S_24
REMARK    9  A    between atoms: C_11  and  C_12
REMARK   10  A    between atoms: C_16  and  N_17
REMARK   11  A    between atoms: N_17  and  C_18
REMARK   12  A    between atoms: C_18  and  C_19
REMARK   13  A    between atoms: C_19  and  C_20
REMARK   14  A    between atoms: C_20  and  O_22
REMARK   15  A    between atoms: S_24  and  C_27
REMARK                            x       y       z     vdW  Elec       q    Type
REMARK                         _______ _______ _______ _____ _____    ______ ____
ROOT
ATOM      1  N   UNL     1       3.989   4.900  17.249  0.00  0.00    +0.000 NA
ENDROOT
BRANCH   1   2
ATOM      2  S   UNL     1       3.056   3.425  17.388  0.00  0.00    +0.000 S 
ATOM      3  O   UNL     1       1.788   3.587  16.726  0.00  0.00    +0.000 OA
ATOM      4  O   UNL     1       3.955   2.337  17.053  0.00  0.00    +0.000 OA
BRANCH   2   5
ATOM      5  C   UNL     1       2.682   3.287  19.096  0.00  0.00    +0.000 A 
ATOM      6  C   UNL     1       1.439   3.665  19.603  0.00  0.00    +0.000 A 
ATOM      7  C   UNL     1       1.207   3.543  20.971  0.00  0.00    +0.000 A 
ATOM      8  C   UNL     1       2.231   3.048  21.765  0.00  0.00    +0.000 A 
ATOM      9  N   UNL     1       3.446   2.685  21.292  0.00  0.00    +0.000 NA
ATOM     10  C   UNL     1       3.655   2.824  19.962  0.00  0.00    +0.000 A 
ENDBRANCH   2   5
ENDBRANCH   1   2
BRANCH   1  11
ATOM     11  C   UNL     1       3.974   5.687  18.523  0.00  0.00    +0.000 C 
BRANCH  11  15
ATOM     12  C   UNL     1       1.415   9.154  19.199  0.00  0.00    +0.000 A 
ATOM     13  C   UNL     1       1.566   8.163  20.186  0.00  0.00    +0.000 A 
ATOM     14  C   UNL     1       2.298   6.983  19.950  0.00  0.00    +0.000 A 
ATOM     15  C   UNL     1       2.902   6.750  18.710  0.00  0.00    +0.000 A 
ATOM     16  C   UNL     1       2.664   7.680  17.687  0.00  0.00    +0.000 A 
ATOM     17  C   UNL     1       1.930   8.853  17.925  0.00  0.00    +0.000 A 
BRANCH  12  19
ATOM     18  C   UNL     1       1.540  11.712  18.789  0.00  0.00    +0.000 C 
ATOM     19  C   UNL     1       0.801  10.543  19.485  0.00  0.00    +0.000 C 
ATOM     20  C   UNL     1       0.801  10.852  20.997  0.00  0.00    +0.000 C 
ATOM     21  C   UNL     1      -0.660  10.583  18.973  0.00  0.00    +0.000 C 
ENDBRANCH  12  19
ENDBRANCH  11  15
ENDBRANCH   1  11
BRANCH   1  22
ATOM     22  C   UNL     1       5.413   4.579  16.825  0.00  0.00    +0.000 C 
BRANCH  22  23
ATOM     23  C   UNL     1       6.491   5.438  17.482  0.00  0.00    +0.000 A 
ATOM     24  C   UNL     1       7.080   4.967  18.654  0.00  0.00    +0.000 A 
ATOM     25  C   UNL     1       7.926   5.808  19.355  0.00  0.00    +0.000 A 
ATOM     26  C   UNL     1       8.189   7.072  18.843  0.00  0.00    +0.000 A 
ATOM     27  C   UNL     1       7.597   7.483  17.649  0.00  0.00    +0.000 A 
ATOM     28  N   UNL     1       6.752   6.679  16.964  0.00  0.00    +0.000 NA
BRANCH  27  29
ATOM     29  N   UNL     1       7.917   8.782  17.226  0.00  0.00    +0.000 N 
ATOM     30  H   UNL     1       7.304   9.034  16.455  0.00  0.00    +0.000 HD
BRANCH  29  31
ATOM     31  C   UNL     1       8.040   9.827  18.229  0.00  0.00    +0.000 C 
BRANCH  31  32
ATOM     32  C   UNL     1       9.450  10.403  18.127  0.00  0.00    +0.000 C 
BRANCH  32  33
ATOM     33  C   UNL     1       9.395  11.868  17.812  0.00  0.00    +0.000 C 
ATOM     34  O   UNL     1      10.361  12.613  17.873  0.00  0.00    +0.000 OA
BRANCH  33  35
ATOM     35  O   UNL     1       8.170  12.299  17.439  0.00  0.00    +0.000 OA
ATOM     36  H   UNL     1       7.546  11.584  17.204  0.00  0.00    +0.000 HD
ENDBRANCH  33  35
ENDBRANCH  32  33
ENDBRANCH  31  32
ENDBRANCH  29  31
ENDBRANCH  27  29
ENDBRANCH  22  23
ENDBRANCH   1  22
TORSDOF 12
ENDMDL
MODEL 5
REMARK VINA RESULT:      -7.9      1.158      1.622
REMARK  Name = 
REMARK  15 active torsions:
REMARK  status: ('A' for Active; 'I' for Inactive)
REMARK    1  A    between atoms: C_1  and  C_2
REMARK    2  A    between atoms: C_2  and  C_3
REMARK    3  A    between atoms: C_2  and  C_4
REMARK    4  A    between atoms: C_2  and  C_5
REMARK    5  A    between atoms: C_8  and  C_9
REMARK    6  A    between atoms: C_9  and  N_10
REMARK    7  A    between atoms: N_10  and  C_11
REMARK    8  A    between atoms: N_10  and  S_24
REMARK    9  A    between atoms: C_11  and  C_12
REMARK   10  A    between atoms: C_16  and  N_17
REMARK   11  A    between atoms: N_17  and  C_18
REMARK   12  A    between atoms: C_18  and  C_19
REMARK   13  A    between atoms: C_19  and  C_20
REMARK   14  A    between atoms: C_20  and  O_22
REMARK   15  A    between atoms: S_24  and  C_27
REMARK                            x       y       z     vdW  Elec       q    Type
REMARK                         _______ _______ _______ _____ _____    ______ ____
ROOT
ATOM      1  N   UNL     1       4.070   5.115  17.553  0.00  0.00    +0.000 NA
ENDROOT
BRANCH   1   2
ATOM      2  S   UNL     1       4.176   3.443  18.062  0.00  0.00    +0.000 S 
ATOM      3  O   UNL     1       3.741   2.581  16.994  0.00  0.00    +0.000 OA
ATOM      4  O   UNL     1       5.476   3.285  18.685  0.00  0.00    +0.000 OA
BRANCH   2   5
ATOM      5  C   UNL     1       2.968   3.278  19.323  0.00  0.00    +0.000 A 
ATOM      6  C   UNL     1       1.618   3.526  19.077  0.00  0.00    +0.000 A 
ATOM      7  C   UNL     1       0.710   3.389  20.123  0.00  0.00    +0.000 A 
ATOM      8  C   UNL     1       1.196   3.010  21.365  0.00  0.00    +0.000 A 
ATOM      9  N   UNL     1       2.503   2.774  21.625  0.00  0.00    +0.000 NA
ATOM     10  C   UNL     1       3.371   2.925  20.598  0.00  0.00    +0.000 A 
ENDBRANCH   2   5
ENDBRANCH   1   2
BRANCH   1  11
ATOM     11  C   UNL     1       4.013   6.048  18.723  0.00  0.00    +0.000 C 
BRANCH  11  15
ATOM     12  C   UNL     1       1.219   9.376  19.102  0.00  0.00    +0.000 A 
ATOM     13  C   UNL     1       1.363   8.431  20.135  0.00  0.00    +0.000 A 
ATOM     14  C   UNL     1       2.176   7.290  19.992  0.00  0.00    +0.000 A 
ATOM     15  C   UNL     1       2.871   7.050  18.801  0.00  0.00    +0.000 A 
ATOM     16  C   UNL     1       2.646   7.927  17.730  0.00  0.00    +0.000 A 
ATOM     17  C   UNL     1       1.832   9.061  17.876  0.00  0.00    +0.000 A 
BRANCH  12  19
ATOM     18  C   UNL     1      -0.913  10.791  18.684  0.00  0.00    +0.000 C 
ATOM     19  C   UNL     1       0.508  10.735  19.295  0.00  0.00    +0.000 C 
ATOM     20  C   UNL     1       1.315  11.882  18.652  0.00  0.00    +0.000 C 
ATOM     21  C   UNL     1       0.348  11.030  20.806  0.00  0.00    +0.000 C 
ENDBRANCH  12  19
ENDBRANCH  11  15
ENDBRANCH   1  11
BRANCH   1  22
ATOM     22  C   UNL     1       5.237   5.458  16.641  0.00  0.00    +0.000 C 
BRANCH  22  23
ATOM     23  C   UNL     1       6.423   6.125  17.334  0.00  0.00    +0.000 A 
ATOM     24  C   UNL     1       7.135   5.380  18.272  0.00  0.00    +0.000 A 
ATOM     25  C   UNL     1       8.097   6.020  19.034  0.00  0.00    +0.000 A 
ATOM     26  C   UNL     1       8.345   7.367  18.807  0.00  0.00    +0.000 A 
ATOM     27  C   UNL     1       7.624   8.058  17.832  0.00  0.00    +0.000 A 
ATOM     28  N   UNL     1       6.668   7.451  17.095  0.00  0.00    +0.000 NA
BRANCH  27  29
ATOM     29  N   UNL     1       7.942   9.417  17.690  0.00  0.00    +0.000 N 
ATOM     30  H   UNL     1       7.088   9.934  17.498  0.00  0.00    +0.000 HD
BRANCH  29  31
ATOM     31  C   UNL     1       8.778  10.044  18.702  0.00  0.00    +0.000 C 
BRANCH  31  32
ATOM     32  C   UNL     1       9.808  10.910  17.981  0.00  0.00    +0.000 C 
BRANCH  32  33
ATOM     33  C   UNL     1      10.737  11.550  18.969  0.00  0.00    +0.000 C 
ATOM     34  O   UNL     1      11.946  11.380  18.974  0.00  0.00    +0.000 OA
BRANCH  33  35
ATOM     35  O   UNL     1      10.113  12.350  19.863  0.00  0.00    +0.000 OA
ATOM     36  H   UNL     1       9.190  12.571  19.629  0.00  0.00    +0.000 HD
ENDBRANCH  33  35
ENDBRANCH  32  33
ENDBRANCH  31  32
ENDBRANCH  29  31
ENDBRANCH  27  29
ENDBRANCH  22  23
ENDBRANCH   1  22
TORSDOF 12
ENDMDL
MODEL 6
REMARK VINA RESULT:      -7.6      5.583     10.481
REMARK  Name = 
REMARK  15 active torsions:
REMARK  status: ('A' for Active; 'I' for Inactive)
REMARK    1  A    between atoms: C_1  and  C_2
REMARK    2  A    between atoms: C_2  and  C_3
REMARK    3  A    between atoms: C_2  and  C_4
REMARK    4  A    between atoms: C_2  and  C_5
REMARK    5  A    between atoms: C_8  and  C_9
REMARK    6  A    between atoms: C_9  and  N_10
REMARK    7  A    between atoms: N_10  and  C_11
REMARK    8  A    between atoms: N_10  and  S_24
REMARK    9  A    between atoms: C_11  and  C_12
REMARK   10  A    between atoms: C_16  and  N_17
REMARK   11  A    between atoms: N_17  and  C_18
REMARK   12  A    between atoms: C_18  and  C_19
REMARK   13  A    between atoms: C_19  and  C_20
REMARK   14  A    between atoms: C_20  and  O_22
REMARK   15  A    between atoms: S_24  and  C_27
REMARK                            x       y       z     vdW  Elec       q    Type
REMARK                         _______ _______ _______ _____ _____    ______ ____
ROOT
ATOM      1  N   UNL     1       0.568  11.819  19.204  0.00  0.00    +0.000 NA
ENDROOT
BRANCH   1   2
ATOM      2  S   UNL     1       0.802  12.963  20.508  0.00  0.00    +0.000 S 
ATOM      3  O   UNL     1       1.981  12.613  21.256  0.00  0.00    +0.000 OA
ATOM      4  O   UNL     1       0.631  14.283  19.932  0.00  0.00    +0.000 OA
BRANCH   2   5
ATOM      5  C   UNL     1      -0.546  12.689  21.597  0.00  0.00    +0.000 A 
ATOM      6  C   UNL     1      -0.610  11.556  22.407  0.00  0.00    +0.000 A 
ATOM      7  C   UNL     1      -1.713  11.389  23.241  0.00  0.00    +0.000 A 
ATOM      8  C   UNL     1      -2.698  12.365  23.224  0.00  0.00    +0.000 A 
ATOM      9  N   UNL     1      -2.657  13.466  22.438  0.00  0.00    +0.000 NA
ATOM     10  C   UNL     1      -1.583  13.602  21.625  0.00  0.00    +0.000 A 
ENDBRANCH   2   5
ENDBRANCH   1   2
BRANCH   1  11
ATOM     11  C   UNL     1       0.092  10.492  19.710  0.00  0.00    +0.000 C 
BRANCH  11  15
ATOM     12  C   UNL     1       2.381   6.786  19.485  0.00  0.00    +0.000 A 
ATOM     13  C   UNL     1       1.823   7.219  20.702  0.00  0.00    +0.000 A 
ATOM     14  C   UNL     1       1.174   8.463  20.823  0.00  0.00    +0.000 A 
ATOM     15  C   UNL     1       1.068   9.325  19.726  0.00  0.00    +0.000 A 
ATOM     16  C   UNL     1       1.717   8.951  18.540  0.00  0.00    +0.000 A 
ATOM     17  C   UNL     1       2.366   7.711  18.425  0.00  0.00    +0.000 A 
BRANCH  12  19
ATOM     18  C   UNL     1       2.474   4.344  20.353  0.00  0.00    +0.000 C 
ATOM     19  C   UNL     1       2.913   5.352  19.263  0.00  0.00    +0.000 C 
ATOM     20  C   UNL     1       4.455   5.329  19.228  0.00  0.00    +0.000 C 
ATOM     21  C   UNL     1       2.380   4.801  17.917  0.00  0.00    +0.000 C 
ENDBRANCH  12  19
ENDBRANCH  11  15
ENDBRANCH   1  11
BRANCH   1  22
ATOM     22  C   UNL     1      -0.399  12.387  18.178  0.00  0.00    +0.000 C 
BRANCH  22  23
ATOM     23  C   UNL     1      -1.740  11.664  18.084  0.00  0.00    +0.000 A 
ATOM     24  C   UNL     1      -1.867  10.641  17.145  0.00  0.00    +0.000 A 
ATOM     25  C   UNL     1      -3.120  10.095  16.925  0.00  0.00    +0.000 A 
ATOM     26  C   UNL     1      -4.193  10.558  17.675  0.00  0.00    +0.000 A 
ATOM     27  C   UNL     1      -4.004  11.563  18.624  0.00  0.00    +0.000 A 
ATOM     28  N   UNL     1      -2.791  12.118  18.835  0.00  0.00    +0.000 NA
BRANCH  27  29
ATOM     29  N   UNL     1      -5.155  11.967  19.318  0.00  0.00    +0.000 N 
ATOM     30  H   UNL     1      -4.876  12.574  20.085  0.00  0.00    +0.000 HD
BRANCH  29  31
ATOM     31  C   UNL     1      -6.280  12.483  18.555  0.00  0.00    +0.000 C 
BRANCH  31  32
ATOM     32  C   UNL     1      -7.559  12.065  19.275  0.00  0.00    +0.000 C 
BRANCH  32  33
ATOM     33  C   UNL     1      -7.364  10.746  19.962  0.00  0.00    +0.000 C 
ATOM     34  O   UNL     1      -7.237  10.622  21.170  0.00  0.00    +0.000 OA
BRANCH  33  35
ATOM     35  O   UNL     1      -7.351   9.690  19.119  0.00  0.00    +0.000 OA
ATOM     36  H   UNL     1      -8.088   9.061  19.249  0.00  0.00    +0.000 HD
ENDBRANCH  33  35
ENDBRANCH  32  33
ENDBRANCH  31  32
ENDBRANCH  29  31
ENDBRANCH  27  29
ENDBRANCH  22  23
ENDBRANCH   1  22
TORSDOF 12
ENDMDL
MODEL 7
REMARK VINA RESULT:      -7.6      5.737     10.921
REMARK  Name = 
REMARK  15 active torsions:
REMARK  status: ('A' for Active; 'I' for Inactive)
REMARK    1  A    between atoms: C_1  and  C_2
REMARK    2  A    between atoms: C_2  and  C_3
REMARK    3  A    between atoms: C_2  and  C_4
REMARK    4  A    between atoms: C_2  and  C_5
REMARK    5  A    between atoms: C_8  and  C_9
REMARK    6  A    between atoms: C_9  and  N_10
REMARK    7  A    between atoms: N_10  and  C_11
REMARK    8  A    between atoms: N_10  and  S_24
REMARK    9  A    between atoms: C_11  and  C_12
REMARK   10  A    between atoms: C_16  and  N_17
REMARK   11  A    between atoms: N_17  and  C_18
REMARK   12  A    between atoms: C_18  and  C_19
REMARK   13  A    between atoms: C_19  and  C_20
REMARK   14  A    between atoms: C_20  and  O_22
REMARK   15  A    between atoms: S_24  and  C_27
REMARK                            x       y       z     vdW  Elec       q    Type
REMARK                         _______ _______ _______ _____ _____    ______ ____
ROOT
ATOM      1  N   UNL     1       0.518  12.128  18.847  0.00  0.00    +0.000 NA
ENDROOT
BRANCH   1   2
ATOM      2  S   UNL     1       0.884  13.336  20.060  0.00  0.00    +0.000 S 
ATOM      3  O   UNL     1      -0.331  13.976  20.491  0.00  0.00    +0.000 OA
ATOM      4  O   UNL     1       1.791  12.711  21.003  0.00  0.00    +0.000 OA
BRANCH   2   5
ATOM      5  C   UNL     1       1.791  14.572  19.205  0.00  0.00    +0.000 A 
ATOM      6  C   UNL     1       2.734  14.243  18.232  0.00  0.00    +0.000 A 
ATOM      7  C   UNL     1       3.430  15.269  17.599  0.00  0.00    +0.000 A 
ATOM      8  C   UNL     1       3.148  16.575  17.969  0.00  0.00    +0.000 A 
ATOM      9  N   UNL     1       2.243  16.913  18.916  0.00  0.00    +0.000 NA
ATOM     10  C   UNL     1       1.587  15.900  19.530  0.00  0.00    +0.000 A 
ENDBRANCH   2   5
ENDBRANCH   1   2
BRANCH   1  11
ATOM     11  C   UNL     1       0.166  10.810  19.467  0.00  0.00    +0.000 C 
BRANCH  11  15
ATOM     12  C   UNL     1       2.464   7.160  18.822  0.00  0.00    +0.000 A 
ATOM     13  C   UNL     1       1.971   7.489  20.098  0.00  0.00    +0.000 A 
ATOM     14  C   UNL     1       1.322   8.712  20.353  0.00  0.00    +0.000 A 
ATOM     15  C   UNL     1       1.149   9.657  19.336  0.00  0.00    +0.000 A 
ATOM     16  C   UNL     1       1.734   9.385  18.091  0.00  0.00    +0.000 A 
ATOM     17  C   UNL     1       2.384   8.165  17.842  0.00  0.00    +0.000 A 
BRANCH  12  19
ATOM     18  C   UNL     1       1.911   4.808  17.879  0.00  0.00    +0.000 C 
ATOM     19  C   UNL     1       2.992   5.754  18.458  0.00  0.00    +0.000 C 
ATOM     20  C   UNL     1       3.590   5.046  19.691  0.00  0.00    +0.000 C 
ATOM     21  C   UNL     1       4.093   5.874  17.376  0.00  0.00    +0.000 C 
ENDBRANCH  12  19
ENDBRANCH  11  15
ENDBRANCH   1  11
BRANCH   1  22
ATOM     22  C   UNL     1      -0.600  12.618  17.941  0.00  0.00    +0.000 C 
BRANCH  22  23
ATOM     23  C   UNL     1      -1.880  11.789  17.989  0.00  0.00    +0.000 A 
ATOM     24  C   UNL     1      -1.985  10.698  17.128  0.00  0.00    +0.000 A 
ATOM     25  C   UNL     1      -3.201  10.044  17.032  0.00  0.00    +0.000 A 
ATOM     26  C   UNL     1      -4.257  10.472  17.826  0.00  0.00    +0.000 A 
ATOM     27  C   UNL     1      -4.088  11.551  18.695  0.00  0.00    +0.000 A 
ATOM     28  N   UNL     1      -2.912  12.212  18.784  0.00  0.00    +0.000 NA
BRANCH  27  29
ATOM     29  N   UNL     1      -5.219  11.912  19.443  0.00  0.00    +0.000 N 
ATOM     30  H   UNL     1      -4.940  12.587  20.151  0.00  0.00    +0.000 HD
BRANCH  29  31
ATOM     31  C   UNL     1      -6.429  12.293  18.731  0.00  0.00    +0.000 C 
BRANCH  31  32
ATOM     32  C   UNL     1      -7.608  12.088  19.678  0.00  0.00    +0.000 C 
BRANCH  32  33
ATOM     33  C   UNL     1      -7.250  11.106  20.754  0.00  0.00    +0.000 C 
ATOM     34  O   UNL     1      -7.202   9.898  20.582  0.00  0.00    +0.000 OA
BRANCH  33  35
ATOM     35  O   UNL     1      -6.973  11.681  21.945  0.00  0.00    +0.000 OA
ATOM     36  H   UNL     1      -6.465  12.514  21.882  0.00  0.00    +0.000 HD
ENDBRANCH  33  35
ENDBRANCH  32  33
ENDBRANCH  31  32
ENDBRANCH  29  31
ENDBRANCH  27  29
ENDBRANCH  22  23
ENDBRANCH   1  22
TORSDOF 12
ENDMDL
MODEL 8
REMARK VINA RESULT:      -7.6      5.366      9.984
REMARK  Name = 
REMARK  15 active torsions:
REMARK  status: ('A' for Active; 'I' for Inactive)
REMARK    1  A    between atoms: C_1  and  C_2
REMARK    2  A    between atoms: C_2  and  C_3
REMARK    3  A    between atoms: C_2  and  C_4
REMARK    4  A    between atoms: C_2  and  C_5
REMARK    5  A    between atoms: C_8  and  C_9
REMARK    6  A    between atoms: C_9  and  N_10
REMARK    7  A    between atoms: N_10  and  C_11
REMARK    8  A    between atoms: N_10  and  S_24
REMARK    9  A    between atoms: C_11  and  C_12
REMARK   10  A    between atoms: C_16  and  N_17
REMARK   11  A    between atoms: N_17  and  C_18
REMARK   12  A    between atoms: C_18  and  C_19
REMARK   13  A    between atoms: C_19  and  C_20
REMARK   14  A    between atoms: C_20  and  O_22
REMARK   15  A    between atoms: S_24  and  C_27
REMARK                            x       y       z     vdW  Elec       q    Type
REMARK                         _______ _______ _______ _____ _____    ______ ____
ROOT
ATOM      1  N   UNL     1       0.297  12.054  19.037  0.00  0.00    +0.000 NA
ENDROOT
BRANCH   1   2
ATOM      2  S   UNL     1       0.715  12.959  20.476  0.00  0.00    +0.000 S 
ATOM      3  O   UNL     1       1.844  12.347  21.125  0.00  0.00    +0.000 OA
ATOM      4  O   UNL     1       0.723  14.358  20.094  0.00  0.00    +0.000 OA
BRANCH   2   5
ATOM      5  C   UNL     1      -0.640  12.724  21.566  0.00  0.00    +0.000 A 
ATOM      6  C   UNL     1      -0.720  11.609  22.400  0.00  0.00    +0.000 A 
ATOM      7  C   UNL     1      -1.827  11.473  23.233  0.00  0.00    +0.000 A 
ATOM      8  C   UNL     1      -2.801  12.460  23.193  0.00  0.00    +0.000 A 
ATOM      9  N   UNL     1      -2.744  13.544  22.384  0.00  0.00    +0.000 NA
ATOM     10  C   UNL     1      -1.667  13.650  21.572  0.00  0.00    +0.000 A 
ENDBRANCH   2   5
ENDBRANCH   1   2
BRANCH   1  11
ATOM     11  C   UNL     1      -0.166  10.668  19.369  0.00  0.00    +0.000 C 
BRANCH  11  15
ATOM     12  C   UNL     1       2.292   7.065  19.338  0.00  0.00    +0.000 A 
ATOM     13  C   UNL     1       1.752   7.562  20.538  0.00  0.00    +0.000 A 
ATOM     14  C   UNL     1       1.048   8.781  20.590  0.00  0.00    +0.000 A 
ATOM     15  C   UNL     1       0.865   9.552  19.437  0.00  0.00    +0.000 A 
ATOM     16  C   UNL     1       1.495   9.120  18.260  0.00  0.00    +0.000 A 
ATOM     17  C   UNL     1       2.199   7.906  18.214  0.00  0.00    +0.000 A 
BRANCH  12  19
ATOM     18  C   UNL     1       4.428   5.617  19.080  0.00  0.00    +0.000 C 
ATOM     19  C   UNL     1       2.885   5.644  19.203  0.00  0.00    +0.000 C 
ATOM     20  C   UNL     1       2.325   4.922  17.960  0.00  0.00    +0.000 C 
ATOM     21  C   UNL     1       2.531   4.811  20.459  0.00  0.00    +0.000 C 
ENDBRANCH  12  19
ENDBRANCH  11  15
ENDBRANCH   1  11
BRANCH   1  22
ATOM     22  C   UNL     1      -0.757  12.802  18.237  0.00  0.00    +0.000 C 
BRANCH  22  23
ATOM     23  C   UNL     1      -1.966  11.966  17.823  0.00  0.00    +0.000 A 
ATOM     24  C   UNL     1      -3.058  11.922  18.688  0.00  0.00    +0.000 A 
ATOM     25  C   UNL     1      -4.085  11.036  18.414  0.00  0.00    +0.000 A 
ATOM     26  C   UNL     1      -4.008  10.254  17.269  0.00  0.00    +0.000 A 
ATOM     27  C   UNL     1      -2.906  10.360  16.421  0.00  0.00    +0.000 A 
ATOM     28  N   UNL     1      -1.886  11.207  16.686  0.00  0.00    +0.000 NA
BRANCH  27  29
ATOM     29  N   UNL     1      -2.919   9.518  15.298  0.00  0.00    +0.000 N 
ATOM     30  H   UNL     1      -3.563   8.750  15.474  0.00  0.00    +0.000 HD
BRANCH  29  31
ATOM     31  C   UNL     1      -3.082  10.117  13.983  0.00  0.00    +0.000 C 
BRANCH  31  32
ATOM     32  C   UNL     1      -4.492   9.791  13.498  0.00  0.00    +0.000 C 
BRANCH  32  33
ATOM     33  C   UNL     1      -4.545   9.800  11.999  0.00  0.00    +0.000 C 
ATOM     34  O   UNL     1      -5.581   9.847  11.356  0.00  0.00    +0.000 OA
BRANCH  33  35
ATOM     35  O   UNL     1      -3.328   9.758  11.412  0.00  0.00    +0.000 OA
ATOM     36  H   UNL     1      -2.960  10.635  11.184  0.00  0.00    +0.000 HD
ENDBRANCH  33  35
ENDBRANCH  32  33
ENDBRANCH  31  32
ENDBRANCH  29  31
ENDBRANCH  27  29
ENDBRANCH  22  23
ENDBRANCH   1  22
TORSDOF 12
ENDMDL
MODEL 9
REMARK VINA RESULT:      -7.5      3.735      4.837
REMARK  Name = 
REMARK  15 active torsions:
REMARK  status: ('A' for Active; 'I' for Inactive)
REMARK    1  A    between atoms: C_1  and  C_2
REMARK    2  A    between atoms: C_2  and  C_3
REMARK    3  A    between atoms: C_2  and  C_4
REMARK    4  A    between atoms: C_2  and  C_5
REMARK    5  A    between atoms: C_8  and  C_9
REMARK    6  A    between atoms: C_9  and  N_10
REMARK    7  A    between atoms: N_10  and  C_11
REMARK    8  A    between atoms: N_10  and  S_24
REMARK    9  A    between atoms: C_11  and  C_12
REMARK   10  A    between atoms: C_16  and  N_17
REMARK   11  A    between atoms: N_17  and  C_18
REMARK   12  A    between atoms: C_18  and  C_19
REMARK   13  A    between atoms: C_19  and  C_20
REMARK   14  A    between atoms: C_20  and  O_22
REMARK   15  A    between atoms: S_24  and  C_27
REMARK                            x       y       z     vdW  Elec       q    Type
REMARK                         _______ _______ _______ _____ _____    ______ ____
ROOT
ATOM      1  N   UNL     1       2.401   5.632  19.201  0.00  0.00    +0.000 NA
ENDROOT
BRANCH   1   2
ATOM      2  S   UNL     1       1.566   4.097  19.086  0.00  0.00    +0.000 S 
ATOM      3  O   UNL     1       0.696   3.931  20.221  0.00  0.00    +0.000 OA
ATOM      4  O   UNL     1       1.070   4.000  17.728  0.00  0.00    +0.000 OA
BRANCH   2   5
ATOM      5  C   UNL     1       2.822   2.885  19.273  0.00  0.00    +0.000 A 
ATOM      6  C   UNL     1       3.085   1.948  18.273  0.00  0.00    +0.000 A 
ATOM      7  C   UNL     1       4.085   1.004  18.486  0.00  0.00    +0.000 A 
ATOM      8  C   UNL     1       4.776   1.044  19.689  0.00  0.00    +0.000 A 
ATOM      9  N   UNL     1       4.528   1.939  20.673  0.00  0.00    +0.000 NA
ATOM     10  C   UNL     1       3.542   2.840  20.451  0.00  0.00    +0.000 A 
ENDBRANCH   2   5
ENDBRANCH   1   2
BRANCH   1  11
ATOM     11  C   UNL     1       1.992   6.395  20.424  0.00  0.00    +0.000 C 
BRANCH  11  15
ATOM     12  C   UNL     1       0.315  10.378  19.840  0.00  0.00    +0.000 A 
ATOM     13  C   UNL     1       1.115   9.778  18.850  0.00  0.00    +0.000 A 
ATOM     14  C   UNL     1       1.756   8.542  19.060  0.00  0.00    +0.000 A 
ATOM     15  C   UNL     1       1.623   7.863  20.276  0.00  0.00    +0.000 A 
ATOM     16  C   UNL     1       0.920   8.506  21.305  0.00  0.00    +0.000 A 
ATOM     17  C   UNL     1       0.286   9.741  21.093  0.00  0.00    +0.000 A 
BRANCH  12  19
ATOM     18  C   UNL     1      -1.024  12.350  20.860  0.00  0.00    +0.000 C 
ATOM     19  C   UNL     1      -0.565  11.621  19.574  0.00  0.00    +0.000 C 
ATOM     20  C   UNL     1      -1.842  11.244  18.795  0.00  0.00    +0.000 C 
ATOM     21  C   UNL     1       0.232  12.657  18.745  0.00  0.00    +0.000 C 
ENDBRANCH  12  19
ENDBRANCH  11  15
ENDBRANCH   1  11
BRANCH   1  22
ATOM     22  C   UNL     1       3.905   5.411  19.177  0.00  0.00    +0.000 C 
BRANCH  22  23
ATOM     23  C   UNL     1       4.568   5.635  17.820  0.00  0.00    +0.000 A 
ATOM     24  C   UNL     1       4.464   6.899  17.242  0.00  0.00    +0.000 A 
ATOM     25  C   UNL     1       4.904   7.071  15.941  0.00  0.00    +0.000 A 
ATOM     26  C   UNL     1       5.469   5.991  15.277  0.00  0.00    +0.000 A 
ATOM     27  C   UNL     1       5.578   4.755  15.914  0.00  0.00    +0.000 A 
ATOM     28  N   UNL     1       5.134   4.567  17.176  0.00  0.00    +0.000 NA
BRANCH  27  29
ATOM     29  N   UNL     1       6.152   3.726  15.151  0.00  0.00    +0.000 N 
ATOM     30  H   UNL     1       5.576   2.892  15.243  0.00  0.00    +0.000 HD
BRANCH  29  31
ATOM     31  C   UNL     1       6.536   4.012  13.778  0.00  0.00    +0.000 C 
BRANCH  31  32
ATOM     32  C   UNL     1       5.361   3.634  12.880  0.00  0.00    +0.000 C 
BRANCH  32  33
ATOM     33  C   UNL     1       5.788   2.624  11.857  0.00  0.00    +0.000 C 
ATOM     34  O   UNL     1       5.008   1.968  11.183  0.00  0.00    +0.000 OA
BRANCH  33  35
ATOM     35  O   UNL     1       7.129   2.506  11.736  0.00  0.00    +0.000 OA
ATOM     36  H   UNL     1       7.614   3.352  11.794  0.00  0.00    +0.000 HD
ENDBRANCH  33  35
ENDBRANCH  32  33
ENDBRANCH  31  32
ENDBRANCH  29  31
ENDBRANCH  27  29
ENDBRANCH  22  23
ENDBRANCH   1  22
TORSDOF 12
ENDMDL
