MODEL 1
REMARK VINA RESULT:      -9.1      0.000      0.000
REMARK  Name = 
REMARK  6 active torsions:
REMARK  status: ('A' for Active; 'I' for Inactive)
REMARK    1  A    between atoms: C_1  and  C_2
REMARK    2  A    between atoms: C_5  and  C_6
REMARK    3  A    between atoms: C_9  and  N_10
REMARK    4  A    between atoms: N_11  and  C_12
REMARK    5  A    between atoms: C_14  and  S_15
REMARK    6  A    between atoms: C_25  and  N_26
REMARK                            x       y       z     vdW  Elec       q    Type
REMARK                         _______ _______ _______ _____ _____    ______ ____
ROOT
ATOM      1  C   UNL     1       2.114   6.497  19.603  0.00  0.00    +0.000 A 
ATOM      2  C   UNL     1       2.373   5.200  20.039  0.00  0.00    +0.000 A 
ATOM      3  C   UNL     1       3.278   4.377  19.357  0.00  0.00    +0.000 A 
ATOM      4  C   UNL     1       3.988   4.832  18.215  0.00  0.00    +0.000 A 
ATOM      5  C   UNL     1       4.925   4.041  17.499  0.00  0.00    +0.000 A 
ATOM      6  C   UNL     1       5.623   4.526  16.395  0.00  0.00    +0.000 A 
ATOM      7  C   UNL     1       5.415   5.825  15.974  0.00  0.00    +0.000 A 
ATOM      8  C   UNL     1       4.500   6.631  16.656  0.00  0.00    +0.000 A 
ATOM      9  C   UNL     1       3.757   6.163  17.770  0.00  0.00    +0.000 A 
ATOM     10  C   UNL     1       2.784   6.976  18.448  0.00  0.00    +0.000 A 
ENDROOT
BRANCH   3  11
ATOM     11  S   UNL     1       3.513   2.695  20.026  0.00  0.00    +0.000 S 
ATOM     12  O   UNL     1       2.850   1.863  19.027  0.00  0.00    +0.000 OA
ATOM     13  O   UNL     1       4.969   2.589  20.098  0.00  0.00    +0.000 OA
ATOM     14  O   UNL     1       2.843   2.742  21.324  0.00  0.00    +0.000 OA
ENDBRANCH   3  11
BRANCH  10  15
ATOM     15  N   UNL     1       2.612   8.351  18.086  0.00  0.00    +0.000 N 
ATOM     16  H   UNL     1       2.083   8.865  18.781  0.00  0.00    +0.000 HD
ATOM     17  H   UNL     1       3.519   8.776  17.907  0.00  0.00    +0.000 HD
ENDBRANCH  10  15
BRANCH   1  19
ATOM     18  N   UNL     1       1.817   8.295  20.874  0.00  0.00    +0.000 NA
ATOM     19  N   UNL     1       1.220   7.361  20.294  0.00  0.00    +0.000 NA
BRANCH  18  23
ATOM     20  C   UNL     1      -0.712  11.217  22.515  0.00  0.00    +0.000 A 
ATOM     21  C   UNL     1      -0.686   9.956  23.111  0.00  0.00    +0.000 A 
ATOM     22  C   UNL     1       0.144   8.962  22.581  0.00  0.00    +0.000 A 
ATOM     23  C   UNL     1       0.956   9.226  21.481  0.00  0.00    +0.000 A 
ATOM     24  C   UNL     1       0.838  10.501  20.934  0.00  0.00    +0.000 A 
ATOM     25  N   UNL     1       0.028  11.491  21.411  0.00  0.00    +0.000 NA
BRANCH  20  30
ATOM     26  C   UNL     1      -3.877  15.608  24.698  0.00  0.00    +0.000 C 
ATOM     27  C   UNL     1      -3.096  14.478  24.089  0.00  0.00    +0.000 A 
ATOM     28  C   UNL     1      -3.618  13.184  24.026  0.00  0.00    +0.000 A 
ATOM     29  C   UNL     1      -2.854  12.132  23.494  0.00  0.00    +0.000 A 
ATOM     30  C   UNL     1      -1.543  12.335  23.026  0.00  0.00    +0.000 A 
ATOM     31  C   UNL     1      -1.032  13.644  23.109  0.00  0.00    +0.000 A 
ATOM     32  C   UNL     1      -1.794  14.702  23.626  0.00  0.00    +0.000 A 
ENDBRANCH  20  30
ENDBRANCH  18  23
ENDBRANCH   1  19
TORSDOF 5
ENDMDL
MODEL 2
REMARK VINA RESULT:      -9.0      0.129      1.171
REMARK  Name = 
REMARK  6 active torsions:
REMARK  status: ('A' for Active; 'I' for Inactive)
REMARK    1  A    between atoms: C_1  and  C_2
REMARK    2  A    between atoms: C_5  and  C_6
REMARK    3  A    between atoms: C_9  and  N_10
REMARK    4  A    between atoms: N_11  and  C_12
REMARK    5  A    between atoms: C_14  and  S_15
REMARK    6  A    between atoms: C_25  and  N_26
REMARK                            x       y       z     vdW  Elec       q    Type
REMARK                         _______ _______ _______ _____ _____    ______ ____
ROOT
ATOM      1  C   UNL     1       2.130   6.493  19.750  0.00  0.00    +0.000 A 
ATOM      2  C   UNL     1       2.397   5.187  20.156  0.00  0.00    +0.000 A 
ATOM      3  C   UNL     1       3.283   4.376  19.436  0.00  0.00    +0.000 A 
ATOM      4  C   UNL     1       3.966   4.851  18.287  0.00  0.00    +0.000 A 
ATOM      5  C   UNL     1       4.884   4.072  17.534  0.00  0.00    +0.000 A 
ATOM      6  C   UNL     1       5.557   4.577  16.422  0.00  0.00    +0.000 A 
ATOM      7  C   UNL     1       5.342   5.884  16.031  0.00  0.00    +0.000 A 
ATOM      8  C   UNL     1       4.446   6.678  16.750  0.00  0.00    +0.000 A 
ATOM      9  C   UNL     1       3.728   6.191  17.873  0.00  0.00    +0.000 A 
ATOM     10  C   UNL     1       2.773   6.992  18.589  0.00  0.00    +0.000 A 
ENDROOT
BRANCH   3  11
ATOM     11  S   UNL     1       3.530   2.681  20.067  0.00  0.00    +0.000 S 
ATOM     12  O   UNL     1       2.810   2.708  21.336  0.00  0.00    +0.000 OA
ATOM     13  O   UNL     1       2.946   1.865  19.005  0.00  0.00    +0.000 OA
ATOM     14  O   UNL     1       4.983   2.566  20.192  0.00  0.00    +0.000 OA
ENDBRANCH   3  11
BRANCH  10  15
ATOM     15  N   UNL     1       2.596   8.375  18.258  0.00  0.00    +0.000 N 
ATOM     16  H   UNL     1       2.654   8.539  17.259  0.00  0.00    +0.000 HD
ATOM     17  H   UNL     1       1.720   8.713  18.649  0.00  0.00    +0.000 HD
ENDBRANCH  10  15
BRANCH   1  19
ATOM     18  N   UNL     1       1.817   8.401  20.845  0.00  0.00    +0.000 NA
ATOM     19  N   UNL     1       1.255   7.346  20.479  0.00  0.00    +0.000 NA
BRANCH  18  23
ATOM     20  C   UNL     1      -0.706  11.274  22.578  0.00  0.00    +0.000 A 
ATOM     21  C   UNL     1      -0.749   9.972  23.075  0.00  0.00    +0.000 A 
ATOM     22  C   UNL     1       0.078   8.993  22.513  0.00  0.00    +0.000 A 
ATOM     23  C   UNL     1       0.954   9.312  21.477  0.00  0.00    +0.000 A 
ATOM     24  C   UNL     1       0.901  10.628  21.025  0.00  0.00    +0.000 A 
ATOM     25  N   UNL     1       0.098  11.605  21.536  0.00  0.00    +0.000 NA
BRANCH  20  30
ATOM     26  C   UNL     1      -4.033  15.636  24.570  0.00  0.00    +0.000 C 
ATOM     27  C   UNL     1      -3.150  14.511  24.109  0.00  0.00    +0.000 A 
ATOM     28  C   UNL     1      -1.800  14.719  23.817  0.00  0.00    +0.000 A 
ATOM     29  C   UNL     1      -1.003  13.664  23.344  0.00  0.00    +0.000 A 
ATOM     30  C   UNL     1      -1.530  12.377  23.131  0.00  0.00    +0.000 A 
ATOM     31  C   UNL     1      -2.895  12.192  23.421  0.00  0.00    +0.000 A 
ATOM     32  C   UNL     1      -3.694  13.238  23.907  0.00  0.00    +0.000 A 
ENDBRANCH  20  30
ENDBRANCH  18  23
ENDBRANCH   1  19
TORSDOF 5
ENDMDL
MODEL 3
REMARK VINA RESULT:      -8.7      0.595      1.477
REMARK  Name = 
REMARK  6 active torsions:
REMARK  status: ('A' for Active; 'I' for Inactive)
REMARK    1  A    between atoms: C_1  and  C_2
REMARK    2  A    between atoms: C_5  and  C_6
REMARK    3  A    between atoms: C_9  and  N_10
REMARK    4  A    between atoms: N_11  and  C_12
REMARK    5  A    between atoms: C_14  and  S_15
REMARK    6  A    between atoms: C_25  and  N_26
REMARK                            x       y       z     vdW  Elec       q    Type
REMARK                         _______ _______ _______ _____ _____    ______ ____
ROOT
ATOM      1  C   UNL     1       2.201   6.588  19.228  0.00  0.00    +0.000 A 
ATOM      2  C   UNL     1       2.354   5.317  19.778  0.00  0.00    +0.000 A 
ATOM      3  C   UNL     1       3.262   4.401  19.233  0.00  0.00    +0.000 A 
ATOM      4  C   UNL     1       4.082   4.731  18.123  0.00  0.00    +0.000 A 
ATOM      5  C   UNL     1       5.027   3.842  17.545  0.00  0.00    +0.000 A 
ATOM      6  C   UNL     1       5.834   4.206  16.469  0.00  0.00    +0.000 A 
ATOM      7  C   UNL     1       5.731   5.477  15.939  0.00  0.00    +0.000 A 
ATOM      8  C   UNL     1       4.812   6.377  16.484  0.00  0.00    +0.000 A 
ATOM      9  C   UNL     1       3.959   6.033  17.564  0.00  0.00    +0.000 A 
ATOM     10  C   UNL     1       2.983   6.943  18.100  0.00  0.00    +0.000 A 
ENDROOT
BRANCH   3  11
ATOM     11  S   UNL     1       3.352   2.766  20.040  0.00  0.00    +0.000 S 
ATOM     12  O   UNL     1       4.790   2.550  20.157  0.00  0.00    +0.000 OA
ATOM     13  O   UNL     1       2.625   2.993  21.286  0.00  0.00    +0.000 OA
ATOM     14  O   UNL     1       2.677   1.877  19.095  0.00  0.00    +0.000 OA
ENDBRANCH   3  11
BRANCH  10  15
ATOM     15  N   UNL     1       2.916   8.293  17.626  0.00  0.00    +0.000 N 
ATOM     16  H   UNL     1       3.448   8.426  16.774  0.00  0.00    +0.000 HD
ATOM     17  H   UNL     1       1.943   8.571  17.515  0.00  0.00    +0.000 HD
ENDBRANCH  10  15
BRANCH   1  19
ATOM     18  N   UNL     1       1.863   8.294  20.612  0.00  0.00    +0.000 NA
ATOM     19  N   UNL     1       1.305   7.546  19.779  0.00  0.00    +0.000 NA
BRANCH  18  23
ATOM     20  C   UNL     1      -0.568  11.284  22.276  0.00  0.00    +0.000 A 
ATOM     21  C   UNL     1      -0.351  11.300  20.899  0.00  0.00    +0.000 A 
ATOM     22  C   UNL     1       0.459  10.318  20.318  0.00  0.00    +0.000 A 
ATOM     23  C   UNL     1       1.033   9.317  21.099  0.00  0.00    +0.000 A 
ATOM     24  C   UNL     1       0.787   9.402  22.467  0.00  0.00    +0.000 A 
ATOM     25  N   UNL     1       0.018  10.353  23.072  0.00  0.00    +0.000 NA
BRANCH  20  30
ATOM     26  C   UNL     1      -4.067  15.196  24.830  0.00  0.00    +0.000 C 
ATOM     27  C   UNL     1      -3.135  14.185  24.222  0.00  0.00    +0.000 A 
ATOM     28  C   UNL     1      -1.833  14.527  23.850  0.00  0.00    +0.000 A 
ATOM     29  C   UNL     1      -0.994  13.580  23.242  0.00  0.00    +0.000 A 
ATOM     30  C   UNL     1      -1.432  12.271  22.970  0.00  0.00    +0.000 A 
ATOM     31  C   UNL     1      -2.751  11.951  23.342  0.00  0.00    +0.000 A 
ATOM     32  C   UNL     1      -3.590  12.888  23.962  0.00  0.00    +0.000 A 
ENDBRANCH  20  30
ENDBRANCH  18  23
ENDBRANCH   1  19
TORSDOF 5
ENDMDL
MODEL 4
REMARK VINA RESULT:      -8.6      0.671      1.216
REMARK  Name = 
REMARK  6 active torsions:
REMARK  status: ('A' for Active; 'I' for Inactive)
REMARK    1  A    between atoms: C_1  and  C_2
REMARK    2  A    between atoms: C_5  and  C_6
REMARK    3  A    between atoms: C_9  and  N_10
REMARK    4  A    between atoms: N_11  and  C_12
REMARK    5  A    between atoms: C_14  and  S_15
REMARK    6  A    between atoms: C_25  and  N_26
REMARK                            x       y       z     vdW  Elec       q    Type
REMARK                         _______ _______ _______ _____ _____    ______ ____
ROOT
ATOM      1  C   UNL     1       2.318   6.586  19.041  0.00  0.00    +0.000 A 
ATOM      2  C   UNL     1       2.446   5.323  19.615  0.00  0.00    +0.000 A 
ATOM      3  C   UNL     1       3.364   4.393  19.112  0.00  0.00    +0.000 A 
ATOM      4  C   UNL     1       4.219   4.700  18.022  0.00  0.00    +0.000 A 
ATOM      5  C   UNL     1       5.175   3.796  17.488  0.00  0.00    +0.000 A 
ATOM      6  C   UNL     1       6.017   4.137  16.431  0.00  0.00    +0.000 A 
ATOM      7  C   UNL     1       5.939   5.401  15.878  0.00  0.00    +0.000 A 
ATOM      8  C   UNL     1       5.009   6.315  16.380  0.00  0.00    +0.000 A 
ATOM      9  C   UNL     1       4.123   5.994  17.440  0.00  0.00    +0.000 A 
ATOM     10  C   UNL     1       3.137   6.918  17.931  0.00  0.00    +0.000 A 
ENDROOT
BRANCH   3  11
ATOM     11  S   UNL     1       3.419   2.770  19.947  0.00  0.00    +0.000 S 
ATOM     12  O   UNL     1       2.659   3.017  21.168  0.00  0.00    +0.000 OA
ATOM     13  O   UNL     1       2.796   1.891  18.960  0.00  0.00    +0.000 OA
ATOM     14  O   UNL     1       4.847   2.535  20.154  0.00  0.00    +0.000 OA
ENDBRANCH   3  11
BRANCH  10  15
ATOM     15  N   UNL     1       3.093   8.261  17.434  0.00  0.00    +0.000 N 
ATOM     16  H   UNL     1       3.018   8.292  16.424  0.00  0.00    +0.000 HD
ATOM     17  H   UNL     1       2.338   8.771  17.888  0.00  0.00    +0.000 HD
ENDBRANCH  10  15
BRANCH   1  19
ATOM     18  N   UNL     1       1.858   8.136  20.565  0.00  0.00    +0.000 NA
ATOM     19  N   UNL     1       1.412   7.558  19.550  0.00  0.00    +0.000 NA
BRANCH  18  23
ATOM     20  C   UNL     1      -0.537  11.187  22.171  0.00  0.00    +0.000 A 
ATOM     21  C   UNL     1      -0.421  11.099  20.784  0.00  0.00    +0.000 A 
ATOM     22  C   UNL     1       0.375  10.095  20.222  0.00  0.00    +0.000 A 
ATOM     23  C   UNL     1       1.034   9.174  21.033  0.00  0.00    +0.000 A 
ATOM     24  C   UNL     1       0.886   9.361  22.405  0.00  0.00    +0.000 A 
ATOM     25  N   UNL     1       0.134  10.337  22.990  0.00  0.00    +0.000 NA
BRANCH  20  30
ATOM     26  C   UNL     1      -3.734  15.163  25.007  0.00  0.00    +0.000 C 
ATOM     27  C   UNL     1      -2.946  14.144  24.231  0.00  0.00    +0.000 A 
ATOM     28  C   UNL     1      -3.439  12.856  24.011  0.00  0.00    +0.000 A 
ATOM     29  C   UNL     1      -2.668  11.906  23.323  0.00  0.00    +0.000 A 
ATOM     30  C   UNL     1      -1.378  12.204  22.849  0.00  0.00    +0.000 A 
ATOM     31  C   UNL     1      -0.895  13.504  23.091  0.00  0.00    +0.000 A 
ATOM     32  C   UNL     1      -1.665  14.463  23.765  0.00  0.00    +0.000 A 
ENDBRANCH  20  30
ENDBRANCH  18  23
ENDBRANCH   1  19
TORSDOF 5
ENDMDL
MODEL 5
REMARK VINA RESULT:      -8.6      0.963      1.691
REMARK  Name = 
REMARK  6 active torsions:
REMARK  status: ('A' for Active; 'I' for Inactive)
REMARK    1  A    between atoms: C_1  and  C_2
REMARK    2  A    between atoms: C_5  and  C_6
REMARK    3  A    between atoms: C_9  and  N_10
REMARK    4  A    between atoms: N_11  and  C_12
REMARK    5  A    between atoms: C_14  and  S_15
REMARK    6  A    between atoms: C_25  and  N_26
REMARK                            x       y       z     vdW  Elec       q    Type
REMARK                         _______ _______ _______ _____ _____    ______ ____
ROOT
ATOM      1  C   UNL     1       2.267   6.850  19.941  0.00  0.00    +0.000 A 
ATOM      2  C   UNL     1       2.202   5.586  20.523  0.00  0.00    +0.000 A 
ATOM      3  C   UNL     1       2.770   4.473  19.891  0.00  0.00    +0.000 A 
ATOM      4  C   UNL     1       3.456   4.584  18.654  0.00  0.00    +0.000 A 
ATOM      5  C   UNL     1       4.060   3.488  17.983  0.00  0.00    +0.000 A 
ATOM      6  C   UNL     1       4.747   3.635  16.780  0.00  0.00    +0.000 A 
ATOM      7  C   UNL     1       4.864   4.888  16.210  0.00  0.00    +0.000 A 
ATOM      8  C   UNL     1       4.282   5.988  16.844  0.00  0.00    +0.000 A 
ATOM      9  C   UNL     1       3.556   5.872  18.058  0.00  0.00    +0.000 A 
ATOM     10  C   UNL     1       2.921   6.995  18.691  0.00  0.00    +0.000 A 
ENDROOT
BRANCH   3  11
ATOM     11  S   UNL     1       2.599   2.873  20.753  0.00  0.00    +0.000 S 
ATOM     12  O   UNL     1       2.115   3.273  22.070  0.00  0.00    +0.000 OA
ATOM     13  O   UNL     1       1.651   2.159  19.901  0.00  0.00    +0.000 OA
ATOM     14  O   UNL     1       3.956   2.327  20.742  0.00  0.00    +0.000 OA
ENDBRANCH   3  11
BRANCH  10  15
ATOM     15  N   UNL     1       3.098   8.317  18.168  0.00  0.00    +0.000 N 
ATOM     16  H   UNL     1       3.746   8.863  18.723  0.00  0.00    +0.000 HD
ATOM     17  H   UNL     1       3.382   8.265  17.192  0.00  0.00    +0.000 HD
ENDBRANCH  10  15
BRANCH   1  19
ATOM     18  N   UNL     1       0.794   8.514  19.912  0.00  0.00    +0.000 NA
ATOM     19  N   UNL     1       1.722   8.001  20.576  0.00  0.00    +0.000 NA
BRANCH  18  23
ATOM     20  C   UNL     1      -0.973  11.680  22.029  0.00  0.00    +0.000 A 
ATOM     21  C   UNL     1      -1.225  11.577  20.661  0.00  0.00    +0.000 A 
ATOM     22  C   UNL     1      -0.645  10.535  19.930  0.00  0.00    +0.000 A 
ATOM     23  C   UNL     1       0.164   9.591  20.558  0.00  0.00    +0.000 A 
ATOM     24  C   UNL     1       0.385   9.794  21.918  0.00  0.00    +0.000 A 
ATOM     25  N   UNL     1      -0.148  10.806  22.661  0.00  0.00    +0.000 NA
BRANCH  20  30
ATOM     26  C   UNL     1      -3.419  15.901  25.232  0.00  0.00    +0.000 C 
ATOM     27  C   UNL     1      -2.754  14.802  24.452  0.00  0.00    +0.000 A 
ATOM     28  C   UNL     1      -1.466  14.954  23.933  0.00  0.00    +0.000 A 
ATOM     29  C   UNL     1      -0.880  13.933  23.169  0.00  0.00    +0.000 A 
ATOM     30  C   UNL     1      -1.565  12.738  22.883  0.00  0.00    +0.000 A 
ATOM     31  C   UNL     1      -2.866  12.610  23.405  0.00  0.00    +0.000 A 
ATOM     32  C   UNL     1      -3.452  13.620  24.181  0.00  0.00    +0.000 A 
ENDBRANCH  20  30
ENDBRANCH  18  23
ENDBRANCH   1  19
TORSDOF 5
ENDMDL
MODEL 6
REMARK VINA RESULT:      -8.5      0.838      1.351
REMARK  Name = 
REMARK  6 active torsions:
REMARK  status: ('A' for Active; 'I' for Inactive)
REMARK    1  A    between atoms: C_1  and  C_2
REMARK    2  A    between atoms: C_5  and  C_6
REMARK    3  A    between atoms: C_9  and  N_10
REMARK    4  A    between atoms: N_11  and  C_12
REMARK    5  A    between atoms: C_14  and  S_15
REMARK    6  A    between atoms: C_25  and  N_26
REMARK                            x       y       z     vdW  Elec       q    Type
REMARK                         _______ _______ _______ _____ _____    ______ ____
ROOT
ATOM      1  C   UNL     1       1.811   6.724  19.880  0.00  0.00    +0.000 A 
ATOM      2  C   UNL     1       1.875   5.469  20.483  0.00  0.00    +0.000 A 
ATOM      3  C   UNL     1       2.703   4.465  19.967  0.00  0.00    +0.000 A 
ATOM      4  C   UNL     1       3.528   4.683  18.834  0.00  0.00    +0.000 A 
ATOM      5  C   UNL     1       4.394   3.701  18.284  0.00  0.00    +0.000 A 
ATOM      6  C   UNL     1       5.209   3.956  17.182  0.00  0.00    +0.000 A 
ATOM      7  C   UNL     1       5.194   5.208  16.599  0.00  0.00    +0.000 A 
ATOM      8  C   UNL     1       4.354   6.198  17.115  0.00  0.00    +0.000 A 
ATOM      9  C   UNL     1       3.496   5.966  18.221  0.00  0.00    +0.000 A 
ATOM     10  C   UNL     1       2.600   6.969  18.728  0.00  0.00    +0.000 A 
ENDROOT
BRANCH   3  11
ATOM     11  S   UNL     1       2.681   2.863  20.843  0.00  0.00    +0.000 S 
ATOM     12  O   UNL     1       4.084   2.463  20.806  0.00  0.00    +0.000 OA
ATOM     13  O   UNL     1       2.144   3.230  22.151  0.00  0.00    +0.000 OA
ATOM     14  O   UNL     1       1.789   2.036  20.031  0.00  0.00    +0.000 OA
ENDBRANCH   3  11
BRANCH  10  15
ATOM     15  N   UNL     1       2.627   8.300  18.197  0.00  0.00    +0.000 N 
ATOM     16  H   UNL     1       2.776   8.996  18.918  0.00  0.00    +0.000 HD
ATOM     17  H   UNL     1       3.325   8.361  17.459  0.00  0.00    +0.000 HD
ENDBRANCH  10  15
BRANCH   1  19
ATOM     18  N   UNL     1       1.670   8.640  20.996  0.00  0.00    +0.000 NA
ATOM     19  N   UNL     1       0.998   7.770  20.400  0.00  0.00    +0.000 NA
BRANCH  18  23
ATOM     20  C   UNL     1      -0.636  11.814  22.492  0.00  0.00    +0.000 A 
ATOM     21  C   UNL     1       0.046  12.002  21.290  0.00  0.00    +0.000 A 
ATOM     22  C   UNL     1       0.826  10.962  20.771  0.00  0.00    +0.000 A 
ATOM     23  C   UNL     1       0.911   9.740  21.433  0.00  0.00    +0.000 A 
ATOM     24  C   UNL     1       0.224   9.657  22.641  0.00  0.00    +0.000 A 
ATOM     25  N   UNL     1      -0.532  10.653  23.187  0.00  0.00    +0.000 NA
BRANCH  20  30
ATOM     26  C   UNL     1      -3.945  15.879  25.059  0.00  0.00    +0.000 C 
ATOM     27  C   UNL     1      -3.125  14.837  24.350  0.00  0.00    +0.000 A 
ATOM     28  C   UNL     1      -3.617  13.547  24.135  0.00  0.00    +0.000 A 
ATOM     29  C   UNL     1      -2.819  12.575  23.511  0.00  0.00    +0.000 A 
ATOM     30  C   UNL     1      -1.503  12.853  23.100  0.00  0.00    +0.000 A 
ATOM     31  C   UNL     1      -1.022  14.155  23.338  0.00  0.00    +0.000 A 
ATOM     32  C   UNL     1      -1.819  15.135  23.947  0.00  0.00    +0.000 A 
ENDBRANCH  20  30
ENDBRANCH  18  23
ENDBRANCH   1  19
TORSDOF 5
ENDMDL
MODEL 7
REMARK VINA RESULT:      -8.1      1.040      1.450
REMARK  Name = 
REMARK  6 active torsions:
REMARK  status: ('A' for Active; 'I' for Inactive)
REMARK    1  A    between atoms: C_1  and  C_2
REMARK    2  A    between atoms: C_5  and  C_6
REMARK    3  A    between atoms: C_9  and  N_10
REMARK    4  A    between atoms: N_11  and  C_12
REMARK    5  A    between atoms: C_14  and  S_15
REMARK    6  A    between atoms: C_25  and  N_26
REMARK                            x       y       z     vdW  Elec       q    Type
REMARK                         _______ _______ _______ _____ _____    ______ ____
ROOT
ATOM      1  C   UNL     1       2.721   6.591  19.386  0.00  0.00    +0.000 A 
ATOM      2  C   UNL     1       2.791   5.267  19.816  0.00  0.00    +0.000 A 
ATOM      3  C   UNL     1       3.467   4.301  19.061  0.00  0.00    +0.000 A 
ATOM      4  C   UNL     1       4.129   4.626  17.849  0.00  0.00    +0.000 A 
ATOM      5  C   UNL     1       4.839   3.685  17.058  0.00  0.00    +0.000 A 
ATOM      6  C   UNL     1       5.498   4.042  15.883  0.00  0.00    +0.000 A 
ATOM      7  C   UNL     1       5.480   5.358  15.464  0.00  0.00    +0.000 A 
ATOM      8  C   UNL     1       4.791   6.310  16.220  0.00  0.00    +0.000 A 
ATOM      9  C   UNL     1       4.091   5.978  17.408  0.00  0.00    +0.000 A 
ATOM     10  C   UNL     1       3.347   6.947  18.165  0.00  0.00    +0.000 A 
ENDROOT
BRANCH   3  11
ATOM     11  S   UNL     1       3.470   2.602  19.730  0.00  0.00    +0.000 S 
ATOM     12  O   UNL     1       4.892   2.342  19.926  0.00  0.00    +0.000 OA
ATOM     13  O   UNL     1       2.661   2.741  20.938  0.00  0.00    +0.000 OA
ATOM     14  O   UNL     1       2.847   1.811  18.669  0.00  0.00    +0.000 OA
ENDBRANCH   3  11
BRANCH  10  15
ATOM     15  N   UNL     1       3.382   8.332  17.800  0.00  0.00    +0.000 N 
ATOM     16  H   UNL     1       2.580   8.840  18.153  0.00  0.00    +0.000 HD
ATOM     17  H   UNL     1       4.260   8.746  18.107  0.00  0.00    +0.000 HD
ENDBRANCH  10  15
BRANCH   1  19
ATOM     18  N   UNL     1       1.401   8.379  19.430  0.00  0.00    +0.000 NA
ATOM     19  N   UNL     1       2.063   7.597  20.148  0.00  0.00    +0.000 NA
BRANCH  18  23
ATOM     20  C   UNL     1      -0.933  11.248  21.416  0.00  0.00    +0.000 A 
ATOM     21  C   UNL     1      -0.103  10.428  22.180  0.00  0.00    +0.000 A 
ATOM     22  C   UNL     1       0.682   9.460  21.544  0.00  0.00    +0.000 A 
ATOM     23  C   UNL     1       0.656   9.322  20.159  0.00  0.00    +0.000 A 
ATOM     24  C   UNL     1      -0.226  10.161  19.484  0.00  0.00    +0.000 A 
ATOM     25  N   UNL     1      -1.020  11.104  20.069  0.00  0.00    +0.000 NA
BRANCH  20  30
ATOM     26  C   UNL     1      -4.188  15.575  23.596  0.00  0.00    +0.000 C 
ATOM     27  C   UNL     1      -3.369  14.426  23.077  0.00  0.00    +0.000 A 
ATOM     28  C   UNL     1      -2.211  14.003  23.734  0.00  0.00    +0.000 A 
ATOM     29  C   UNL     1      -1.435  12.957  23.208  0.00  0.00    +0.000 A 
ATOM     30  C   UNL     1      -1.780  12.315  22.005  0.00  0.00    +0.000 A 
ATOM     31  C   UNL     1      -2.943  12.764  21.353  0.00  0.00    +0.000 A 
ATOM     32  C   UNL     1      -3.731  13.799  21.880  0.00  0.00    +0.000 A 
ENDBRANCH  20  30
ENDBRANCH  18  23
ENDBRANCH   1  19
TORSDOF 5
ENDMDL
MODEL 8
REMARK VINA RESULT:      -8.0      2.137      2.896
REMARK  Name = 
REMARK  6 active torsions:
REMARK  status: ('A' for Active; 'I' for Inactive)
REMARK    1  A    between atoms: C_1  and  C_2
REMARK    2  A    between atoms: C_5  and  C_6
REMARK    3  A    between atoms: C_9  and  N_10
REMARK    4  A    between atoms: N_11  and  C_12
REMARK    5  A    between atoms: C_14  and  S_15
REMARK    6  A    between atoms: C_25  and  N_26
REMARK                            x       y       z     vdW  Elec       q    Type
REMARK                         _______ _______ _______ _____ _____    ______ ____
ROOT
ATOM      1  C   UNL     1       2.187   6.048  20.006  0.00  0.00    +0.000 A 
ATOM      2  C   UNL     1       3.211   6.461  19.156  0.00  0.00    +0.000 A 
ATOM      3  C   UNL     1       3.898   5.539  18.357  0.00  0.00    +0.000 A 
ATOM      4  C   UNL     1       3.569   4.159  18.355  0.00  0.00    +0.000 A 
ATOM      5  C   UNL     1       4.227   3.190  17.552  0.00  0.00    +0.000 A 
ATOM      6  C   UNL     1       3.864   1.844  17.556  0.00  0.00    +0.000 A 
ATOM      7  C   UNL     1       2.820   1.423  18.357  0.00  0.00    +0.000 A 
ATOM      8  C   UNL     1       2.150   2.351  19.159  0.00  0.00    +0.000 A 
ATOM      9  C   UNL     1       2.508   3.723  19.196  0.00  0.00    +0.000 A 
ATOM     10  C   UNL     1       1.849   4.672  20.051  0.00  0.00    +0.000 A 
ENDROOT
BRANCH   3  11
ATOM     11  S   UNL     1       5.229   6.210  17.302  0.00  0.00    +0.000 S 
ATOM     12  O   UNL     1       6.430   5.651  17.914  0.00  0.00    +0.000 OA
ATOM     13  O   UNL     1       4.871   5.693  15.983  0.00  0.00    +0.000 OA
ATOM     14  O   UNL     1       5.088   7.658  17.445  0.00  0.00    +0.000 OA
ENDBRANCH   3  11
BRANCH  10  15
ATOM     15  N   UNL     1       0.709   4.279  20.825  0.00  0.00    +0.000 N 
ATOM     16  H   UNL     1      -0.092   4.064  20.243  0.00  0.00    +0.000 HD
ATOM     17  H   UNL     1       0.958   3.502  21.433  0.00  0.00    +0.000 HD
ENDBRANCH  10  15
BRANCH   1  19
ATOM     18  N   UNL     1       1.637   8.155  20.453  0.00  0.00    +0.000 NA
ATOM     19  N   UNL     1       1.455   6.969  20.807  0.00  0.00    +0.000 NA
BRANCH  18  23
ATOM     20  C   UNL     1      -0.732  11.046  22.365  0.00  0.00    +0.000 A 
ATOM     21  C   UNL     1      -0.416   9.882  23.065  0.00  0.00    +0.000 A 
ATOM     22  C   UNL     1       0.368   8.900  22.451  0.00  0.00    +0.000 A 
ATOM     23  C   UNL     1       0.850   9.082  21.157  0.00  0.00    +0.000 A 
ATOM     24  C   UNL     1       0.455  10.258  20.525  0.00  0.00    +0.000 A 
ATOM     25  N   UNL     1      -0.322  11.231  21.084  0.00  0.00    +0.000 NA
BRANCH  20  30
ATOM     26  C   UNL     1      -3.786  15.366  24.831  0.00  0.00    +0.000 C 
ATOM     27  C   UNL     1      -3.035  14.255  24.149  0.00  0.00    +0.000 A 
ATOM     28  C   UNL     1      -3.571  12.969  24.049  0.00  0.00    +0.000 A 
ATOM     29  C   UNL     1      -2.834  11.936  23.449  0.00  0.00    +0.000 A 
ATOM     30  C   UNL     1      -1.536  12.148  22.948  0.00  0.00    +0.000 A 
ATOM     31  C   UNL     1      -1.011  13.448  23.070  0.00  0.00    +0.000 A 
ATOM     32  C   UNL     1      -1.747  14.488  23.655  0.00  0.00    +0.000 A 
ENDBRANCH  20  30
ENDBRANCH  18  23
ENDBRANCH   1  19
TORSDOF 5
ENDMDL
MODEL 9
REMARK VINA RESULT:      -7.9      2.266      3.188
REMARK  Name = 
REMARK  6 active torsions:
REMARK  status: ('A' for Active; 'I' for Inactive)
REMARK    1  A    between atoms: C_1  and  C_2
REMARK    2  A    between atoms: C_5  and  C_6
REMARK    3  A    between atoms: C_9  and  N_10
REMARK    4  A    between atoms: N_11  and  C_12
REMARK    5  A    between atoms: C_14  and  S_15
REMARK    6  A    between atoms: C_25  and  N_26
REMARK                            x       y       z     vdW  Elec       q    Type
REMARK                         _______ _______ _______ _____ _____    ______ ____
ROOT
ATOM      1  C   UNL     1       2.709   6.602  19.466  0.00  0.00    +0.000 A 
ATOM      2  C   UNL     1       3.747   6.773  18.552  0.00  0.00    +0.000 A 
ATOM      3  C   UNL     1       4.289   5.679  17.866  0.00  0.00    +0.000 A 
ATOM      4  C   UNL     1       3.794   4.361  18.048  0.00  0.00    +0.000 A 
ATOM      5  C   UNL     1       4.301   3.224  17.366  0.00  0.00    +0.000 A 
ATOM      6  C   UNL     1       3.776   1.946  17.551  0.00  0.00    +0.000 A 
ATOM      7  C   UNL     1       2.716   1.763  18.417  0.00  0.00    +0.000 A 
ATOM      8  C   UNL     1       2.193   2.861  19.105  0.00  0.00    +0.000 A 
ATOM      9  C   UNL     1       2.717   4.171  18.958  0.00  0.00    +0.000 A 
ATOM     10  C   UNL     1       2.208   5.296  19.695  0.00  0.00    +0.000 A 
ENDROOT
BRANCH   3  11
ATOM     11  S   UNL     1       5.655   6.038  16.709  0.00  0.00    +0.000 S 
ATOM     12  O   UNL     1       5.911   7.454  16.953  0.00  0.00    +0.000 OA
ATOM     13  O   UNL     1       6.689   5.105  17.148  0.00  0.00    +0.000 OA
ATOM     14  O   UNL     1       5.084   5.739  15.397  0.00  0.00    +0.000 OA
ENDBRANCH   3  11
BRANCH  10  15
ATOM     15  N   UNL     1       1.056   5.150  20.534  0.00  0.00    +0.000 N 
ATOM     16  H   UNL     1       0.631   6.042  20.759  0.00  0.00    +0.000 HD
ATOM     17  H   UNL     1       0.393   4.511  20.100  0.00  0.00    +0.000 HD
ENDBRANCH  10  15
BRANCH   1  19
ATOM     18  N   UNL     1       1.343   8.354  19.428  0.00  0.00    +0.000 NA
ATOM     19  N   UNL     1       2.123   7.701  20.155  0.00  0.00    +0.000 NA
BRANCH  18  23
ATOM     20  C   UNL     1      -0.564  11.370  21.640  0.00  0.00    +0.000 A 
ATOM     21  C   UNL     1      -0.761  11.338  20.260  0.00  0.00    +0.000 A 
ATOM     22  C   UNL     1      -0.134  10.347  19.498  0.00  0.00    +0.000 A 
ATOM     23  C   UNL     1       0.668   9.384  20.106  0.00  0.00    +0.000 A 
ATOM     24  C   UNL     1       0.833   9.516  21.482  0.00  0.00    +0.000 A 
ATOM     25  N   UNL     1       0.252  10.478  22.257  0.00  0.00    +0.000 NA
BRANCH  20  30
ATOM     26  C   UNL     1      -3.228  15.354  24.971  0.00  0.00    +0.000 C 
ATOM     27  C   UNL     1      -2.504  14.319  24.156  0.00  0.00    +0.000 A 
ATOM     28  C   UNL     1      -1.256  14.583  23.588  0.00  0.00    +0.000 A 
ATOM     29  C   UNL     1      -0.617  13.619  22.792  0.00  0.00    +0.000 A 
ATOM     30  C   UNL     1      -1.209  12.371  22.526  0.00  0.00    +0.000 A 
ATOM     31  C   UNL     1      -2.472  12.130  23.099  0.00  0.00    +0.000 A 
ATOM     32  C   UNL     1      -3.110  13.083  23.905  0.00  0.00    +0.000 A 
ENDBRANCH  20  30
ENDBRANCH  18  23
ENDBRANCH   1  19
TORSDOF 5
ENDMDL
