MODEL 1
REMARK VINA RESULT:      -8.5      0.000      0.000
REMARK  Name = 
REMARK  5 active torsions:
REMARK  status: ('A' for Active; 'I' for Inactive)
REMARK    1  A    between atoms: C_2  and  C_10
REMARK    2  A    between atoms: N_3  and  C_4
REMARK    3  A    between atoms: C_15  and  O_16
REMARK    4  A    between atoms: O_16  and  C_17
REMARK    5  A    between atoms: C_17  and  C_18
REMARK                            x       y       z     vdW  Elec       q    Type
REMARK                         _______ _______ _______ _____ _____    ______ ____
ROOT
ATOM      1  C   UNL     1       3.518   3.715  19.599  0.00  0.00    +0.000 A 
ATOM      2  C   UNL     1       3.484   2.658  20.532  0.00  0.00    +0.000 A 
ATOM      3  C   UNL     1       2.394   2.485  21.383  0.00  0.00    +0.000 A 
ATOM      4  C   UNL     1       1.295   3.324  21.271  0.00  0.00    +0.000 A 
ATOM      5  C   UNL     1       1.288   4.338  20.314  0.00  0.00    +0.000 A 
ATOM      6  C   UNL     1       2.406   4.573  19.492  0.00  0.00    +0.000 A 
ENDROOT
BRANCH   1   8
ATOM      7  O   UNL     1       5.856   3.888  19.261  0.00  0.00    +0.000 OA
ATOM      8  C   UNL     1       4.746   3.883  18.747  0.00  0.00    +0.000 C 
ATOM      9  N   UNL     1       4.479   4.055  17.392  0.00  0.00    +0.000 N 
ATOM     10  H   UNL     1       3.516   3.963  17.096  0.00  0.00    +0.000 HD
BRANCH   9  11
ATOM     11  C   UNL     1       5.399   4.338  16.356  0.00  0.00    +0.000 A 
ATOM     12  C   UNL     1       5.445   3.679  15.135  0.00  0.00    +0.000 A 
ATOM     13  C   UNL     1       6.406   4.042  14.186  0.00  0.00    +0.000 A 
ATOM     14  C   UNL     1       7.298   5.053  14.497  0.00  0.00    +0.000 A 
ATOM     15  N   UNL     1       7.292   5.720  15.670  0.00  0.00    +0.000 NA
ATOM     16  C   UNL     1       6.345   5.348  16.563  0.00  0.00    +0.000 A 
ENDBRANCH   9  11
ENDBRANCH   1   8
BRANCH   6  17
ATOM     17  O   UNL     1       2.459   5.622  18.604  0.00  0.00    +0.000 OA
BRANCH  17  18
ATOM     18  C   UNL     1       3.012   6.839  19.113  0.00  0.00    +0.000 C 
BRANCH  18  19
ATOM     19  C   UNL     1       2.029   7.984  19.149  0.00  0.00    +0.000 A 
ATOM     20  C   UNL     1       1.692   8.739  18.018  0.00  0.00    +0.000 A 
ATOM     21  C   UNL     1       0.790   9.803  18.122  0.00  0.00    +0.000 A 
ATOM     22  C   UNL     1       0.211  10.119  19.352  0.00  0.00    +0.000 A 
ATOM     23  C   UNL     1       0.530   9.361  20.468  0.00  0.00    +0.000 A 
ATOM     24  F   UNL     1      -0.026   9.655  21.652  0.00  0.00    +0.000 F 
ATOM     25  C   UNL     1       1.426   8.300  20.378  0.00  0.00    +0.000 A 
ENDBRANCH  18  19
ENDBRANCH  17  18
ENDBRANCH   6  17
TORSDOF 5
ENDMDL
MODEL 2
REMARK VINA RESULT:      -8.4      0.816      1.288
REMARK  Name = 
REMARK  5 active torsions:
REMARK  status: ('A' for Active; 'I' for Inactive)
REMARK    1  A    between atoms: C_2  and  C_10
REMARK    2  A    between atoms: N_3  and  C_4
REMARK    3  A    between atoms: C_15  and  O_16
REMARK    4  A    between atoms: O_16  and  C_17
REMARK    5  A    between atoms: C_17  and  C_18
REMARK                            x       y       z     vdW  Elec       q    Type
REMARK                         _______ _______ _______ _____ _____    ______ ____
ROOT
ATOM      1  C   UNL     1       3.522   3.728  19.513  0.00  0.00    +0.000 A 
ATOM      2  C   UNL     1       3.519   2.657  20.431  0.00  0.00    +0.000 A 
ATOM      3  C   UNL     1       2.439   2.445  21.286  0.00  0.00    +0.000 A 
ATOM      4  C   UNL     1       1.320   3.258  21.193  0.00  0.00    +0.000 A 
ATOM      5  C   UNL     1       1.282   4.285  20.251  0.00  0.00    +0.000 A 
ATOM      6  C   UNL     1       2.389   4.559  19.426  0.00  0.00    +0.000 A 
ENDROOT
BRANCH   1   8
ATOM      7  O   UNL     1       5.843   4.051  19.173  0.00  0.00    +0.000 OA
ATOM      8  C   UNL     1       4.740   3.938  18.657  0.00  0.00    +0.000 C 
ATOM      9  N   UNL     1       4.471   4.017  17.294  0.00  0.00    +0.000 N 
ATOM     10  H   UNL     1       3.518   3.839  17.001  0.00  0.00    +0.000 HD
BRANCH   9  11
ATOM     11  C   UNL     1       5.374   4.311  16.247  0.00  0.00    +0.000 A 
ATOM     12  C   UNL     1       5.362   3.706  14.997  0.00  0.00    +0.000 A 
ATOM     13  C   UNL     1       6.312   4.072  14.038  0.00  0.00    +0.000 A 
ATOM     14  C   UNL     1       7.252   5.033  14.369  0.00  0.00    +0.000 A 
ATOM     15  N   UNL     1       7.304   5.646  15.570  0.00  0.00    +0.000 NA
ATOM     16  C   UNL     1       6.365   5.271  16.472  0.00  0.00    +0.000 A 
ENDBRANCH   9  11
ENDBRANCH   1   8
BRANCH   6  17
ATOM     17  O   UNL     1       2.411   5.622  18.553  0.00  0.00    +0.000 OA
BRANCH  17  18
ATOM     18  C   UNL     1       3.009   6.822  19.051  0.00  0.00    +0.000 C 
BRANCH  18  19
ATOM     19  C   UNL     1       2.009   7.834  19.558  0.00  0.00    +0.000 A 
ATOM     20  C   UNL     1       1.485   7.807  20.856  0.00  0.00    +0.000 A 
ATOM     21  C   UNL     1       0.544   8.761  21.257  0.00  0.00    +0.000 A 
ATOM     22  C   UNL     1       0.124   9.754  20.371  0.00  0.00    +0.000 A 
ATOM     23  C   UNL     1       0.657   9.792  19.092  0.00  0.00    +0.000 A 
ATOM     24  F   UNL     1       0.262  10.745  18.236  0.00  0.00    +0.000 F 
ATOM     25  C   UNL     1       1.593   8.848  18.680  0.00  0.00    +0.000 A 
ENDBRANCH  18  19
ENDBRANCH  17  18
ENDBRANCH   6  17
TORSDOF 5
ENDMDL
MODEL 3
REMARK VINA RESULT:      -8.1      4.095      7.331
REMARK  Name = 
REMARK  5 active torsions:
REMARK  status: ('A' for Active; 'I' for Inactive)
REMARK    1  A    between atoms: C_2  and  C_10
REMARK    2  A    between atoms: N_3  and  C_4
REMARK    3  A    between atoms: C_15  and  O_16
REMARK    4  A    between atoms: O_16  and  C_17
REMARK    5  A    between atoms: C_17  and  C_18
REMARK                            x       y       z     vdW  Elec       q    Type
REMARK                         _______ _______ _______ _____ _____    ______ ____
ROOT
ATOM      1  C   UNL     1       6.156   5.451  18.547  0.00  0.00    +0.000 A 
ATOM      2  C   UNL     1       7.179   5.845  19.434  0.00  0.00    +0.000 A 
ATOM      3  C   UNL     1       8.148   6.770  19.050  0.00  0.00    +0.000 A 
ATOM      4  C   UNL     1       8.072   7.364  17.799  0.00  0.00    +0.000 A 
ATOM      5  C   UNL     1       7.033   7.029  16.931  0.00  0.00    +0.000 A 
ATOM      6  C   UNL     1       6.085   6.048  17.273  0.00  0.00    +0.000 A 
ENDROOT
BRANCH   1   8
ATOM      7  O   UNL     1       5.563   3.296  19.329  0.00  0.00    +0.000 OA
ATOM      8  C   UNL     1       5.172   4.408  19.001  0.00  0.00    +0.000 C 
ATOM      9  N   UNL     1       3.845   4.825  18.970  0.00  0.00    +0.000 N 
ATOM     10  H   UNL     1       3.672   5.795  18.740  0.00  0.00    +0.000 HD
BRANCH   9  11
ATOM     11  C   UNL     1       2.688   4.056  19.232  0.00  0.00    +0.000 A 
ATOM     12  C   UNL     1       2.069   3.954  20.470  0.00  0.00    +0.000 A 
ATOM     13  C   UNL     1       0.929   3.156  20.614  0.00  0.00    +0.000 A 
ATOM     14  C   UNL     1       0.451   2.476  19.506  0.00  0.00    +0.000 A 
ATOM     15  N   UNL     1       1.020   2.544  18.285  0.00  0.00    +0.000 NA
ATOM     16  C   UNL     1       2.118   3.330  18.181  0.00  0.00    +0.000 A 
ENDBRANCH   9  11
ENDBRANCH   1   8
BRANCH   6  17
ATOM     17  O   UNL     1       5.106   5.635  16.400  0.00  0.00    +0.000 OA
BRANCH  17  18
ATOM     18  C   UNL     1       5.263   4.316  15.868  0.00  0.00    +0.000 C 
BRANCH  18  19
ATOM     19  C   UNL     1       5.883   4.286  14.492  0.00  0.00    +0.000 A 
ATOM     20  C   UNL     1       5.349   3.548  13.429  0.00  0.00    +0.000 A 
ATOM     21  C   UNL     1       5.985   3.544  12.183  0.00  0.00    +0.000 A 
ATOM     22  C   UNL     1       7.153   4.281  11.984  0.00  0.00    +0.000 A 
ATOM     23  C   UNL     1       7.672   5.026  13.032  0.00  0.00    +0.000 A 
ATOM     24  F   UNL     1       8.791   5.740  12.849  0.00  0.00    +0.000 F 
ATOM     25  C   UNL     1       7.050   5.038  14.276  0.00  0.00    +0.000 A 
ENDBRANCH  18  19
ENDBRANCH  17  18
ENDBRANCH   6  17
TORSDOF 5
ENDMDL
MODEL 4
REMARK VINA RESULT:      -8.1      1.712      5.105
REMARK  Name = 
REMARK  5 active torsions:
REMARK  status: ('A' for Active; 'I' for Inactive)
REMARK    1  A    between atoms: C_2  and  C_10
REMARK    2  A    between atoms: N_3  and  C_4
REMARK    3  A    between atoms: C_15  and  O_16
REMARK    4  A    between atoms: O_16  and  C_17
REMARK    5  A    between atoms: C_17  and  C_18
REMARK                            x       y       z     vdW  Elec       q    Type
REMARK                         _______ _______ _______ _____ _____    ______ ____
ROOT
ATOM      1  C   UNL     1       4.864   4.372  16.550  0.00  0.00    +0.000 A 
ATOM      2  C   UNL     1       5.522   3.550  15.612  0.00  0.00    +0.000 A 
ATOM      3  C   UNL     1       6.546   4.051  14.809  0.00  0.00    +0.000 A 
ATOM      4  C   UNL     1       6.971   5.361  14.977  0.00  0.00    +0.000 A 
ATOM      5  C   UNL     1       6.370   6.169  15.941  0.00  0.00    +0.000 A 
ATOM      6  C   UNL     1       5.289   5.704  16.713  0.00  0.00    +0.000 A 
ENDROOT
BRANCH   1   8
ATOM      7  O   UNL     1       2.735   3.358  16.778  0.00  0.00    +0.000 OA
ATOM      8  C   UNL     1       3.730   3.787  17.346  0.00  0.00    +0.000 C 
ATOM      9  N   UNL     1       3.923   3.826  18.724  0.00  0.00    +0.000 N 
ATOM     10  H   UNL     1       4.823   4.149  19.054  0.00  0.00    +0.000 HD
BRANCH   9  11
ATOM     11  C   UNL     1       3.011   3.456  19.738  0.00  0.00    +0.000 A 
ATOM     12  C   UNL     1       1.655   3.754  19.731  0.00  0.00    +0.000 A 
ATOM     13  C   UNL     1       0.847   3.341  20.795  0.00  0.00    +0.000 A 
ATOM     14  C   UNL     1       1.430   2.645  21.841  0.00  0.00    +0.000 A 
ATOM     15  N   UNL     1       2.742   2.334  21.891  0.00  0.00    +0.000 NA
ATOM     16  C   UNL     1       3.494   2.744  20.841  0.00  0.00    +0.000 A 
ENDBRANCH   9  11
ENDBRANCH   1   8
BRANCH   6  17
ATOM     17  O   UNL     1       4.621   6.510  17.604  0.00  0.00    +0.000 OA
BRANCH  17  18
ATOM     18  C   UNL     1       3.639   7.382  17.038  0.00  0.00    +0.000 C 
BRANCH  18  19
ATOM     19  C   UNL     1       2.710   7.995  18.058  0.00  0.00    +0.000 A 
ATOM     20  C   UNL     1       2.084   9.235  17.875  0.00  0.00    +0.000 A 
ATOM     21  C   UNL     1       1.252   9.759  18.870  0.00  0.00    +0.000 A 
ATOM     22  C   UNL     1       1.031   9.049  20.051  0.00  0.00    +0.000 A 
ATOM     23  C   UNL     1       1.635   7.814  20.225  0.00  0.00    +0.000 A 
ATOM     24  F   UNL     1       1.424   7.124  21.354  0.00  0.00    +0.000 F 
ATOM     25  C   UNL     1       2.466   7.282  19.243  0.00  0.00    +0.000 A 
ENDBRANCH  18  19
ENDBRANCH  17  18
ENDBRANCH   6  17
TORSDOF 5
ENDMDL
MODEL 5
REMARK VINA RESULT:      -8.1      2.148      6.131
REMARK  Name = 
REMARK  5 active torsions:
REMARK  status: ('A' for Active; 'I' for Inactive)
REMARK    1  A    between atoms: C_2  and  C_10
REMARK    2  A    between atoms: N_3  and  C_4
REMARK    3  A    between atoms: C_15  and  O_16
REMARK    4  A    between atoms: O_16  and  C_17
REMARK    5  A    between atoms: C_17  and  C_18
REMARK                            x       y       z     vdW  Elec       q    Type
REMARK                         _______ _______ _______ _____ _____    ______ ____
ROOT
ATOM      1  C   UNL     1       5.187   5.367  16.992  0.00  0.00    +0.000 A 
ATOM      2  C   UNL     1       6.428   5.868  16.548  0.00  0.00    +0.000 A 
ATOM      3  C   UNL     1       7.132   5.240  15.521  0.00  0.00    +0.000 A 
ATOM      4  C   UNL     1       6.577   4.142  14.881  0.00  0.00    +0.000 A 
ATOM      5  C   UNL     1       5.325   3.669  15.269  0.00  0.00    +0.000 A 
ATOM      6  C   UNL     1       4.629   4.246  16.348  0.00  0.00    +0.000 A 
ENDROOT
BRANCH   1   8
ATOM      7  O   UNL     1       4.816   5.790  19.293  0.00  0.00    +0.000 OA
ATOM      8  C   UNL     1       4.503   6.056  18.141  0.00  0.00    +0.000 C 
ATOM      9  N   UNL     1       3.508   6.950  17.757  0.00  0.00    +0.000 N 
ATOM     10  H   UNL     1       3.400   7.121  16.766  0.00  0.00    +0.000 HD
BRANCH   9  11
ATOM     11  C   UNL     1       2.620   7.669  18.590  0.00  0.00    +0.000 A 
ATOM     12  C   UNL     1       2.250   7.285  19.871  0.00  0.00    +0.000 A 
ATOM     13  C   UNL     1       1.357   8.075  20.603  0.00  0.00    +0.000 A 
ATOM     14  C   UNL     1       0.855   9.225  20.017  0.00  0.00    +0.000 A 
ATOM     15  N   UNL     1       1.185   9.636  18.776  0.00  0.00    +0.000 NA
ATOM     16  C   UNL     1       2.057   8.851  18.099  0.00  0.00    +0.000 A 
ENDBRANCH   9  11
ENDBRANCH   1   8
BRANCH   6  17
ATOM     17  O   UNL     1       3.436   3.741  16.808  0.00  0.00    +0.000 OA
BRANCH  17  18
ATOM     18  C   UNL     1       3.534   2.605  17.672  0.00  0.00    +0.000 C 
BRANCH  18  19
ATOM     19  C   UNL     1       2.958   2.838  19.049  0.00  0.00    +0.000 A 
ATOM     20  C   UNL     1       3.514   2.292  20.212  0.00  0.00    +0.000 A 
ATOM     21  C   UNL     1       2.919   2.527  21.456  0.00  0.00    +0.000 A 
ATOM     22  C   UNL     1       1.771   3.314  21.552  0.00  0.00    +0.000 A 
ATOM     23  C   UNL     1       1.230   3.870  20.402  0.00  0.00    +0.000 A 
ATOM     24  F   UNL     1       0.130   4.630  20.485  0.00  0.00    +0.000 F 
ATOM     25  C   UNL     1       1.812   3.642  19.159  0.00  0.00    +0.000 A 
ENDBRANCH  18  19
ENDBRANCH  17  18
ENDBRANCH   6  17
TORSDOF 5
ENDMDL
MODEL 6
REMARK VINA RESULT:      -8.1      2.521      5.250
REMARK  Name = 
REMARK  5 active torsions:
REMARK  status: ('A' for Active; 'I' for Inactive)
REMARK    1  A    between atoms: C_2  and  C_10
REMARK    2  A    between atoms: N_3  and  C_4
REMARK    3  A    between atoms: C_15  and  O_16
REMARK    4  A    between atoms: O_16  and  C_17
REMARK    5  A    between atoms: C_17  and  C_18
REMARK                            x       y       z     vdW  Elec       q    Type
REMARK                         _______ _______ _______ _____ _____    ______ ____
ROOT
ATOM      1  C   UNL     1       1.910   8.364  19.102  0.00  0.00    +0.000 A 
ATOM      2  C   UNL     1       1.197   9.574  18.971  0.00  0.00    +0.000 A 
ATOM      3  C   UNL     1       0.310   9.997  19.960  0.00  0.00    +0.000 A 
ATOM      4  C   UNL     1       0.171   9.252  21.121  0.00  0.00    +0.000 A 
ATOM      5  C   UNL     1       0.912   8.084  21.292  0.00  0.00    +0.000 A 
ATOM      6  C   UNL     1       1.761   7.603  20.278  0.00  0.00    +0.000 A 
ENDROOT
BRANCH   1   8
ATOM      7  O   UNL     1       2.693   8.438  16.868  0.00  0.00    +0.000 OA
ATOM      8  C   UNL     1       2.811   7.935  17.976  0.00  0.00    +0.000 C 
ATOM      9  N   UNL     1       3.713   6.932  18.320  0.00  0.00    +0.000 N 
ATOM     10  H   UNL     1       3.744   6.654  19.292  0.00  0.00    +0.000 HD
BRANCH   9  11
ATOM     11  C   UNL     1       4.612   6.247  17.471  0.00  0.00    +0.000 A 
ATOM     12  C   UNL     1       4.385   4.990  16.926  0.00  0.00    +0.000 A 
ATOM     13  C   UNL     1       5.352   4.405  16.102  0.00  0.00    +0.000 A 
ATOM     14  C   UNL     1       6.524   5.100  15.858  0.00  0.00    +0.000 A 
ATOM     15  N   UNL     1       6.788   6.322  16.366  0.00  0.00    +0.000 NA
ATOM     16  C   UNL     1       5.828   6.861  17.155  0.00  0.00    +0.000 A 
ENDBRANCH   9  11
ENDBRANCH   1   8
BRANCH   6  17
ATOM     17  O   UNL     1       2.433   6.408  20.385  0.00  0.00    +0.000 OA
BRANCH  17  18
ATOM     18  C   UNL     1       1.613   5.247  20.548  0.00  0.00    +0.000 C 
BRANCH  18  19
ATOM     19  C   UNL     1       2.098   4.047  19.771  0.00  0.00    +0.000 A 
ATOM     20  C   UNL     1       1.430   3.542  18.649  0.00  0.00    +0.000 A 
ATOM     21  C   UNL     1       1.919   2.412  17.985  0.00  0.00    +0.000 A 
ATOM     22  C   UNL     1       3.081   1.780  18.431  0.00  0.00    +0.000 A 
ATOM     23  C   UNL     1       3.753   2.291  19.531  0.00  0.00    +0.000 A 
ATOM     24  F   UNL     1       4.873   1.694  19.962  0.00  0.00    +0.000 F 
ATOM     25  C   UNL     1       3.276   3.414  20.199  0.00  0.00    +0.000 A 
ENDBRANCH  18  19
ENDBRANCH  17  18
ENDBRANCH   6  17
TORSDOF 5
ENDMDL
MODEL 7
REMARK VINA RESULT:      -8.0      1.742      5.186
REMARK  Name = 
REMARK  5 active torsions:
REMARK  status: ('A' for Active; 'I' for Inactive)
REMARK    1  A    between atoms: C_2  and  C_10
REMARK    2  A    between atoms: N_3  and  C_4
REMARK    3  A    between atoms: C_15  and  O_16
REMARK    4  A    between atoms: O_16  and  C_17
REMARK    5  A    between atoms: C_17  and  C_18
REMARK                            x       y       z     vdW  Elec       q    Type
REMARK                         _______ _______ _______ _____ _____    ______ ____
ROOT
ATOM      1  C   UNL     1       4.876   4.288  16.533  0.00  0.00    +0.000 A 
ATOM      2  C   UNL     1       5.507   3.481  15.563  0.00  0.00    +0.000 A 
ATOM      3  C   UNL     1       6.534   3.985  14.768  0.00  0.00    +0.000 A 
ATOM      4  C   UNL     1       6.991   5.278  14.973  0.00  0.00    +0.000 A 
ATOM      5  C   UNL     1       6.417   6.069  15.968  0.00  0.00    +0.000 A 
ATOM      6  C   UNL     1       5.333   5.604  16.735  0.00  0.00    +0.000 A 
ENDROOT
BRANCH   1   8
ATOM      7  O   UNL     1       2.760   3.244  16.744  0.00  0.00    +0.000 OA
ATOM      8  C   UNL     1       3.735   3.704  17.321  0.00  0.00    +0.000 C 
ATOM      9  N   UNL     1       3.900   3.780  18.701  0.00  0.00    +0.000 N 
ATOM     10  H   UNL     1       4.787   4.127  19.041  0.00  0.00    +0.000 HD
BRANCH   9  11
ATOM     11  C   UNL     1       2.973   3.420  19.706  0.00  0.00    +0.000 A 
ATOM     12  C   UNL     1       1.612   3.693  19.663  0.00  0.00    +0.000 A 
ATOM     13  C   UNL     1       0.790   3.293  20.722  0.00  0.00    +0.000 A 
ATOM     14  C   UNL     1       1.364   2.636  21.797  0.00  0.00    +0.000 A 
ATOM     15  N   UNL     1       2.679   2.351  21.882  0.00  0.00    +0.000 NA
ATOM     16  C   UNL     1       3.445   2.747  20.837  0.00  0.00    +0.000 A 
ENDBRANCH   9  11
ENDBRANCH   1   8
BRANCH   6  17
ATOM     17  O   UNL     1       4.692   6.396  17.658  0.00  0.00    +0.000 OA
BRANCH  17  18
ATOM     18  C   UNL     1       3.690   7.274  17.135  0.00  0.00    +0.000 C 
BRANCH  18  19
ATOM     19  C   UNL     1       2.771   7.843  18.188  0.00  0.00    +0.000 A 
ATOM     20  C   UNL     1       2.556   7.229  19.428  0.00  0.00    +0.000 A 
ATOM     21  C   UNL     1       1.674   7.796  20.354  0.00  0.00    +0.000 A 
ATOM     22  C   UNL     1       1.005   8.984  20.054  0.00  0.00    +0.000 A 
ATOM     23  C   UNL     1       1.232   9.602  18.834  0.00  0.00    +0.000 A 
ATOM     24  F   UNL     1       0.597  10.746  18.540  0.00  0.00    +0.000 F 
ATOM     25  C   UNL     1       2.106   9.047  17.905  0.00  0.00    +0.000 A 
ENDBRANCH  18  19
ENDBRANCH  17  18
ENDBRANCH   6  17
TORSDOF 5
ENDMDL
MODEL 8
REMARK VINA RESULT:      -8.0      4.160      7.371
REMARK  Name = 
REMARK  5 active torsions:
REMARK  status: ('A' for Active; 'I' for Inactive)
REMARK    1  A    between atoms: C_2  and  C_10
REMARK    2  A    between atoms: N_3  and  C_4
REMARK    3  A    between atoms: C_15  and  O_16
REMARK    4  A    between atoms: O_16  and  C_17
REMARK    5  A    between atoms: C_17  and  C_18
REMARK                            x       y       z     vdW  Elec       q    Type
REMARK                         _______ _______ _______ _____ _____    ______ ____
ROOT
ATOM      1  C   UNL     1       6.183   5.519  18.519  0.00  0.00    +0.000 A 
ATOM      2  C   UNL     1       7.226   5.894  19.391  0.00  0.00    +0.000 A 
ATOM      3  C   UNL     1       8.189   6.825  19.004  0.00  0.00    +0.000 A 
ATOM      4  C   UNL     1       8.088   7.442  17.766  0.00  0.00    +0.000 A 
ATOM      5  C   UNL     1       7.030   7.125  16.915  0.00  0.00    +0.000 A 
ATOM      6  C   UNL     1       6.087   6.139  17.258  0.00  0.00    +0.000 A 
ENDROOT
BRANCH   1   8
ATOM      7  O   UNL     1       5.604   3.354  19.286  0.00  0.00    +0.000 OA
ATOM      8  C   UNL     1       5.208   4.469  18.974  0.00  0.00    +0.000 C 
ATOM      9  N   UNL     1       3.879   4.883  18.962  0.00  0.00    +0.000 N 
ATOM     10  H   UNL     1       3.701   5.855  18.743  0.00  0.00    +0.000 HD
BRANCH   9  11
ATOM     11  C   UNL     1       2.727   4.109  19.230  0.00  0.00    +0.000 A 
ATOM     12  C   UNL     1       2.227   3.846  20.499  0.00  0.00    +0.000 A 
ATOM     13  C   UNL     1       1.079   3.059  20.644  0.00  0.00    +0.000 A 
ATOM     14  C   UNL     1       0.474   2.552  19.507  0.00  0.00    +0.000 A 
ATOM     15  N   UNL     1       0.925   2.780  18.256  0.00  0.00    +0.000 NA
ATOM     16  C   UNL     1       2.034   3.551  18.151  0.00  0.00    +0.000 A 
ENDBRANCH   9  11
ENDBRANCH   1   8
BRANCH   6  17
ATOM     17  O   UNL     1       5.088   5.745  16.398  0.00  0.00    +0.000 OA
BRANCH  17  18
ATOM     18  C   UNL     1       5.196   4.411  15.891  0.00  0.00    +0.000 C 
BRANCH  18  19
ATOM     19  C   UNL     1       5.878   4.327  14.546  0.00  0.00    +0.000 A 
ATOM     20  C   UNL     1       7.045   5.035  14.234  0.00  0.00    +0.000 A 
ATOM     21  C   UNL     1       7.615   4.931  12.961  0.00  0.00    +0.000 A 
ATOM     22  C   UNL     1       7.031   4.115  11.991  0.00  0.00    +0.000 A 
ATOM     23  C   UNL     1       5.886   3.400  12.305  0.00  0.00    +0.000 A 
ATOM     24  F   UNL     1       5.321   2.610  11.381  0.00  0.00    +0.000 F 
ATOM     25  C   UNL     1       5.308   3.495  13.568  0.00  0.00    +0.000 A 
ENDBRANCH  18  19
ENDBRANCH  17  18
ENDBRANCH   6  17
TORSDOF 5
ENDMDL
MODEL 9
REMARK VINA RESULT:      -7.9      2.448      6.209
REMARK  Name = 
REMARK  5 active torsions:
REMARK  status: ('A' for Active; 'I' for Inactive)
REMARK    1  A    between atoms: C_2  and  C_10
REMARK    2  A    between atoms: N_3  and  C_4
REMARK    3  A    between atoms: C_15  and  O_16
REMARK    4  A    between atoms: O_16  and  C_17
REMARK    5  A    between atoms: C_17  and  C_18
REMARK                            x       y       z     vdW  Elec       q    Type
REMARK                         _______ _______ _______ _____ _____    ______ ____
ROOT
ATOM      1  C   UNL     1       5.113   5.699  16.492  0.00  0.00    +0.000 A 
ATOM      2  C   UNL     1       5.323   5.958  15.122  0.00  0.00    +0.000 A 
ATOM      3  C   UNL     1       5.882   4.994  14.284  0.00  0.00    +0.000 A 
ATOM      4  C   UNL     1       6.178   3.737  14.787  0.00  0.00    +0.000 A 
ATOM      5  C   UNL     1       5.923   3.445  16.127  0.00  0.00    +0.000 A 
ATOM      6  C   UNL     1       5.424   4.424  17.005  0.00  0.00    +0.000 A 
ENDROOT
BRANCH   1   8
ATOM      7  O   UNL     1       5.247   7.771  17.631  0.00  0.00    +0.000 OA
ATOM      8  C   UNL     1       4.559   6.798  17.356  0.00  0.00    +0.000 C 
ATOM      9  N   UNL     1       3.261   6.570  17.804  0.00  0.00    +0.000 N 
ATOM     10  H   UNL     1       2.786   5.752  17.444  0.00  0.00    +0.000 HD
BRANCH   9  11
ATOM     11  C   UNL     1       2.505   7.353  18.706  0.00  0.00    +0.000 A 
ATOM     12  C   UNL     1       2.188   6.980  20.005  0.00  0.00    +0.000 A 
ATOM     13  C   UNL     1       1.426   7.836  20.808  0.00  0.00    +0.000 A 
ATOM     14  C   UNL     1       0.999   9.040  20.275  0.00  0.00    +0.000 A 
ATOM     15  N   UNL     1       1.281   9.443  19.019  0.00  0.00    +0.000 NA
ATOM     16  C   UNL     1       2.026   8.593  18.272  0.00  0.00    +0.000 A 
ENDBRANCH   9  11
ENDBRANCH   1   8
BRANCH   6  17
ATOM     17  O   UNL     1       5.250   4.188  18.348  0.00  0.00    +0.000 OA
BRANCH  17  18
ATOM     18  C   UNL     1       4.699   2.912  18.688  0.00  0.00    +0.000 C 
BRANCH  18  19
ATOM     19  C   UNL     1       3.250   2.968  19.109  0.00  0.00    +0.000 A 
ATOM     20  C   UNL     1       2.198   3.152  18.204  0.00  0.00    +0.000 A 
ATOM     21  C   UNL     1       0.878   3.218  18.660  0.00  0.00    +0.000 A 
ATOM     22  C   UNL     1       0.594   3.093  20.021  0.00  0.00    +0.000 A 
ATOM     23  C   UNL     1       1.635   2.892  20.915  0.00  0.00    +0.000 A 
ATOM     24  F   UNL     1       1.371   2.766  22.223  0.00  0.00    +0.000 F 
ATOM     25  C   UNL     1       2.952   2.826  20.474  0.00  0.00    +0.000 A 
ENDBRANCH  18  19
ENDBRANCH  17  18
ENDBRANCH   6  17
TORSDOF 5
ENDMDL
