MODEL 1
REMARK VINA RESULT:      -9.1      0.000      0.000
REMARK  Name = 
REMARK  2 active torsions:
REMARK  status: ('A' for Active; 'I' for Inactive)
REMARK    1  A    between atoms: C_5  and  C_6
REMARK    2  A    between atoms: C_11  and  C_12
REMARK                            x       y       z     vdW  Elec       q    Type
REMARK                         _______ _______ _______ _____ _____    ______ ____
ROOT
ATOM      1  C   UNL     1       4.252   5.579  18.527  0.00  0.00    +0.000 C 
ATOM      2  C   UNL     1       5.559   5.236  19.365  0.00  0.00    +0.000 C 
ATOM      3  C   UNL     1       6.501   4.908  18.286  0.00  0.00    +0.000 A 
ATOM      4  N   UNL     1       7.780   4.488  18.199  0.00  0.00    +0.000 N 
ATOM      5  N   UNL     1       8.149   4.276  16.906  0.00  0.00    +0.000 NA
ATOM      6  C   UNL     1       7.055   4.610  16.187  0.00  0.00    +0.000 A 
ATOM      7  C   UNL     1       6.017   5.019  17.021  0.00  0.00    +0.000 A 
ATOM      8  C   UNL     1       4.617   5.470  16.984  0.00  0.00    +0.000 C 
ATOM      9  H   UNL     1       8.455   4.309  18.937  0.00  0.00    +0.000 HD
ENDROOT
BRANCH   1  14
ATOM     10  F   UNL     1      -0.294   2.509  19.921  0.00  0.00    +0.000 F 
ATOM     11  C   UNL     1       0.796   3.212  19.587  0.00  0.00    +0.000 A 
ATOM     12  C   UNL     1       1.024   3.525  18.251  0.00  0.00    +0.000 A 
ATOM     13  C   UNL     1       2.152   4.271  17.898  0.00  0.00    +0.000 A 
ATOM     14  C   UNL     1       3.058   4.711  18.881  0.00  0.00    +0.000 A 
ATOM     15  C   UNL     1       2.813   4.376  20.223  0.00  0.00    +0.000 A 
ATOM     16  C   UNL     1       1.687   3.632  20.564  0.00  0.00    +0.000 A 
ATOM     17  F   UNL     1       1.467   3.332  21.853  0.00  0.00    +0.000 F 
ENDBRANCH   1  14
BRANCH   6  18
ATOM     18  C   UNL     1       7.010   4.511  14.715  0.00  0.00    +0.000 A 
ATOM     19  N   UNL     1       7.613   5.289  13.842  0.00  0.00    +0.000 NA
ATOM     20  N   UNL     1       7.257   4.807  12.602  0.00  0.00    +0.000 NA
ATOM     21  N   UNL     1       6.448   3.760  12.711  0.00  0.00    +0.000 NA
ATOM     22  N   UNL     1       6.297   3.577  14.031  0.00  0.00    +0.000 N 
ATOM     23  H   UNL     1       5.703   2.842  14.392  0.00  0.00    +0.000 HD
ENDBRANCH   6  18
TORSDOF 2
ENDMDL
MODEL 2
REMARK VINA RESULT:      -9.1      0.741      1.343
REMARK  Name = 
REMARK  2 active torsions:
REMARK  status: ('A' for Active; 'I' for Inactive)
REMARK    1  A    between atoms: C_5  and  C_6
REMARK    2  A    between atoms: C_11  and  C_12
REMARK                            x       y       z     vdW  Elec       q    Type
REMARK                         _______ _______ _______ _____ _____    ______ ____
ROOT
ATOM      1  C   UNL     1       4.300   5.830  18.537  0.00  0.00    +0.000 C 
ATOM      2  C   UNL     1       5.600   5.468  19.377  0.00  0.00    +0.000 C 
ATOM      3  C   UNL     1       6.519   5.063  18.304  0.00  0.00    +0.000 A 
ATOM      4  N   UNL     1       7.780   4.590  18.224  0.00  0.00    +0.000 N 
ATOM      5  N   UNL     1       8.129   4.316  16.937  0.00  0.00    +0.000 NA
ATOM      6  C   UNL     1       7.042   4.666  16.214  0.00  0.00    +0.000 A 
ATOM      7  C   UNL     1       6.029   5.146  17.039  0.00  0.00    +0.000 A 
ATOM      8  C   UNL     1       4.647   5.649  16.996  0.00  0.00    +0.000 C 
ATOM      9  H   UNL     1       8.454   4.413  18.963  0.00  0.00    +0.000 HD
ENDROOT
BRANCH   1  14
ATOM     10  F   UNL     1      -0.136   2.678  20.093  0.00  0.00    +0.000 F 
ATOM     11  C   UNL     1       0.897   3.439  19.709  0.00  0.00    +0.000 A 
ATOM     12  C   UNL     1       1.193   4.597  20.419  0.00  0.00    +0.000 A 
ATOM     13  C   UNL     1       2.278   5.388  20.032  0.00  0.00    +0.000 A 
ATOM     14  C   UNL     1       3.077   5.023  18.932  0.00  0.00    +0.000 A 
ATOM     15  C   UNL     1       2.754   3.854  18.224  0.00  0.00    +0.000 A 
ATOM     16  C   UNL     1       1.671   3.073  18.617  0.00  0.00    +0.000 A 
ATOM     17  F   UNL     1       1.386   1.955  17.932  0.00  0.00    +0.000 F 
ENDBRANCH   1  14
BRANCH   6  18
ATOM     18  C   UNL     1       6.981   4.514  14.747  0.00  0.00    +0.000 A 
ATOM     19  N   UNL     1       7.578   5.257  13.840  0.00  0.00    +0.000 NA
ATOM     20  N   UNL     1       7.206   4.732  12.622  0.00  0.00    +0.000 NA
ATOM     21  N   UNL     1       6.391   3.695  12.777  0.00  0.00    +0.000 NA
ATOM     22  N   UNL     1       6.254   3.561  14.105  0.00  0.00    +0.000 N 
ATOM     23  H   UNL     1       5.659   2.844  14.499  0.00  0.00    +0.000 HD
ENDBRANCH   6  18
TORSDOF 2
ENDMDL
MODEL 3
REMARK VINA RESULT:      -8.7      6.309      7.777
REMARK  Name = 
REMARK  2 active torsions:
REMARK  status: ('A' for Active; 'I' for Inactive)
REMARK    1  A    between atoms: C_5  and  C_6
REMARK    2  A    between atoms: C_11  and  C_12
REMARK                            x       y       z     vdW  Elec       q    Type
REMARK                         _______ _______ _______ _____ _____    ______ ____
ROOT
ATOM      1  C   UNL     1       2.674   6.983  19.196  0.00  0.00    +0.000 C 
ATOM      2  C   UNL     1       2.433   7.843  17.881  0.00  0.00    +0.000 C 
ATOM      3  C   UNL     1       1.650   8.962  18.422  0.00  0.00    +0.000 A 
ATOM      4  N   UNL     1       1.047  10.063  17.927  0.00  0.00    +0.000 N 
ATOM      5  N   UNL     1       0.385  10.750  18.898  0.00  0.00    +0.000 NA
ATOM      6  C   UNL     1       0.625  10.047  20.027  0.00  0.00    +0.000 A 
ATOM      7  C   UNL     1       1.421   8.935  19.761  0.00  0.00    +0.000 A 
ATOM      8  C   UNL     1       2.029   7.768  20.419  0.00  0.00    +0.000 C 
ATOM      9  H   UNL     1       1.018  10.413  16.973  0.00  0.00    +0.000 HD
ENDROOT
BRANCH   1  14
ATOM     10  F   UNL     1       0.497   1.768  18.872  0.00  0.00    +0.000 F 
ATOM     11  C   UNL     1       1.038   2.991  18.951  0.00  0.00    +0.000 A 
ATOM     12  C   UNL     1       1.444   3.635  17.786  0.00  0.00    +0.000 A 
ATOM     13  C   UNL     1       1.996   4.916  17.860  0.00  0.00    +0.000 A 
ATOM     14  C   UNL     1       2.141   5.565  19.101  0.00  0.00    +0.000 A 
ATOM     15  C   UNL     1       1.732   4.894  20.264  0.00  0.00    +0.000 A 
ATOM     16  C   UNL     1       1.185   3.616  20.180  0.00  0.00    +0.000 A 
ATOM     17  F   UNL     1       0.791   2.997  21.304  0.00  0.00    +0.000 F 
ENDBRANCH   1  14
BRANCH   6  18
ATOM     18  C   UNL     1       0.071  10.435  21.338  0.00  0.00    +0.000 A 
ATOM     19  N   UNL     1      -0.023  11.648  21.840  0.00  0.00    +0.000 NA
ATOM     20  N   UNL     1      -0.590  11.496  23.085  0.00  0.00    +0.000 NA
ATOM     21  N   UNL     1      -0.834  10.217  23.346  0.00  0.00    +0.000 NA
ATOM     22  N   UNL     1      -0.421   9.557  22.253  0.00  0.00    +0.000 N 
ATOM     23  H   UNL     1      -0.478   8.549  22.199  0.00  0.00    +0.000 HD
ENDBRANCH   6  18
TORSDOF 2
ENDMDL
MODEL 4
REMARK VINA RESULT:      -8.4      6.416      7.955
REMARK  Name = 
REMARK  2 active torsions:
REMARK  status: ('A' for Active; 'I' for Inactive)
REMARK    1  A    between atoms: C_5  and  C_6
REMARK    2  A    between atoms: C_11  and  C_12
REMARK                            x       y       z     vdW  Elec       q    Type
REMARK                         _______ _______ _______ _____ _____    ______ ____
ROOT
ATOM      1  C   UNL     1       2.624   7.026  19.188  0.00  0.00    +0.000 C 
ATOM      2  C   UNL     1       2.329   7.855  17.863  0.00  0.00    +0.000 C 
ATOM      3  C   UNL     1       1.542   8.971  18.404  0.00  0.00    +0.000 A 
ATOM      4  N   UNL     1       0.905  10.050  17.905  0.00  0.00    +0.000 N 
ATOM      5  N   UNL     1       0.261  10.746  18.882  0.00  0.00    +0.000 NA
ATOM      6  C   UNL     1       0.547  10.071  20.017  0.00  0.00    +0.000 A 
ATOM      7  C   UNL     1       1.354   8.968  19.750  0.00  0.00    +0.000 A 
ATOM      8  C   UNL     1       2.003   7.826  20.413  0.00  0.00    +0.000 C 
ATOM      9  H   UNL     1       0.842  10.380  16.945  0.00  0.00    +0.000 HD
ENDROOT
BRANCH   1  14
ATOM     10  F   UNL     1       0.916   1.633  19.032  0.00  0.00    +0.000 F 
ATOM     11  C   UNL     1       1.295   2.917  19.059  0.00  0.00    +0.000 A 
ATOM     12  C   UNL     1       1.017   3.689  20.182  0.00  0.00    +0.000 A 
ATOM     13  C   UNL     1       1.423   5.025  20.221  0.00  0.00    +0.000 A 
ATOM     14  C   UNL     1       2.115   5.598  19.138  0.00  0.00    +0.000 A 
ATOM     15  C   UNL     1       2.378   4.803  18.010  0.00  0.00    +0.000 A 
ATOM     16  C   UNL     1       1.968   3.473  17.980  0.00  0.00    +0.000 A 
ATOM     17  F   UNL     1       2.239   2.728  16.897  0.00  0.00    +0.000 F 
ENDBRANCH   1  14
BRANCH   6  18
ATOM     18  C   UNL     1       0.025  10.478  21.336  0.00  0.00    +0.000 A 
ATOM     19  N   UNL     1      -0.031  11.695  21.834  0.00  0.00    +0.000 NA
ATOM     20  N   UNL     1      -0.580  11.560  23.090  0.00  0.00    +0.000 NA
ATOM     21  N   UNL     1      -0.849  10.289  23.360  0.00  0.00    +0.000 NA
ATOM     22  N   UNL     1      -0.471   9.615  22.263  0.00  0.00    +0.000 N 
ATOM     23  H   UNL     1      -0.553   8.609  22.214  0.00  0.00    +0.000 HD
ENDBRANCH   6  18
TORSDOF 2
ENDMDL
MODEL 5
REMARK VINA RESULT:      -8.3      3.810      4.785
REMARK  Name = 
REMARK  2 active torsions:
REMARK  status: ('A' for Active; 'I' for Inactive)
REMARK    1  A    between atoms: C_5  and  C_6
REMARK    2  A    between atoms: C_11  and  C_12
REMARK                            x       y       z     vdW  Elec       q    Type
REMARK                         _______ _______ _______ _____ _____    ______ ____
ROOT
ATOM      1  C   UNL     1       2.495   5.870  20.229  0.00  0.00    +0.000 C 
ATOM      2  C   UNL     1       1.577   4.720  19.626  0.00  0.00    +0.000 C 
ATOM      3  C   UNL     1       2.504   4.098  18.670  0.00  0.00    +0.000 A 
ATOM      4  N   UNL     1       2.449   3.102  17.763  0.00  0.00    +0.000 N 
ATOM      5  N   UNL     1       3.622   2.981  17.083  0.00  0.00    +0.000 NA
ATOM      6  C   UNL     1       4.421   3.927  17.624  0.00  0.00    +0.000 A 
ATOM      7  C   UNL     1       3.754   4.630  18.624  0.00  0.00    +0.000 A 
ATOM      8  C   UNL     1       3.937   5.739  19.573  0.00  0.00    +0.000 C 
ATOM      9  H   UNL     1       1.682   2.476  17.531  0.00  0.00    +0.000 HD
ENDROOT
BRANCH   1  14
ATOM     10  F   UNL     1       0.215  10.987  19.422  0.00  0.00    +0.000 F 
ATOM     11  C   UNL     1       0.777   9.788  19.624  0.00  0.00    +0.000 A 
ATOM     12  C   UNL     1       0.587   9.141  20.841  0.00  0.00    +0.000 A 
ATOM     13  C   UNL     1       1.159   7.883  21.052  0.00  0.00    +0.000 A 
ATOM     14  C   UNL     1       1.922   7.263  20.045  0.00  0.00    +0.000 A 
ATOM     15  C   UNL     1       2.108   7.938  18.828  0.00  0.00    +0.000 A 
ATOM     16  C   UNL     1       1.536   9.191  18.627  0.00  0.00    +0.000 A 
ATOM     17  F   UNL     1       1.717   9.814  17.453  0.00  0.00    +0.000 F 
ENDBRANCH   1  14
BRANCH   6  18
ATOM     18  C   UNL     1       5.803   4.159  17.161  0.00  0.00    +0.000 A 
ATOM     19  N   UNL     1       6.208   4.384  15.929  0.00  0.00    +0.000 NA
ATOM     20  N   UNL     1       7.576   4.523  16.004  0.00  0.00    +0.000 NA
ATOM     21  N   UNL     1       8.004   4.380  17.252  0.00  0.00    +0.000 NA
ATOM     22  N   UNL     1       6.895   4.154  17.973  0.00  0.00    +0.000 N 
ATOM     23  H   UNL     1       6.944   3.989  18.970  0.00  0.00    +0.000 HD
ENDBRANCH   6  18
TORSDOF 2
ENDMDL
MODEL 6
REMARK VINA RESULT:      -8.1      1.171      1.500
REMARK  Name = 
REMARK  2 active torsions:
REMARK  status: ('A' for Active; 'I' for Inactive)
REMARK    1  A    between atoms: C_5  and  C_6
REMARK    2  A    between atoms: C_11  and  C_12
REMARK                            x       y       z     vdW  Elec       q    Type
REMARK                         _______ _______ _______ _____ _____    ______ ____
ROOT
ATOM      1  C   UNL     1       4.331   5.684  18.606  0.00  0.00    +0.000 C 
ATOM      2  C   UNL     1       5.843   5.588  19.089  0.00  0.00    +0.000 C 
ATOM      3  C   UNL     1       6.498   5.121  17.859  0.00  0.00    +0.000 A 
ATOM      4  N   UNL     1       7.747   4.773  17.488  0.00  0.00    +0.000 N 
ATOM      5  N   UNL     1       7.783   4.343  16.197  0.00  0.00    +0.000 NA
ATOM      6  C   UNL     1       6.507   4.467  15.768  0.00  0.00    +0.000 A 
ATOM      7  C   UNL     1       5.687   4.961  16.779  0.00  0.00    +0.000 A 
ATOM      8  C   UNL     1       4.286   5.308  17.062  0.00  0.00    +0.000 C 
ATOM      9  H   UNL     1       8.609   4.779  18.027  0.00  0.00    +0.000 HD
ENDROOT
BRANCH   1  14
ATOM     10  F   UNL     1       0.858   2.564  21.806  0.00  0.00    +0.000 F 
ATOM     11  C   UNL     1       1.673   3.287  21.027  0.00  0.00    +0.000 A 
ATOM     12  C   UNL     1       1.167   4.387  20.342  0.00  0.00    +0.000 A 
ATOM     13  C   UNL     1       2.015   5.153  19.539  0.00  0.00    +0.000 A 
ATOM     14  C   UNL     1       3.379   4.826  19.418  0.00  0.00    +0.000 A 
ATOM     15  C   UNL     1       3.867   3.706  20.111  0.00  0.00    +0.000 A 
ATOM     16  C   UNL     1       3.014   2.948  20.907  0.00  0.00    +0.000 A 
ATOM     17  F   UNL     1       3.504   1.888  21.569  0.00  0.00    +0.000 F 
ENDBRANCH   1  14
BRANCH   6  18
ATOM     18  C   UNL     1       6.087   4.088  14.405  0.00  0.00    +0.000 A 
ATOM     19  N   UNL     1       4.868   4.104  13.909  0.00  0.00    +0.000 NA
ATOM     20  N   UNL     1       4.984   3.654  12.613  0.00  0.00    +0.000 NA
ATOM     21  N   UNL     1       6.246   3.361  12.320  0.00  0.00    +0.000 NA
ATOM     22  N   UNL     1       6.932   3.634  13.441  0.00  0.00    +0.000 N 
ATOM     23  H   UNL     1       7.930   3.479  13.493  0.00  0.00    +0.000 HD
ENDBRANCH   6  18
TORSDOF 2
ENDMDL
MODEL 7
REMARK VINA RESULT:      -8.1      3.767      4.646
REMARK  Name = 
REMARK  2 active torsions:
REMARK  status: ('A' for Active; 'I' for Inactive)
REMARK    1  A    between atoms: C_5  and  C_6
REMARK    2  A    between atoms: C_11  and  C_12
REMARK                            x       y       z     vdW  Elec       q    Type
REMARK                         _______ _______ _______ _____ _____    ______ ____
ROOT
ATOM      1  C   UNL     1       2.518   6.018  20.130  0.00  0.00    +0.000 C 
ATOM      2  C   UNL     1       1.601   4.829  19.604  0.00  0.00    +0.000 C 
ATOM      3  C   UNL     1       2.514   4.173  18.658  0.00  0.00    +0.000 A 
ATOM      4  N   UNL     1       2.452   3.133  17.801  0.00  0.00    +0.000 N 
ATOM      5  N   UNL     1       3.610   2.994  17.100  0.00  0.00    +0.000 NA
ATOM      6  C   UNL     1       4.409   3.974  17.576  0.00  0.00    +0.000 A 
ATOM      7  C   UNL     1       3.756   4.717  18.557  0.00  0.00    +0.000 A 
ATOM      8  C   UNL     1       3.946   5.873  19.447  0.00  0.00    +0.000 C 
ATOM      9  H   UNL     1       1.688   2.488  17.619  0.00  0.00    +0.000 HD
ENDROOT
BRANCH   1  14
ATOM     10  F   UNL     1       0.455  11.231  19.355  0.00  0.00    +0.000 F 
ATOM     11  C   UNL     1       0.919   9.987  19.529  0.00  0.00    +0.000 A 
ATOM     12  C   UNL     1       1.553   9.340  18.473  0.00  0.00    +0.000 A 
ATOM     13  C   UNL     1       2.052   8.047  18.653  0.00  0.00    +0.000 A 
ATOM     14  C   UNL     1       1.923   7.394  19.893  0.00  0.00    +0.000 A 
ATOM     15  C   UNL     1       1.272   8.062  20.943  0.00  0.00    +0.000 A 
ATOM     16  C   UNL     1       0.778   9.349  20.754  0.00  0.00    +0.000 A 
ATOM     17  F   UNL     1       0.168   9.974  21.773  0.00  0.00    +0.000 F 
ENDBRANCH   1  14
BRANCH   6  18
ATOM     18  C   UNL     1       5.777   4.201  17.070  0.00  0.00    +0.000 A 
ATOM     19  N   UNL     1       6.137   4.488  15.837  0.00  0.00    +0.000 NA
ATOM     20  N   UNL     1       7.510   4.591  15.862  0.00  0.00    +0.000 NA
ATOM     21  N   UNL     1       7.984   4.364  17.081  0.00  0.00    +0.000 NA
ATOM     22  N   UNL     1       6.900   4.123  17.834  0.00  0.00    +0.000 N 
ATOM     23  H   UNL     1       6.985   3.899  18.816  0.00  0.00    +0.000 HD
ENDBRANCH   6  18
TORSDOF 2
ENDMDL
MODEL 8
REMARK VINA RESULT:      -8.0      1.501      2.140
REMARK  Name = 
REMARK  2 active torsions:
REMARK  status: ('A' for Active; 'I' for Inactive)
REMARK    1  A    between atoms: C_5  and  C_6
REMARK    2  A    between atoms: C_11  and  C_12
REMARK                            x       y       z     vdW  Elec       q    Type
REMARK                         _______ _______ _______ _____ _____    ______ ____
ROOT
ATOM      1  C   UNL     1       4.216   5.655  17.539  0.00  0.00    +0.000 C 
ATOM      2  C   UNL     1       5.689   6.217  17.744  0.00  0.00    +0.000 C 
ATOM      3  C   UNL     1       6.338   5.749  16.512  0.00  0.00    +0.000 A 
ATOM      4  N   UNL     1       7.578   5.794  15.981  0.00  0.00    +0.000 N 
ATOM      5  N   UNL     1       7.639   5.125  14.797  0.00  0.00    +0.000 NA
ATOM      6  C   UNL     1       6.378   4.684  14.597  0.00  0.00    +0.000 A 
ATOM      7  C   UNL     1       5.543   5.069  15.643  0.00  0.00    +0.000 A 
ATOM      8  C   UNL     1       4.156   4.947  16.117  0.00  0.00    +0.000 C 
ATOM      9  H   UNL     1       8.422   6.230  16.342  0.00  0.00    +0.000 HD
ENDROOT
BRANCH   1  14
ATOM     10  F   UNL     1       2.395   2.087  21.538  0.00  0.00    +0.000 F 
ATOM     11  C   UNL     1       2.839   2.947  20.611  0.00  0.00    +0.000 A 
ATOM     12  C   UNL     1       4.083   2.737  20.025  0.00  0.00    +0.000 A 
ATOM     13  C   UNL     1       4.545   3.622  19.048  0.00  0.00    +0.000 A 
ATOM     14  C   UNL     1       3.763   4.722  18.647  0.00  0.00    +0.000 A 
ATOM     15  C   UNL     1       2.514   4.919  19.258  0.00  0.00    +0.000 A 
ATOM     16  C   UNL     1       2.063   4.032  20.231  0.00  0.00    +0.000 A 
ATOM     17  F   UNL     1       0.861   4.234  20.795  0.00  0.00    +0.000 F 
ENDBRANCH   1  14
BRANCH   6  18
ATOM     18  C   UNL     1       5.994   3.882  13.419  0.00  0.00    +0.000 A 
ATOM     19  N   UNL     1       4.800   3.777  12.876  0.00  0.00    +0.000 NA
ATOM     20  N   UNL     1       4.944   2.908  11.817  0.00  0.00    +0.000 NA
ATOM     21  N   UNL     1       6.198   2.483  11.716  0.00  0.00    +0.000 NA
ATOM     22  N   UNL     1       6.851   3.093  12.717  0.00  0.00    +0.000 N 
ATOM     23  H   UNL     1       7.835   2.924  12.878  0.00  0.00    +0.000 HD
ENDBRANCH   6  18
TORSDOF 2
ENDMDL
MODEL 9
REMARK VINA RESULT:      -8.0      1.660      2.300
REMARK  Name = 
REMARK  2 active torsions:
REMARK  status: ('A' for Active; 'I' for Inactive)
REMARK    1  A    between atoms: C_5  and  C_6
REMARK    2  A    between atoms: C_11  and  C_12
REMARK                            x       y       z     vdW  Elec       q    Type
REMARK                         _______ _______ _______ _____ _____    ______ ____
ROOT
ATOM      1  C   UNL     1       4.143   5.631  17.627  0.00  0.00    +0.000 C 
ATOM      2  C   UNL     1       5.593   6.244  17.855  0.00  0.00    +0.000 C 
ATOM      3  C   UNL     1       6.271   5.817  16.623  0.00  0.00    +0.000 A 
ATOM      4  N   UNL     1       7.513   5.916  16.107  0.00  0.00    +0.000 N 
ATOM      5  N   UNL     1       7.611   5.267  14.914  0.00  0.00    +0.000 NA
ATOM      6  C   UNL     1       6.368   4.783  14.694  0.00  0.00    +0.000 A 
ATOM      7  C   UNL     1       5.510   5.121  15.737  0.00  0.00    +0.000 A 
ATOM      8  C   UNL     1       4.123   4.942  16.195  0.00  0.00    +0.000 C 
ATOM      9  H   UNL     1       8.337   6.377  16.483  0.00  0.00    +0.000 HD
ENDROOT
BRANCH   1  14
ATOM     10  F   UNL     1       2.695   2.102  21.808  0.00  0.00    +0.000 F 
ATOM     11  C   UNL     1       3.021   2.923  20.801  0.00  0.00    +0.000 A 
ATOM     12  C   UNL     1       2.241   4.048  20.558  0.00  0.00    +0.000 A 
ATOM     13  C   UNL     1       2.585   4.917  19.518  0.00  0.00    +0.000 A 
ATOM     14  C   UNL     1       3.714   4.666  18.717  0.00  0.00    +0.000 A 
ATOM     15  C   UNL     1       4.482   3.519  18.975  0.00  0.00    +0.000 A 
ATOM     16  C   UNL     1       4.131   2.660  20.012  0.00  0.00    +0.000 A 
ATOM     17  F   UNL     1       4.886   1.575  20.248  0.00  0.00    +0.000 F 
ENDBRANCH   1  14
BRANCH   6  18
ATOM     18  C   UNL     1       6.026   3.984  13.501  0.00  0.00    +0.000 A 
ATOM     19  N   UNL     1       4.844   3.853  12.937  0.00  0.00    +0.000 NA
ATOM     20  N   UNL     1       5.030   3.001  11.871  0.00  0.00    +0.000 NA
ATOM     21  N   UNL     1       6.296   2.611  11.786  0.00  0.00    +0.000 NA
ATOM     22  N   UNL     1       6.916   3.228  12.804  0.00  0.00    +0.000 N 
ATOM     23  H   UNL     1       7.901   3.084  12.980  0.00  0.00    +0.000 HD
ENDBRANCH   6  18
TORSDOF 2
ENDMDL
