MODEL 1
REMARK VINA RESULT:      -5.9      0.000      0.000
REMARK  Name = 
REMARK  4 active torsions:
REMARK  status: ('A' for Active; 'I' for Inactive)
REMARK    1  A    between atoms: C_1  and  C_2
REMARK    2  A    between atoms: C_2  and  C_3
REMARK    3  A    between atoms: C_3  and  S_4
REMARK    4  A    between atoms: S_4  and  C_5
REMARK                            x       y       z     vdW  Elec       q    Type
REMARK                         _______ _______ _______ _____ _____    ______ ____
ROOT
ATOM      1  C   UNL     1       4.868   4.187  17.070  0.00  0.00    +0.000 A 
ATOM      2  N   UNL     1       5.291   3.965  15.805  0.00  0.00    +0.000 NA
ATOM      3  C   UNL     1       6.593   4.186  15.530  0.00  0.00    +0.000 A 
ATOM      4  N   UNL     1       7.562   4.596  16.370  0.00  0.00    +0.000 NA
ATOM      5  C   UNL     1       7.084   4.790  17.608  0.00  0.00    +0.000 A 
ATOM      6  N   UNL     1       7.782   5.226  18.696  0.00  0.00    +0.000 N 
ATOM      7  N   UNL     1       7.033   5.336  19.813  0.00  0.00    +0.000 NA
ATOM      8  C   UNL     1       5.813   4.970  19.397  0.00  0.00    +0.000 A 
ATOM      9  C   UNL     1       5.780   4.613  18.036  0.00  0.00    +0.000 A 
ATOM     10  H   UNL     1       8.766   5.475  18.731  0.00  0.00    +0.000 HD
ENDROOT
BRANCH   1  11
ATOM     11  S   UNL     1       3.151   4.082  17.460  0.00  0.00    +0.000 S 
BRANCH  11  12
ATOM     12  C   UNL     1       3.019   2.316  17.901  0.00  0.00    +0.000 C 
BRANCH  12  14
ATOM     13  C   UNL     1       1.248   3.482  19.285  0.00  0.00    +0.000 C 
ATOM     14  C   UNL     1       1.887   2.150  18.917  0.00  0.00    +0.000 C 
ENDBRANCH  12  14
ENDBRANCH  11  12
ENDBRANCH   1  11
TORSDOF 3
ENDMDL
MODEL 2
REMARK VINA RESULT:      -5.7      1.317      2.750
REMARK  Name = 
REMARK  4 active torsions:
REMARK  status: ('A' for Active; 'I' for Inactive)
REMARK    1  A    between atoms: C_1  and  C_2
REMARK    2  A    between atoms: C_2  and  C_3
REMARK    3  A    between atoms: C_3  and  S_4
REMARK    4  A    between atoms: S_4  and  C_5
REMARK                            x       y       z     vdW  Elec       q    Type
REMARK                         _______ _______ _______ _____ _____    ______ ____
ROOT
ATOM      1  C   UNL     1       5.338   4.368  18.121  0.00  0.00    +0.000 A 
ATOM      2  N   UNL     1       5.887   4.752  19.296  0.00  0.00    +0.000 NA
ATOM      3  C   UNL     1       6.984   5.535  19.252  0.00  0.00    +0.000 A 
ATOM      4  N   UNL     1       7.620   6.014  18.166  0.00  0.00    +0.000 NA
ATOM      5  C   UNL     1       7.026   5.607  17.035  0.00  0.00    +0.000 A 
ATOM      6  N   UNL     1       7.419   5.884  15.758  0.00  0.00    +0.000 N 
ATOM      7  N   UNL     1       6.630   5.331  14.814  0.00  0.00    +0.000 NA
ATOM      8  C   UNL     1       5.718   4.664  15.535  0.00  0.00    +0.000 A 
ATOM      9  C   UNL     1       5.906   4.801  16.923  0.00  0.00    +0.000 A 
ATOM     10  H   UNL     1       8.223   6.436  15.472  0.00  0.00    +0.000 HD
ENDROOT
BRANCH   1  11
ATOM     11  S   UNL     1       4.009   3.210  18.103  0.00  0.00    +0.000 S 
BRANCH  11  12
ATOM     12  C   UNL     1       2.605   4.324  17.759  0.00  0.00    +0.000 C 
BRANCH  12  14
ATOM     13  C   UNL     1       1.045   2.548  18.668  0.00  0.00    +0.000 C 
ATOM     14  C   UNL     1       1.477   4.006  18.744  0.00  0.00    +0.000 C 
ENDBRANCH  12  14
ENDBRANCH  11  12
ENDBRANCH   1  11
TORSDOF 3
ENDMDL
MODEL 3
REMARK VINA RESULT:      -5.7      1.557      3.002
REMARK  Name = 
REMARK  4 active torsions:
REMARK  status: ('A' for Active; 'I' for Inactive)
REMARK    1  A    between atoms: C_1  and  C_2
REMARK    2  A    between atoms: C_2  and  C_3
REMARK    3  A    between atoms: C_3  and  S_4
REMARK    4  A    between atoms: S_4  and  C_5
REMARK                            x       y       z     vdW  Elec       q    Type
REMARK                         _______ _______ _______ _____ _____    ______ ____
ROOT
ATOM      1  C   UNL     1       5.642   4.634  18.659  0.00  0.00    +0.000 A 
ATOM      2  N   UNL     1       6.474   5.172  19.578  0.00  0.00    +0.000 NA
ATOM      3  C   UNL     1       7.545   5.860  19.132  0.00  0.00    +0.000 A 
ATOM      4  N   UNL     1       7.903   6.105  17.857  0.00  0.00    +0.000 NA
ATOM      5  C   UNL     1       7.036   5.554  16.994  0.00  0.00    +0.000 A 
ATOM      6  N   UNL     1       7.107   5.585  15.632  0.00  0.00    +0.000 N 
ATOM      7  N   UNL     1       6.095   4.935  15.021  0.00  0.00    +0.000 NA
ATOM      8  C   UNL     1       5.374   4.463  16.047  0.00  0.00    +0.000 A 
ATOM      9  C   UNL     1       5.905   4.819  17.302  0.00  0.00    +0.000 A 
ATOM     10  H   UNL     1       7.828   6.024  15.067  0.00  0.00    +0.000 HD
ENDROOT
BRANCH   1  11
ATOM     11  S   UNL     1       4.321   3.582  19.169  0.00  0.00    +0.000 S 
BRANCH  11  12
ATOM     12  C   UNL     1       3.112   4.823  19.740  0.00  0.00    +0.000 C 
BRANCH  12  14
ATOM     13  C   UNL     1       1.743   4.235  17.692  0.00  0.00    +0.000 C 
ATOM     14  C   UNL     1       2.348   5.356  18.526  0.00  0.00    +0.000 C 
ENDBRANCH  12  14
ENDBRANCH  11  12
ENDBRANCH   1  11
TORSDOF 3
ENDMDL
MODEL 4
REMARK VINA RESULT:      -5.7      1.246      1.617
REMARK  Name = 
REMARK  4 active torsions:
REMARK  status: ('A' for Active; 'I' for Inactive)
REMARK    1  A    between atoms: C_1  and  C_2
REMARK    2  A    between atoms: C_2  and  C_3
REMARK    3  A    between atoms: C_3  and  S_4
REMARK    4  A    between atoms: S_4  and  C_5
REMARK                            x       y       z     vdW  Elec       q    Type
REMARK                         _______ _______ _______ _____ _____    ______ ____
ROOT
ATOM      1  C   UNL     1       5.006   4.261  17.174  0.00  0.00    +0.000 A 
ATOM      2  N   UNL     1       5.393   4.001  15.905  0.00  0.00    +0.000 NA
ATOM      3  C   UNL     1       6.698   4.158  15.601  0.00  0.00    +0.000 A 
ATOM      4  N   UNL     1       7.702   4.535  16.416  0.00  0.00    +0.000 NA
ATOM      5  C   UNL     1       7.257   4.770  17.659  0.00  0.00    +0.000 A 
ATOM      6  N   UNL     1       7.997   5.190  18.726  0.00  0.00    +0.000 N 
ATOM      7  N   UNL     1       7.277   5.350  19.856  0.00  0.00    +0.000 NA
ATOM      8  C   UNL     1       6.033   5.035  19.470  0.00  0.00    +0.000 A 
ATOM      9  C   UNL     1       5.956   4.660  18.115  0.00  0.00    +0.000 A 
ATOM     10  H   UNL     1       8.992   5.393  18.738  0.00  0.00    +0.000 HD
ENDROOT
BRANCH   1  11
ATOM     11  S   UNL     1       3.295   4.241  17.599  0.00  0.00    +0.000 S 
BRANCH  11  12
ATOM     12  C   UNL     1       3.008   6.017  17.901  0.00  0.00    +0.000 C 
BRANCH  12  14
ATOM     13  C   UNL     1       2.071   4.865  19.952  0.00  0.00    +0.000 C 
ATOM     14  C   UNL     1       2.481   6.191  19.327  0.00  0.00    +0.000 C 
ENDBRANCH  12  14
ENDBRANCH  11  12
ENDBRANCH   1  11
TORSDOF 3
ENDMDL
MODEL 5
REMARK VINA RESULT:      -5.6      1.110      2.582
REMARK  Name = 
REMARK  4 active torsions:
REMARK  status: ('A' for Active; 'I' for Inactive)
REMARK    1  A    between atoms: C_1  and  C_2
REMARK    2  A    between atoms: C_2  and  C_3
REMARK    3  A    between atoms: C_3  and  S_4
REMARK    4  A    between atoms: S_4  and  C_5
REMARK                            x       y       z     vdW  Elec       q    Type
REMARK                         _______ _______ _______ _____ _____    ______ ____
ROOT
ATOM      1  C   UNL     1       4.352   4.126  17.745  0.00  0.00    +0.000 A 
ATOM      2  N   UNL     1       4.570   4.448  19.040  0.00  0.00    +0.000 NA
ATOM      3  C   UNL     1       5.805   4.867  19.384  0.00  0.00    +0.000 A 
ATOM      4  N   UNL     1       6.880   5.028  18.589  0.00  0.00    +0.000 NA
ATOM      5  C   UNL     1       6.599   4.702  17.319  0.00  0.00    +0.000 A 
ATOM      6  N   UNL     1       7.459   4.723  16.260  0.00  0.00    +0.000 N 
ATOM      7  N   UNL     1       6.897   4.333  15.097  0.00  0.00    +0.000 NA
ATOM      8  C   UNL     1       5.639   4.039  15.452  0.00  0.00    +0.000 A 
ATOM      9  C   UNL     1       5.389   4.252  16.821  0.00  0.00    +0.000 A 
ATOM     10  H   UNL     1       8.440   4.984  16.274  0.00  0.00    +0.000 HD
ENDROOT
BRANCH   1  11
ATOM     11  S   UNL     1       2.815   3.412  17.258  0.00  0.00    +0.000 S 
BRANCH  11  12
ATOM     12  C   UNL     1       2.395   2.471  18.764  0.00  0.00    +0.000 C 
BRANCH  12  14
ATOM     13  C   UNL     1       1.135   3.602  20.646  0.00  0.00    +0.000 C 
ATOM     14  C   UNL     1       1.034   2.949  19.275  0.00  0.00    +0.000 C 
ENDBRANCH  12  14
ENDBRANCH  11  12
ENDBRANCH   1  11
TORSDOF 3
ENDMDL
MODEL 6
REMARK VINA RESULT:      -5.6      1.831      2.852
REMARK  Name = 
REMARK  4 active torsions:
REMARK  status: ('A' for Active; 'I' for Inactive)
REMARK    1  A    between atoms: C_1  and  C_2
REMARK    2  A    between atoms: C_2  and  C_3
REMARK    3  A    between atoms: C_3  and  S_4
REMARK    4  A    between atoms: S_4  and  C_5
REMARK                            x       y       z     vdW  Elec       q    Type
REMARK                         _______ _______ _______ _____ _____    ______ ____
ROOT
ATOM      1  C   UNL     1       5.336   5.096  19.054  0.00  0.00    +0.000 A 
ATOM      2  N   UNL     1       6.420   5.041  19.860  0.00  0.00    +0.000 NA
ATOM      3  C   UNL     1       7.551   5.640  19.435  0.00  0.00    +0.000 A 
ATOM      4  N   UNL     1       7.752   6.319  18.289  0.00  0.00    +0.000 NA
ATOM      5  C   UNL     1       6.641   6.345  17.538  0.00  0.00    +0.000 A 
ATOM      6  N   UNL     1       6.497   6.923  16.311  0.00  0.00    +0.000 N 
ATOM      7  N   UNL     1       5.262   6.785  15.787  0.00  0.00    +0.000 NA
ATOM      8  C   UNL     1       4.615   6.074  16.721  0.00  0.00    +0.000 A 
ATOM      9  C   UNL     1       5.417   5.774  17.838  0.00  0.00    +0.000 A 
ATOM     10  H   UNL     1       7.210   7.414  15.779  0.00  0.00    +0.000 HD
ENDROOT
BRANCH   1  11
ATOM     11  S   UNL     1       3.879   4.194  19.469  0.00  0.00    +0.000 S 
BRANCH  11  12
ATOM     12  C   UNL     1       3.900   2.915  18.168  0.00  0.00    +0.000 C 
BRANCH  12  14
ATOM     13  C   UNL     1       1.696   4.075  17.710  0.00  0.00    +0.000 C 
ATOM     14  C   UNL     1       2.488   2.780  17.593  0.00  0.00    +0.000 C 
ENDBRANCH  12  14
ENDBRANCH  11  12
ENDBRANCH   1  11
TORSDOF 3
ENDMDL
MODEL 7
REMARK VINA RESULT:      -5.5      1.623      2.972
REMARK  Name = 
REMARK  4 active torsions:
REMARK  status: ('A' for Active; 'I' for Inactive)
REMARK    1  A    between atoms: C_1  and  C_2
REMARK    2  A    between atoms: C_2  and  C_3
REMARK    3  A    between atoms: C_3  and  S_4
REMARK    4  A    between atoms: S_4  and  C_5
REMARK                            x       y       z     vdW  Elec       q    Type
REMARK                         _______ _______ _______ _____ _____    ______ ____
ROOT
ATOM      1  C   UNL     1       5.462   4.512  18.738  0.00  0.00    +0.000 A 
ATOM      2  N   UNL     1       6.236   5.178  19.624  0.00  0.00    +0.000 NA
ATOM      3  C   UNL     1       7.392   5.709  19.175  0.00  0.00    +0.000 A 
ATOM      4  N   UNL     1       7.890   5.679  17.925  0.00  0.00    +0.000 NA
ATOM      5  C   UNL     1       7.076   5.014  17.093  0.00  0.00    +0.000 A 
ATOM      6  N   UNL     1       7.282   4.772  15.766  0.00  0.00    +0.000 N 
ATOM      7  N   UNL     1       6.291   4.067  15.182  0.00  0.00    +0.000 NA
ATOM      8  C   UNL     1       5.441   3.844  16.193  0.00  0.00    +0.000 A 
ATOM      9  C   UNL     1       5.870   4.413  17.408  0.00  0.00    +0.000 A 
ATOM     10  H   UNL     1       8.085   5.054  15.211  0.00  0.00    +0.000 HD
ENDROOT
BRANCH   1  11
ATOM     11  S   UNL     1       4.026   3.651  19.290  0.00  0.00    +0.000 S 
BRANCH  11  12
ATOM     12  C   UNL     1       2.789   4.990  19.219  0.00  0.00    +0.000 C 
BRANCH  12  14
ATOM     13  C   UNL     1       2.085   3.758  21.317  0.00  0.00    +0.000 C 
ATOM     14  C   UNL     1       2.101   5.091  20.583  0.00  0.00    +0.000 C 
ENDBRANCH  12  14
ENDBRANCH  11  12
ENDBRANCH   1  11
TORSDOF 3
ENDMDL
MODEL 8
REMARK VINA RESULT:      -5.5      1.717      3.028
REMARK  Name = 
REMARK  4 active torsions:
REMARK  status: ('A' for Active; 'I' for Inactive)
REMARK    1  A    between atoms: C_1  and  C_2
REMARK    2  A    between atoms: C_2  and  C_3
REMARK    3  A    between atoms: C_3  and  S_4
REMARK    4  A    between atoms: S_4  and  C_5
REMARK                            x       y       z     vdW  Elec       q    Type
REMARK                         _______ _______ _______ _____ _____    ______ ____
ROOT
ATOM      1  C   UNL     1       4.848   5.384  18.165  0.00  0.00    +0.000 A 
ATOM      2  N   UNL     1       5.522   5.391  19.336  0.00  0.00    +0.000 NA
ATOM      3  C   UNL     1       6.866   5.499  19.288  0.00  0.00    +0.000 A 
ATOM      4  N   UNL     1       7.652   5.618  18.201  0.00  0.00    +0.000 NA
ATOM      5  C   UNL     1       6.926   5.613  17.073  0.00  0.00    +0.000 A 
ATOM      6  N   UNL     1       7.399   5.691  15.796  0.00  0.00    +0.000 N 
ATOM      7  N   UNL     1       6.431   5.655  14.856  0.00  0.00    +0.000 NA
ATOM      8  C   UNL     1       5.310   5.530  15.579  0.00  0.00    +0.000 A 
ATOM      9  C   UNL     1       5.551   5.503  16.966  0.00  0.00    +0.000 A 
ATOM     10  H   UNL     1       8.370   5.760  15.506  0.00  0.00    +0.000 HD
ENDROOT
BRANCH   1  11
ATOM     11  S   UNL     1       3.111   5.077  18.146  0.00  0.00    +0.000 S 
BRANCH  11  12
ATOM     12  C   UNL     1       2.603   5.955  19.663  0.00  0.00    +0.000 C 
BRANCH  12  14
ATOM     13  C   UNL     1       1.054   3.995  20.074  0.00  0.00    +0.000 C 
ATOM     14  C   UNL     1       2.097   4.927  20.676  0.00  0.00    +0.000 C 
ENDBRANCH  12  14
ENDBRANCH  11  12
ENDBRANCH   1  11
TORSDOF 3
ENDMDL
MODEL 9
REMARK VINA RESULT:      -5.5      1.332      2.740
REMARK  Name = 
REMARK  4 active torsions:
REMARK  status: ('A' for Active; 'I' for Inactive)
REMARK    1  A    between atoms: C_1  and  C_2
REMARK    2  A    between atoms: C_2  and  C_3
REMARK    3  A    between atoms: C_3  and  S_4
REMARK    4  A    between atoms: S_4  and  C_5
REMARK                            x       y       z     vdW  Elec       q    Type
REMARK                         _______ _______ _______ _____ _____    ______ ____
ROOT
ATOM      1  C   UNL     1       4.958   4.415  17.740  0.00  0.00    +0.000 A 
ATOM      2  N   UNL     1       5.367   4.725  18.990  0.00  0.00    +0.000 NA
ATOM      3  C   UNL     1       6.522   5.410  19.123  0.00  0.00    +0.000 A 
ATOM      4  N   UNL     1       7.341   5.854  18.151  0.00  0.00    +0.000 NA
ATOM      5  C   UNL     1       6.878   5.524  16.936  0.00  0.00    +0.000 A 
ATOM      6  N   UNL     1       7.468   5.793  15.735  0.00  0.00    +0.000 N 
ATOM      7  N   UNL     1       6.775   5.330  14.674  0.00  0.00    +0.000 NA
ATOM      8  C   UNL     1       5.718   4.731  15.241  0.00  0.00    +0.000 A 
ATOM      9  C   UNL     1       5.722   4.822  16.646  0.00  0.00    +0.000 A 
ATOM     10  H   UNL     1       8.347   6.277  15.581  0.00  0.00    +0.000 HD
ENDROOT
BRANCH   1  11
ATOM     11  S   UNL     1       3.552   3.379  17.500  0.00  0.00    +0.000 S 
BRANCH  11  12
ATOM     12  C   UNL     1       2.966   3.213  19.221  0.00  0.00    +0.000 C 
BRANCH  12  14
ATOM     13  C   UNL     1       1.758   5.005  20.540  0.00  0.00    +0.000 C 
ATOM     14  C   UNL     1       1.679   4.024  19.379  0.00  0.00    +0.000 C 
ENDBRANCH  12  14
ENDBRANCH  11  12
ENDBRANCH   1  11
TORSDOF 3
ENDMDL
