MODEL 1
REMARK VINA RESULT:      -8.7      0.000      0.000
REMARK  Name = 
REMARK  5 active torsions:
REMARK  status: ('A' for Active; 'I' for Inactive)
REMARK    1  A    between atoms: C_1  and  S_2
REMARK    2  A    between atoms: S_2  and  C_5
REMARK    3  A    between atoms: C_10  and  C_11
REMARK    4  A    between atoms: C_14  and  C_15
REMARK    5  A    between atoms: C_18  and  C_19
REMARK                            x       y       z     vdW  Elec       q    Type
REMARK                         _______ _______ _______ _____ _____    ______ ____
ROOT
ATOM      1  C   UNL     1       0.340   9.789  20.959  0.00  0.00    +0.000 A 
ATOM      2  C   UNL     1      -0.184  10.910  20.311  0.00  0.00    +0.000 A 
ATOM      3  C   UNL     1      -0.992  11.821  21.005  0.00  0.00    +0.000 A 
ATOM      4  C   UNL     1      -1.281  11.642  22.367  0.00  0.00    +0.000 A 
ATOM      5  C   UNL     1      -0.726  10.529  23.014  0.00  0.00    +0.000 A 
ATOM      6  C   UNL     1       0.071   9.615  22.321  0.00  0.00    +0.000 A 
ENDROOT
BRANCH   1  12
ATOM      7  C   UNL     1       3.750   5.398  18.781  0.00  0.00    +0.000 A 
ATOM      8  C   UNL     1       3.859   6.255  17.679  0.00  0.00    +0.000 A 
ATOM      9  C   UNL     1       3.166   7.474  17.658  0.00  0.00    +0.000 A 
ATOM     10  C   UNL     1       2.383   7.823  18.770  0.00  0.00    +0.000 A 
ATOM     11  N   UNL     1       1.631   8.948  19.000  0.00  0.00    +0.000 NA
ATOM     12  C   UNL     1       1.153   8.822  20.225  0.00  0.00    +0.000 A 
ATOM     13  N   UNL     1       1.516   7.604  20.750  0.00  0.00    +0.000 N 
ATOM     14  C   UNL     1       2.318   6.956  19.851  0.00  0.00    +0.000 A 
ATOM     15  C   UNL     1       2.978   5.728  19.906  0.00  0.00    +0.000 A 
ATOM     16  H   UNL     1       1.245   7.257  21.657  0.00  0.00    +0.000 HD
BRANCH   7  18
ATOM     17  C   UNL     1       3.692   2.819  19.835  0.00  0.00    +0.000 C 
ATOM     18  S   UNL     1       4.665   3.868  18.788  0.00  0.00    +0.000 S 
ATOM     19  O   UNL     1       5.928   4.122  19.456  0.00  0.00    +0.000 OA
ATOM     20  O   UNL     1       4.629   3.325  17.443  0.00  0.00    +0.000 OA
ENDBRANCH   7  18
ENDBRANCH   1  12
BRANCH   4  21
ATOM     21  C   UNL     1      -2.155  12.557  23.123  0.00  0.00    +0.000 A 
ATOM     22  C   UNL     1      -3.338  12.268  23.778  0.00  0.00    +0.000 A 
ATOM     23  C   UNL     1      -3.914  13.405  24.411  0.00  0.00    +0.000 A 
ATOM     24  C   UNL     1      -3.164  14.553  24.234  0.00  0.00    +0.000 A 
ATOM     25  S   UNL     1      -1.757  14.213  23.314  0.00  0.00    +0.000 S 
BRANCH  24  26
ATOM     26  C   UNL     1      -3.458  15.921  24.694  0.00  0.00    +0.000 A 
ATOM     27  C   UNL     1      -2.450  16.800  25.121  0.00  0.00    +0.000 A 
ATOM     28  C   UNL     1      -2.757  18.093  25.550  0.00  0.00    +0.000 A 
ATOM     29  C   UNL     1      -4.081  18.527  25.566  0.00  0.00    +0.000 A 
ATOM     30  C   UNL     1      -5.096  17.669  25.153  0.00  0.00    +0.000 A 
ATOM     31  C   UNL     1      -4.786  16.378  24.719  0.00  0.00    +0.000 A 
ENDBRANCH  24  26
ENDBRANCH   4  21
TORSDOF 4
ENDMDL
MODEL 2
REMARK VINA RESULT:      -8.7      0.713      1.188
REMARK  Name = 
REMARK  5 active torsions:
REMARK  status: ('A' for Active; 'I' for Inactive)
REMARK    1  A    between atoms: C_1  and  S_2
REMARK    2  A    between atoms: S_2  and  C_5
REMARK    3  A    between atoms: C_10  and  C_11
REMARK    4  A    between atoms: C_14  and  C_15
REMARK    5  A    between atoms: C_18  and  C_19
REMARK                            x       y       z     vdW  Elec       q    Type
REMARK                         _______ _______ _______ _____ _____    ______ ____
ROOT
ATOM      1  C   UNL     1       0.253   9.640  21.169  0.00  0.00    +0.000 A 
ATOM      2  C   UNL     1      -0.277  10.718  20.456  0.00  0.00    +0.000 A 
ATOM      3  C   UNL     1      -1.076  11.674  21.098  0.00  0.00    +0.000 A 
ATOM      4  C   UNL     1      -1.349  11.584  22.472  0.00  0.00    +0.000 A 
ATOM      5  C   UNL     1      -0.788  10.515  23.184  0.00  0.00    +0.000 A 
ATOM      6  C   UNL     1       0.000   9.556  22.543  0.00  0.00    +0.000 A 
ENDROOT
BRANCH   1  12
ATOM      7  C   UNL     1       3.525   5.044  19.217  0.00  0.00    +0.000 A 
ATOM      8  C   UNL     1       3.781   5.899  18.138  0.00  0.00    +0.000 A 
ATOM      9  C   UNL     1       3.176   7.164  18.078  0.00  0.00    +0.000 A 
ATOM     10  C   UNL     1       2.331   7.557  19.127  0.00  0.00    +0.000 A 
ATOM     11  N   UNL     1       1.640   8.729  19.311  0.00  0.00    +0.000 NA
ATOM     12  C   UNL     1       1.056   8.626  20.491  0.00  0.00    +0.000 A 
ATOM     13  N   UNL     1       1.292   7.381  21.027  0.00  0.00    +0.000 N 
ATOM     14  C   UNL     1       2.119   6.687  20.188  0.00  0.00    +0.000 A 
ATOM     15  C   UNL     1       2.688   5.417  20.279  0.00  0.00    +0.000 A 
ATOM     16  H   UNL     1       0.924   7.047  21.904  0.00  0.00    +0.000 HD
BRANCH   7  18
ATOM     17  C   UNL     1       3.753   2.652  17.805  0.00  0.00    +0.000 C 
ATOM     18  S   UNL     1       4.331   3.455  19.276  0.00  0.00    +0.000 S 
ATOM     19  O   UNL     1       3.793   2.739  20.418  0.00  0.00    +0.000 OA
ATOM     20  O   UNL     1       5.759   3.677  19.140  0.00  0.00    +0.000 OA
ENDBRANCH   7  18
ENDBRANCH   1  12
BRANCH   4  21
ATOM     21  C   UNL     1      -2.213  12.548  23.177  0.00  0.00    +0.000 A 
ATOM     22  C   UNL     1      -3.459  12.335  23.736  0.00  0.00    +0.000 A 
ATOM     23  C   UNL     1      -4.002  13.501  24.344  0.00  0.00    +0.000 A 
ATOM     24  C   UNL     1      -3.164  14.596  24.244  0.00  0.00    +0.000 A 
ATOM     25  S   UNL     1      -1.718  14.170  23.427  0.00  0.00    +0.000 S 
BRANCH  24  26
ATOM     26  C   UNL     1      -3.397  15.976  24.706  0.00  0.00    +0.000 A 
ATOM     27  C   UNL     1      -4.681  16.539  24.764  0.00  0.00    +0.000 A 
ATOM     28  C   UNL     1      -4.872  17.850  25.209  0.00  0.00    +0.000 A 
ATOM     29  C   UNL     1      -3.779  18.622  25.596  0.00  0.00    +0.000 A 
ATOM     30  C   UNL     1      -2.497  18.083  25.540  0.00  0.00    +0.000 A 
ATOM     31  C   UNL     1      -2.309  16.771  25.100  0.00  0.00    +0.000 A 
ENDBRANCH  24  26
ENDBRANCH   4  21
TORSDOF 4
ENDMDL
MODEL 3
REMARK VINA RESULT:      -8.3      5.205     12.101
REMARK  Name = 
REMARK  5 active torsions:
REMARK  status: ('A' for Active; 'I' for Inactive)
REMARK    1  A    between atoms: C_1  and  S_2
REMARK    2  A    between atoms: S_2  and  C_5
REMARK    3  A    between atoms: C_10  and  C_11
REMARK    4  A    between atoms: C_14  and  C_15
REMARK    5  A    between atoms: C_18  and  C_19
REMARK                            x       y       z     vdW  Elec       q    Type
REMARK                         _______ _______ _______ _____ _____    ______ ____
ROOT
ATOM      1  C   UNL     1      -0.360  11.123  21.937  0.00  0.00    +0.000 A 
ATOM      2  C   UNL     1       0.139  11.238  20.638  0.00  0.00    +0.000 A 
ATOM      3  C   UNL     1       0.797  10.160  20.030  0.00  0.00    +0.000 A 
ATOM      4  C   UNL     1       0.955   8.936  20.700  0.00  0.00    +0.000 A 
ATOM      5  C   UNL     1       0.423   8.823  21.992  0.00  0.00    +0.000 A 
ATOM      6  C   UNL     1      -0.224   9.900  22.603  0.00  0.00    +0.000 A 
ENDROOT
BRANCH   1  12
ATOM      7  C   UNL     1      -3.774  15.545  24.046  0.00  0.00    +0.000 A 
ATOM      8  C   UNL     1      -2.557  16.020  24.550  0.00  0.00    +0.000 A 
ATOM      9  C   UNL     1      -1.377  15.283  24.366  0.00  0.00    +0.000 A 
ATOM     10  C   UNL     1      -1.441  14.078  23.650  0.00  0.00    +0.000 A 
ATOM     11  N   UNL     1      -0.445  13.191  23.325  0.00  0.00    +0.000 NA
ATOM     12  C   UNL     1      -1.014  12.260  22.582  0.00  0.00    +0.000 A 
ATOM     13  N   UNL     1      -2.368  12.487  22.495  0.00  0.00    +0.000 N 
ATOM     14  C   UNL     1      -2.664  13.651  23.150  0.00  0.00    +0.000 A 
ATOM     15  C   UNL     1      -3.862  14.345  23.324  0.00  0.00    +0.000 A 
ATOM     16  H   UNL     1      -3.028  11.897  22.013  0.00  0.00    +0.000 HD
BRANCH   7  18
ATOM     17  C   UNL     1      -5.204  17.648  22.908  0.00  0.00    +0.000 C 
ATOM     18  S   UNL     1      -5.249  16.519  24.274  0.00  0.00    +0.000 S 
ATOM     19  O   UNL     1      -5.077  17.285  25.495  0.00  0.00    +0.000 OA
ATOM     20  O   UNL     1      -6.391  15.641  24.099  0.00  0.00    +0.000 OA
ENDBRANCH   7  18
ENDBRANCH   1  12
BRANCH   4  21
ATOM     21  C   UNL     1       1.670   7.791  20.110  0.00  0.00    +0.000 A 
ATOM     22  C   UNL     1       1.797   6.508  20.611  0.00  0.00    +0.000 A 
ATOM     23  C   UNL     1       2.561   5.655  19.765  0.00  0.00    +0.000 A 
ATOM     24  C   UNL     1       3.009   6.295  18.624  0.00  0.00    +0.000 A 
ATOM     25  S   UNL     1       2.468   7.922  18.599  0.00  0.00    +0.000 S 
BRANCH  24  26
ATOM     26  C   UNL     1       3.858   5.760  17.546  0.00  0.00    +0.000 A 
ATOM     27  C   UNL     1       4.591   6.594  16.687  0.00  0.00    +0.000 A 
ATOM     28  C   UNL     1       5.390   6.059  15.674  0.00  0.00    +0.000 A 
ATOM     29  C   UNL     1       5.465   4.679  15.499  0.00  0.00    +0.000 A 
ATOM     30  C   UNL     1       4.741   3.835  16.337  0.00  0.00    +0.000 A 
ATOM     31  C   UNL     1       3.947   4.372  17.352  0.00  0.00    +0.000 A 
ENDBRANCH  24  26
ENDBRANCH   4  21
TORSDOF 4
ENDMDL
MODEL 4
REMARK VINA RESULT:      -8.2      1.249      2.061
REMARK  Name = 
REMARK  5 active torsions:
REMARK  status: ('A' for Active; 'I' for Inactive)
REMARK    1  A    between atoms: C_1  and  S_2
REMARK    2  A    between atoms: S_2  and  C_5
REMARK    3  A    between atoms: C_10  and  C_11
REMARK    4  A    between atoms: C_14  and  C_15
REMARK    5  A    between atoms: C_18  and  C_19
REMARK                            x       y       z     vdW  Elec       q    Type
REMARK                         _______ _______ _______ _____ _____    ______ ____
ROOT
ATOM      1  C   UNL     1       0.468   9.307  21.042  0.00  0.00    +0.000 A 
ATOM      2  C   UNL     1       0.185   9.172  22.403  0.00  0.00    +0.000 A 
ATOM      3  C   UNL     1      -0.617  10.114  23.062  0.00  0.00    +0.000 A 
ATOM      4  C   UNL     1      -1.171  11.203  22.370  0.00  0.00    +0.000 A 
ATOM      5  C   UNL     1      -0.905  11.313  20.998  0.00  0.00    +0.000 A 
ATOM      6  C   UNL     1      -0.097  10.380  20.343  0.00  0.00    +0.000 A 
ENDROOT
BRANCH   1  12
ATOM      7  C   UNL     1       4.060   6.009  17.597  0.00  0.00    +0.000 A 
ATOM      8  C   UNL     1       3.684   4.983  18.474  0.00  0.00    +0.000 A 
ATOM      9  C   UNL     1       2.838   5.255  19.560  0.00  0.00    +0.000 A 
ATOM     10  C   UNL     1       2.364   6.564  19.734  0.00  0.00    +0.000 A 
ATOM     11  N   UNL     1       1.527   7.079  20.693  0.00  0.00    +0.000 NA
ATOM     12  C   UNL     1       1.334   8.344  20.366  0.00  0.00    +0.000 A 
ATOM     13  N   UNL     1       2.094   8.669  19.267  0.00  0.00    +0.000 N 
ATOM     14  C   UNL     1       2.745   7.548  18.831  0.00  0.00    +0.000 A 
ATOM     15  C   UNL     1       3.595   7.324  17.748  0.00  0.00    +0.000 A 
ATOM     16  H   UNL     1       2.147   9.584  18.846  0.00  0.00    +0.000 HD
BRANCH   7  18
ATOM     17  C   UNL     1       6.735   5.610  16.928  0.00  0.00    +0.000 C 
ATOM     18  S   UNL     1       5.113   5.625  16.211  0.00  0.00    +0.000 S 
ATOM     19  O   UNL     1       5.040   6.743  15.289  0.00  0.00    +0.000 OA
ATOM     20  O   UNL     1       4.799   4.277  15.776  0.00  0.00    +0.000 OA
ENDBRANCH   7  18
ENDBRANCH   1  12
BRANCH   4  21
ATOM     21  C   UNL     1      -1.990  12.234  23.032  0.00  0.00    +0.000 A 
ATOM     22  C   UNL     1      -3.278  12.121  23.522  0.00  0.00    +0.000 A 
ATOM     23  C   UNL     1      -3.758  13.328  24.105  0.00  0.00    +0.000 A 
ATOM     24  C   UNL     1      -2.830  14.352  24.055  0.00  0.00    +0.000 A 
ATOM     25  S   UNL     1      -1.381  13.810  23.315  0.00  0.00    +0.000 S 
BRANCH  24  26
ATOM     26  C   UNL     1      -2.976  15.745  24.509  0.00  0.00    +0.000 A 
ATOM     27  C   UNL     1      -1.877  16.609  24.640  0.00  0.00    +0.000 A 
ATOM     28  C   UNL     1      -2.045  17.927  25.071  0.00  0.00    +0.000 A 
ATOM     29  C   UNL     1      -3.316  18.402  25.386  0.00  0.00    +0.000 A 
ATOM     30  C   UNL     1      -4.418  17.559  25.268  0.00  0.00    +0.000 A 
ATOM     31  C   UNL     1      -4.248  16.243  24.833  0.00  0.00    +0.000 A 
ENDBRANCH  24  26
ENDBRANCH   4  21
TORSDOF 4
ENDMDL
MODEL 5
REMARK VINA RESULT:      -8.2      5.127     12.168
REMARK  Name = 
REMARK  5 active torsions:
REMARK  status: ('A' for Active; 'I' for Inactive)
REMARK    1  A    between atoms: C_1  and  S_2
REMARK    2  A    between atoms: S_2  and  C_5
REMARK    3  A    between atoms: C_10  and  C_11
REMARK    4  A    between atoms: C_14  and  C_15
REMARK    5  A    between atoms: C_18  and  C_19
REMARK                            x       y       z     vdW  Elec       q    Type
REMARK                         _______ _______ _______ _____ _____    ______ ____
ROOT
ATOM      1  C   UNL     1      -0.267  11.150  21.750  0.00  0.00    +0.000 A 
ATOM      2  C   UNL     1      -0.004   9.945  22.407  0.00  0.00    +0.000 A 
ATOM      3  C   UNL     1       0.646   8.897  21.740  0.00  0.00    +0.000 A 
ATOM      4  C   UNL     1       1.064   9.036  20.407  0.00  0.00    +0.000 A 
ATOM      5  C   UNL     1       0.823  10.259  19.768  0.00  0.00    +0.000 A 
ATOM      6  C   UNL     1       0.166  11.301  20.428  0.00  0.00    +0.000 A 
ENDROOT
BRANCH   1  12
ATOM      7  C   UNL     1      -3.858  15.384  23.947  0.00  0.00    +0.000 A 
ATOM      8  C   UNL     1      -2.689  15.808  24.591  0.00  0.00    +0.000 A 
ATOM      9  C   UNL     1      -1.496  15.085  24.441  0.00  0.00    +0.000 A 
ATOM     10  C   UNL     1      -1.496  13.947  23.620  0.00  0.00    +0.000 A 
ATOM     11  N   UNL     1      -0.473  13.088  23.302  0.00  0.00    +0.000 NA
ATOM     12  C   UNL     1      -0.976  12.228  22.436  0.00  0.00    +0.000 A 
ATOM     13  N   UNL     1      -2.318  12.468  22.256  0.00  0.00    +0.000 N 
ATOM     14  C   UNL     1      -2.671  13.571  22.984  0.00  0.00    +0.000 A 
ATOM     15  C   UNL     1      -3.882  14.252  23.117  0.00  0.00    +0.000 A 
ATOM     16  H   UNL     1      -2.933  11.925  21.670  0.00  0.00    +0.000 HD
BRANCH   7  18
ATOM     17  C   UNL     1      -5.376  17.343  22.673  0.00  0.00    +0.000 C 
ATOM     18  S   UNL     1      -5.350  16.340  24.136  0.00  0.00    +0.000 S 
ATOM     19  O   UNL     1      -5.161  17.217  25.277  0.00  0.00    +0.000 OA
ATOM     20  O   UNL     1      -6.474  15.425  24.077  0.00  0.00    +0.000 OA
ENDBRANCH   7  18
ENDBRANCH   1  12
BRANCH   4  21
ATOM     21  C   UNL     1       1.719   7.947  19.661  0.00  0.00    +0.000 A 
ATOM     22  C   UNL     1       2.387   8.016  18.452  0.00  0.00    +0.000 A 
ATOM     23  C   UNL     1       2.900   6.758  18.028  0.00  0.00    +0.000 A 
ATOM     24  C   UNL     1       2.619   5.739  18.919  0.00  0.00    +0.000 A 
ATOM     25  S   UNL     1       1.752   6.345  20.268  0.00  0.00    +0.000 S 
BRANCH  24  26
ATOM     26  C   UNL     1       2.941   4.306  18.805  0.00  0.00    +0.000 A 
ATOM     27  C   UNL     1       3.915   3.691  19.608  0.00  0.00    +0.000 A 
ATOM     28  C   UNL     1       4.198   2.329  19.479  0.00  0.00    +0.000 A 
ATOM     29  C   UNL     1       3.516   1.560  18.539  0.00  0.00    +0.000 A 
ATOM     30  C   UNL     1       2.551   2.152  17.729  0.00  0.00    +0.000 A 
ATOM     31  C   UNL     1       2.266   3.513  17.863  0.00  0.00    +0.000 A 
ENDBRANCH  24  26
ENDBRANCH   4  21
TORSDOF 4
ENDMDL
MODEL 6
REMARK VINA RESULT:      -8.2      5.079     12.108
REMARK  Name = 
REMARK  5 active torsions:
REMARK  status: ('A' for Active; 'I' for Inactive)
REMARK    1  A    between atoms: C_1  and  S_2
REMARK    2  A    between atoms: S_2  and  C_5
REMARK    3  A    between atoms: C_10  and  C_11
REMARK    4  A    between atoms: C_14  and  C_15
REMARK    5  A    between atoms: C_18  and  C_19
REMARK                            x       y       z     vdW  Elec       q    Type
REMARK                         _______ _______ _______ _____ _____    ______ ____
ROOT
ATOM      1  C   UNL     1      -0.130  10.787  21.672  0.00  0.00    +0.000 A 
ATOM      2  C   UNL     1       0.175  10.807  20.310  0.00  0.00    +0.000 A 
ATOM      3  C   UNL     1       0.866   9.741  19.718  0.00  0.00    +0.000 A 
ATOM      4  C   UNL     1       1.252   8.621  20.472  0.00  0.00    +0.000 A 
ATOM      5  C   UNL     1       0.914   8.598  21.832  0.00  0.00    +0.000 A 
ATOM      6  C   UNL     1       0.234   9.665  22.425  0.00  0.00    +0.000 A 
ENDROOT
BRANCH   1  12
ATOM      7  C   UNL     1      -3.686  15.130  23.708  0.00  0.00    +0.000 A 
ATOM      8  C   UNL     1      -2.481  15.672  24.172  0.00  0.00    +0.000 A 
ATOM      9  C   UNL     1      -1.275  14.979  23.987  0.00  0.00    +0.000 A 
ATOM     10  C   UNL     1      -1.302  13.749  23.312  0.00  0.00    +0.000 A 
ATOM     11  N   UNL     1      -0.275  12.894  22.995  0.00  0.00    +0.000 NA
ATOM     12  C   UNL     1      -0.819  11.916  22.294  0.00  0.00    +0.000 A 
ATOM     13  N   UNL     1      -2.182  12.085  22.227  0.00  0.00    +0.000 N 
ATOM     14  C   UNL     1      -2.515  13.256  22.850  0.00  0.00    +0.000 A 
ATOM     15  C   UNL     1      -3.737  13.905  23.026  0.00  0.00    +0.000 A 
ATOM     16  H   UNL     1      -2.826  11.452  21.777  0.00  0.00    +0.000 HD
BRANCH   7  18
ATOM     17  C   UNL     1      -5.314  17.008  22.447  0.00  0.00    +0.000 C 
ATOM     18  S   UNL     1      -5.197  16.050  23.934  0.00  0.00    +0.000 S 
ATOM     19  O   UNL     1      -4.985  16.964  25.041  0.00  0.00    +0.000 OA
ATOM     20  O   UNL     1      -6.295  15.101  23.950  0.00  0.00    +0.000 OA
ENDBRANCH   7  18
ENDBRANCH   1  12
BRANCH   4  21
ATOM     21  C   UNL     1       2.010   7.496  19.897  0.00  0.00    +0.000 A 
ATOM     22  C   UNL     1       2.220   6.239  20.434  0.00  0.00    +0.000 A 
ATOM     23  C   UNL     1       3.002   5.399  19.593  0.00  0.00    +0.000 A 
ATOM     24  C   UNL     1       3.383   6.023  18.419  0.00  0.00    +0.000 A 
ATOM     25  S   UNL     1       2.756   7.618  18.359  0.00  0.00    +0.000 S 
BRANCH  24  26
ATOM     26  C   UNL     1       4.228   5.498  17.332  0.00  0.00    +0.000 A 
ATOM     27  C   UNL     1       4.515   4.130  17.202  0.00  0.00    +0.000 A 
ATOM     28  C   UNL     1       5.318   3.660  16.159  0.00  0.00    +0.000 A 
ATOM     29  C   UNL     1       5.852   4.553  15.233  0.00  0.00    +0.000 A 
ATOM     30  C   UNL     1       5.584   5.914  15.349  0.00  0.00    +0.000 A 
ATOM     31  C   UNL     1       4.777   6.381  16.389  0.00  0.00    +0.000 A 
ENDBRANCH  24  26
ENDBRANCH   4  21
TORSDOF 4
ENDMDL
MODEL 7
REMARK VINA RESULT:      -8.2      0.919      1.132
REMARK  Name = 
REMARK  5 active torsions:
REMARK  status: ('A' for Active; 'I' for Inactive)
REMARK    1  A    between atoms: C_1  and  S_2
REMARK    2  A    between atoms: S_2  and  C_5
REMARK    3  A    between atoms: C_10  and  C_11
REMARK    4  A    between atoms: C_14  and  C_15
REMARK    5  A    between atoms: C_18  and  C_19
REMARK                            x       y       z     vdW  Elec       q    Type
REMARK                         _______ _______ _______ _____ _____    ______ ____
ROOT
ATOM      1  C   UNL     1       0.164   9.763  20.953  0.00  0.00    +0.000 A 
ATOM      2  C   UNL     1      -0.378  10.849  20.262  0.00  0.00    +0.000 A 
ATOM      3  C   UNL     1      -1.225  11.757  20.913  0.00  0.00    +0.000 A 
ATOM      4  C   UNL     1      -1.534  11.610  22.275  0.00  0.00    +0.000 A 
ATOM      5  C   UNL     1      -0.960  10.534  22.966  0.00  0.00    +0.000 A 
ATOM      6  C   UNL     1      -0.124   9.622  22.315  0.00  0.00    +0.000 A 
ENDROOT
BRANCH   1  12
ATOM      7  C   UNL     1       3.699   5.382  18.961  0.00  0.00    +0.000 A 
ATOM      8  C   UNL     1       3.861   6.237  17.864  0.00  0.00    +0.000 A 
ATOM      9  C   UNL     1       3.165   7.454  17.806  0.00  0.00    +0.000 A 
ATOM     10  C   UNL     1       2.325   7.802  18.875  0.00  0.00    +0.000 A 
ATOM     11  N   UNL     1       1.558   8.924  19.065  0.00  0.00    +0.000 NA
ATOM     12  C   UNL     1       1.018   8.798  20.263  0.00  0.00    +0.000 A 
ATOM     13  N   UNL     1       1.359   7.582  20.809  0.00  0.00    +0.000 N 
ATOM     14  C   UNL     1       2.208   6.936  19.953  0.00  0.00    +0.000 A 
ATOM     15  C   UNL     1       2.869   5.711  20.044  0.00  0.00    +0.000 A 
ATOM     16  H   UNL     1       1.042   7.235  21.701  0.00  0.00    +0.000 HD
BRANCH   7  18
ATOM     17  C   UNL     1       4.170   3.058  17.498  0.00  0.00    +0.000 C 
ATOM     18  S   UNL     1       4.619   3.856  19.017  0.00  0.00    +0.000 S 
ATOM     19  O   UNL     1       4.084   3.068  20.112  0.00  0.00    +0.000 OA
ATOM     20  O   UNL     1       6.030   4.187  18.955  0.00  0.00    +0.000 OA
ENDBRANCH   7  18
ENDBRANCH   1  12
BRANCH   4  21
ATOM     21  C   UNL     1      -2.446  12.522  22.988  0.00  0.00    +0.000 A 
ATOM     22  C   UNL     1      -3.324  12.227  24.014  0.00  0.00    +0.000 A 
ATOM     23  C   UNL     1      -4.050  13.364  24.467  0.00  0.00    +0.000 A 
ATOM     24  C   UNL     1      -3.719  14.518  23.782  0.00  0.00    +0.000 A 
ATOM     25  S   UNL     1      -2.509  14.192  22.612  0.00  0.00    +0.000 S 
BRANCH  24  26
ATOM     26  C   UNL     1      -4.285  15.870  23.933  0.00  0.00    +0.000 A 
ATOM     27  C   UNL     1      -4.179  16.597  25.129  0.00  0.00    +0.000 A 
ATOM     28  C   UNL     1      -4.723  17.879  25.242  0.00  0.00    +0.000 A 
ATOM     29  C   UNL     1      -5.390  18.452  24.162  0.00  0.00    +0.000 A 
ATOM     30  C   UNL     1      -5.511  17.745  22.969  0.00  0.00    +0.000 A 
ATOM     31  C   UNL     1      -4.961  16.466  22.856  0.00  0.00    +0.000 A 
ENDBRANCH  24  26
ENDBRANCH   4  21
TORSDOF 4
ENDMDL
MODEL 8
REMARK VINA RESULT:      -8.2      2.044      3.210
REMARK  Name = 
REMARK  5 active torsions:
REMARK  status: ('A' for Active; 'I' for Inactive)
REMARK    1  A    between atoms: C_1  and  S_2
REMARK    2  A    between atoms: S_2  and  C_5
REMARK    3  A    between atoms: C_10  and  C_11
REMARK    4  A    between atoms: C_14  and  C_15
REMARK    5  A    between atoms: C_18  and  C_19
REMARK                            x       y       z     vdW  Elec       q    Type
REMARK                         _______ _______ _______ _____ _____    ______ ____
ROOT
ATOM      1  C   UNL     1       1.342   8.703  19.303  0.00  0.00    +0.000 A 
ATOM      2  C   UNL     1       0.965   8.782  20.646  0.00  0.00    +0.000 A 
ATOM      3  C   UNL     1       0.062   9.765  21.076  0.00  0.00    +0.000 A 
ATOM      4  C   UNL     1      -0.498  10.679  20.170  0.00  0.00    +0.000 A 
ATOM      5  C   UNL     1      -0.136  10.572  18.820  0.00  0.00    +0.000 A 
ATOM      6  C   UNL     1       0.772   9.600  18.392  0.00  0.00    +0.000 A 
ENDROOT
BRANCH   1  12
ATOM      7  C   UNL     1       5.574   5.253  16.886  0.00  0.00    +0.000 A 
ATOM      8  C   UNL     1       4.915   4.238  17.591  0.00  0.00    +0.000 A 
ATOM      9  C   UNL     1       3.816   4.542  18.408  0.00  0.00    +0.000 A 
ATOM     10  C   UNL     1       3.381   5.874  18.486  0.00  0.00    +0.000 A 
ATOM     11  N   UNL     1       2.339   6.422  19.191  0.00  0.00    +0.000 NA
ATOM     12  C   UNL     1       2.310   7.701  18.863  0.00  0.00    +0.000 A 
ATOM     13  N   UNL     1       3.363   7.998  18.029  0.00  0.00    +0.000 N 
ATOM     14  C   UNL     1       4.049   6.847  17.756  0.00  0.00    +0.000 A 
ATOM     15  C   UNL     1       5.155   6.591  16.944  0.00  0.00    +0.000 A 
ATOM     16  H   UNL     1       3.578   8.915  17.668  0.00  0.00    +0.000 HD
BRANCH   7  18
ATOM     17  C   UNL     1       6.241   3.685  14.682  0.00  0.00    +0.000 C 
ATOM     18  S   UNL     1       6.950   4.830  15.835  0.00  0.00    +0.000 S 
ATOM     19  O   UNL     1       7.910   4.109  16.650  0.00  0.00    +0.000 OA
ATOM     20  O   UNL     1       7.336   6.024  15.108  0.00  0.00    +0.000 OA
ENDBRANCH   7  18
ENDBRANCH   1  12
BRANCH   4  21
ATOM     21  C   UNL     1      -1.423  11.748  20.587  0.00  0.00    +0.000 A 
ATOM     22  C   UNL     1      -2.429  12.347  19.851  0.00  0.00    +0.000 A 
ATOM     23  C   UNL     1      -3.130  13.348  20.582  0.00  0.00    +0.000 A 
ATOM     24  C   UNL     1      -2.653  13.504  21.870  0.00  0.00    +0.000 A 
ATOM     25  S   UNL     1      -1.369  12.406  22.169  0.00  0.00    +0.000 S 
BRANCH  24  26
ATOM     26  C   UNL     1      -3.087  14.462  22.900  0.00  0.00    +0.000 A 
ATOM     27  C   UNL     1      -4.046  15.455  22.643  0.00  0.00    +0.000 A 
ATOM     28  C   UNL     1      -4.440  16.349  23.641  0.00  0.00    +0.000 A 
ATOM     29  C   UNL     1      -3.877  16.270  24.912  0.00  0.00    +0.000 A 
ATOM     30  C   UNL     1      -2.920  15.296  25.186  0.00  0.00    +0.000 A 
ATOM     31  C   UNL     1      -2.531  14.400  24.188  0.00  0.00    +0.000 A 
ENDBRANCH  24  26
ENDBRANCH   4  21
TORSDOF 4
ENDMDL
MODEL 9
REMARK VINA RESULT:      -8.2      5.087     12.099
REMARK  Name = 
REMARK  5 active torsions:
REMARK  status: ('A' for Active; 'I' for Inactive)
REMARK    1  A    between atoms: C_1  and  S_2
REMARK    2  A    between atoms: S_2  and  C_5
REMARK    3  A    between atoms: C_10  and  C_11
REMARK    4  A    between atoms: C_14  and  C_15
REMARK    5  A    between atoms: C_18  and  C_19
REMARK                            x       y       z     vdW  Elec       q    Type
REMARK                         _______ _______ _______ _____ _____    ______ ____
ROOT
ATOM      1  C   UNL     1      -0.495  10.932  22.004  0.00  0.00    +0.000 A 
ATOM      2  C   UNL     1      -0.050   9.872  22.796  0.00  0.00    +0.000 A 
ATOM      3  C   UNL     1       0.660   8.805  22.227  0.00  0.00    +0.000 A 
ATOM      4  C   UNL     1       0.956   8.784  20.854  0.00  0.00    +0.000 A 
ATOM      5  C   UNL     1       0.530   9.867  20.074  0.00  0.00    +0.000 A 
ATOM      6  C   UNL     1      -0.186  10.926  20.639  0.00  0.00    +0.000 A 
ENDROOT
BRANCH   1  12
ATOM      7  C   UNL     1      -2.818  15.837  24.493  0.00  0.00    +0.000 A 
ATOM      8  C   UNL     1      -3.946  15.021  24.652  0.00  0.00    +0.000 A 
ATOM      9  C   UNL     1      -3.943  13.706  24.162  0.00  0.00    +0.000 A 
ATOM     10  C   UNL     1      -2.784  13.224  23.534  0.00  0.00    +0.000 A 
ATOM     11  N   UNL     1      -2.524  11.990  22.990  0.00  0.00    +0.000 NA
ATOM     12  C   UNL     1      -1.265  12.025  22.594  0.00  0.00    +0.000 A 
ATOM     13  N   UNL     1      -0.740  13.280  22.798  0.00  0.00    +0.000 N 
ATOM     14  C   UNL     1      -1.681  14.058  23.415  0.00  0.00    +0.000 A 
ATOM     15  C   UNL     1      -1.647  15.375  23.873  0.00  0.00    +0.000 A 
ATOM     16  H   UNL     1       0.192  13.569  22.545  0.00  0.00    +0.000 HD
BRANCH   7  18
ATOM     17  C   UNL     1      -2.427  18.493  23.747  0.00  0.00    +0.000 C 
ATOM     18  S   UNL     1      -2.845  17.494  25.151  0.00  0.00    +0.000 S 
ATOM     19  O   UNL     1      -1.762  17.595  26.112  0.00  0.00    +0.000 OA
ATOM     20  O   UNL     1      -4.212  17.797  25.532  0.00  0.00    +0.000 OA
ENDBRANCH   7  18
ENDBRANCH   1  12
BRANCH   4  21
ATOM     21  C   UNL     1       1.668   7.665  20.211  0.00  0.00    +0.000 A 
ATOM     22  C   UNL     1       1.790   6.360  20.649  0.00  0.00    +0.000 A 
ATOM     23  C   UNL     1       2.552   5.546  19.765  0.00  0.00    +0.000 A 
ATOM     24  C   UNL     1       3.006   6.238  18.658  0.00  0.00    +0.000 A 
ATOM     25  S   UNL     1       2.471   7.867  18.710  0.00  0.00    +0.000 S 
BRANCH  24  26
ATOM     26  C   UNL     1       3.856   5.753  17.557  0.00  0.00    +0.000 A 
ATOM     27  C   UNL     1       4.581   6.626  16.731  0.00  0.00    +0.000 A 
ATOM     28  C   UNL     1       5.382   6.138  15.695  0.00  0.00    +0.000 A 
ATOM     29  C   UNL     1       5.464   4.767  15.464  0.00  0.00    +0.000 A 
ATOM     30  C   UNL     1       4.748   3.885  16.269  0.00  0.00    +0.000 A 
ATOM     31  C   UNL     1       3.953   4.375  17.307  0.00  0.00    +0.000 A 
ENDBRANCH  24  26
ENDBRANCH   4  21
TORSDOF 4
ENDMDL
