MODEL 1
REMARK VINA RESULT:      -7.6      0.000      0.000
REMARK  Name = 
REMARK  1 active torsions:
REMARK  status: ('A' for Active; 'I' for Inactive)
REMARK    1  A    between atoms: C_1  and  C_2
REMARK                            x       y       z     vdW  Elec       q    Type
REMARK                         _______ _______ _______ _____ _____    ______ ____
ROOT
ATOM      1  C   UNL     1       0.934  11.443  19.606  0.00  0.00    +0.000 C 
ATOM      2  C   UNL     1       1.025  10.086  20.199  0.00  0.00    +0.000 A 
ATOM      3  C   UNL     1       0.679   9.650  21.464  0.00  0.00    +0.000 A 
ATOM      4  O   UNL     1       0.929   8.311  21.615  0.00  0.00    +0.000 OA
ATOM      5  C   UNL     1       1.460   7.897  20.439  0.00  0.00    +0.000 A 
ATOM      6  C   UNL     1       1.541   8.944  19.559  0.00  0.00    +0.000 A 
ATOM      7  C   UNL     1       2.093   8.704  18.248  0.00  0.00    +0.000 C 
ATOM      8  O   UNL     1       1.951   9.465  17.303  0.00  0.00    +0.000 OA
ATOM      9  C   UNL     1       2.931   7.430  18.115  0.00  0.00    +0.000 C 
ATOM     10  O   UNL     1       3.895   7.442  17.363  0.00  0.00    +0.000 OA
ATOM     11  C   UNL     1       2.572   6.261  18.994  0.00  0.00    +0.000 A 
ATOM     12  C   UNL     1       1.859   6.524  20.193  0.00  0.00    +0.000 A 
ATOM     13  C   UNL     1       1.543   5.469  21.043  0.00  0.00    +0.000 A 
ATOM     14  C   UNL     1       1.916   4.167  20.691  0.00  0.00    +0.000 A 
ATOM     15  C   UNL     1       2.607   3.890  19.495  0.00  0.00    +0.000 A 
ATOM     16  C   UNL     1       2.947   4.946  18.630  0.00  0.00    +0.000 A 
ATOM     17  C   UNL     1       3.719   4.694  17.365  0.00  0.00    +0.000 C 
ATOM     18  C   UNL     1       3.830   3.263  16.870  0.00  0.00    +0.000 C 
ATOM     19  C   UNL     1       3.759   2.173  17.920  0.00  0.00    +0.000 C 
ATOM     20  C   UNL     1       2.919   2.456  19.165  0.00  0.00    +0.000 C 
ENDROOT
TORSDOF 0
ENDMDL
MODEL 2
REMARK VINA RESULT:      -7.4      1.692      6.290
REMARK  Name = 
REMARK  1 active torsions:
REMARK  status: ('A' for Active; 'I' for Inactive)
REMARK    1  A    between atoms: C_1  and  C_2
REMARK                            x       y       z     vdW  Elec       q    Type
REMARK                         _______ _______ _______ _____ _____    ______ ____
ROOT
ATOM      1  C   UNL     1       3.818   1.564  18.095  0.00  0.00    +0.000 C 
ATOM      2  C   UNL     1       3.807   3.010  17.766  0.00  0.00    +0.000 A 
ATOM      3  C   UNL     1       4.450   3.690  16.749  0.00  0.00    +0.000 A 
ATOM      4  O   UNL     1       4.181   5.033  16.799  0.00  0.00    +0.000 OA
ATOM      5  C   UNL     1       3.377   5.210  17.875  0.00  0.00    +0.000 A 
ATOM      6  C   UNL     1       3.132   4.011  18.490  0.00  0.00    +0.000 A 
ATOM      7  C   UNL     1       2.300   3.995  19.667  0.00  0.00    +0.000 C 
ATOM      8  O   UNL     1       1.785   2.984  20.119  0.00  0.00    +0.000 OA
ATOM      9  C   UNL     1       2.130   5.346  20.367  0.00  0.00    +0.000 C 
ATOM     10  O   UNL     1       2.033   5.363  21.586  0.00  0.00    +0.000 OA
ATOM     11  C   UNL     1       2.187   6.586  19.516  0.00  0.00    +0.000 A 
ATOM     12  C   UNL     1       2.861   6.508  18.268  0.00  0.00    +0.000 A 
ATOM     13  C   UNL     1       2.961   7.647  17.475  0.00  0.00    +0.000 A 
ATOM     14  C   UNL     1       2.377   8.842  17.911  0.00  0.00    +0.000 A 
ATOM     15  C   UNL     1       1.688   8.928  19.137  0.00  0.00    +0.000 A 
ATOM     16  C   UNL     1       1.590   7.791  19.959  0.00  0.00    +0.000 A 
ATOM     17  C   UNL     1       0.898   7.854  21.292  0.00  0.00    +0.000 C 
ATOM     18  C   UNL     1       0.023   9.060  21.584  0.00  0.00    +0.000 C 
ATOM     19  C   UNL     1       0.388  10.352  20.880  0.00  0.00    +0.000 C 
ATOM     20  C   UNL     1       1.042  10.236  19.504  0.00  0.00    +0.000 C 
ENDROOT
TORSDOF 0
ENDMDL
MODEL 3
REMARK VINA RESULT:      -7.1      2.178      6.727
REMARK  Name = 
REMARK  1 active torsions:
REMARK  status: ('A' for Active; 'I' for Inactive)
REMARK    1  A    between atoms: C_1  and  C_2
REMARK                            x       y       z     vdW  Elec       q    Type
REMARK                         _______ _______ _______ _____ _____    ______ ____
ROOT
ATOM      1  C   UNL     1       3.288   6.851  17.646  0.00  0.00    +0.000 C 
ATOM      2  C   UNL     1       2.567   7.126  18.913  0.00  0.00    +0.000 A 
ATOM      3  C   UNL     1       2.448   6.348  20.049  0.00  0.00    +0.000 A 
ATOM      4  O   UNL     1       1.683   6.970  21.002  0.00  0.00    +0.000 OA
ATOM      5  C   UNL     1       1.293   8.146  20.454  0.00  0.00    +0.000 A 
ATOM      6  C   UNL     1       1.802   8.275  19.189  0.00  0.00    +0.000 A 
ATOM      7  C   UNL     1       1.487   9.462  18.433  0.00  0.00    +0.000 C 
ATOM      8  O   UNL     1       2.102   9.816  17.439  0.00  0.00    +0.000 OA
ATOM      9  C   UNL     1       0.275  10.254  18.934  0.00  0.00    +0.000 C 
ATOM     10  O   UNL     1      -0.432  10.819  18.112  0.00  0.00    +0.000 OA
ATOM     11  C   UNL     1      -0.029  10.209  20.408  0.00  0.00    +0.000 A 
ATOM     12  C   UNL     1       0.463   9.108  21.157  0.00  0.00    +0.000 A 
ATOM     13  C   UNL     1       0.169   9.020  22.514  0.00  0.00    +0.000 A 
ATOM     14  C   UNL     1      -0.588  10.029  23.120  0.00  0.00    +0.000 A 
ATOM     15  C   UNL     1      -1.066  11.138  22.392  0.00  0.00    +0.000 A 
ATOM     16  C   UNL     1      -0.790  11.235  21.016  0.00  0.00    +0.000 A 
ATOM     17  C   UNL     1      -1.317  12.382  20.199  0.00  0.00    +0.000 C 
ATOM     18  C   UNL     1      -1.858  13.594  20.936  0.00  0.00    +0.000 C 
ATOM     19  C   UNL     1      -2.428  13.350  22.319  0.00  0.00    +0.000 C 
ATOM     20  C   UNL     1      -1.824  12.205  23.132  0.00  0.00    +0.000 C 
ENDROOT
TORSDOF 0
ENDMDL
MODEL 4
REMARK VINA RESULT:      -7.1      2.272      4.525
REMARK  Name = 
REMARK  1 active torsions:
REMARK  status: ('A' for Active; 'I' for Inactive)
REMARK    1  A    between atoms: C_1  and  C_2
REMARK                            x       y       z     vdW  Elec       q    Type
REMARK                         _______ _______ _______ _____ _____    ______ ____
ROOT
ATOM      1  C   UNL     1      -1.434  13.395  22.491  0.00  0.00    +0.000 C 
ATOM      2  C   UNL     1      -0.774  12.809  21.299  0.00  0.00    +0.000 A 
ATOM      3  C   UNL     1      -0.553  13.359  20.051  0.00  0.00    +0.000 A 
ATOM      4  O   UNL     1       0.089  12.475  19.222  0.00  0.00    +0.000 OA
ATOM      5  C   UNL     1       0.258  11.343  19.947  0.00  0.00    +0.000 A 
ATOM      6  C   UNL     1      -0.256  11.503  21.207  0.00  0.00    +0.000 A 
ATOM      7  C   UNL     1      -0.182  10.397  22.130  0.00  0.00    +0.000 C 
ATOM      8  O   UNL     1      -0.335  10.510  23.336  0.00  0.00    +0.000 OA
ATOM      9  C   UNL     1       0.062   9.027  21.491  0.00  0.00    +0.000 C 
ATOM     10  O   UNL     1      -0.461   8.046  21.999  0.00  0.00    +0.000 OA
ATOM     11  C   UNL     1       0.858   8.983  20.214  0.00  0.00    +0.000 A 
ATOM     12  C   UNL     1       0.912  10.160  19.421  0.00  0.00    +0.000 A 
ATOM     13  C   UNL     1       1.610  10.139  18.218  0.00  0.00    +0.000 A 
ATOM     14  C   UNL     1       2.263   8.967  17.821  0.00  0.00    +0.000 A 
ATOM     15  C   UNL     1       2.233   7.798  18.608  0.00  0.00    +0.000 A 
ATOM     16  C   UNL     1       1.520   7.796  19.820  0.00  0.00    +0.000 A 
ATOM     17  C   UNL     1       1.432   6.556  20.666  0.00  0.00    +0.000 C 
ATOM     18  C   UNL     1       2.393   5.419  20.367  0.00  0.00    +0.000 C 
ATOM     19  C   UNL     1       2.886   5.305  18.938  0.00  0.00    +0.000 C 
ATOM     20  C   UNL     1       3.008   6.599  18.135  0.00  0.00    +0.000 C 
ENDROOT
TORSDOF 0
ENDMDL
MODEL 5
REMARK VINA RESULT:      -7.0      2.623      6.037
REMARK  Name = 
REMARK  1 active torsions:
REMARK  status: ('A' for Active; 'I' for Inactive)
REMARK    1  A    between atoms: C_1  and  C_2
REMARK                            x       y       z     vdW  Elec       q    Type
REMARK                         _______ _______ _______ _____ _____    ______ ____
ROOT
ATOM      1  C   UNL     1       7.963   5.787  13.827  0.00  0.00    +0.000 C 
ATOM      2  C   UNL     1       6.881   4.895  14.313  0.00  0.00    +0.000 A 
ATOM      3  C   UNL     1       6.433   3.691  13.804  0.00  0.00    +0.000 A 
ATOM      4  O   UNL     1       5.400   3.187  14.551  0.00  0.00    +0.000 OA
ATOM      5  C   UNL     1       5.176   4.093  15.533  0.00  0.00    +0.000 A 
ATOM      6  C   UNL     1       6.048   5.144  15.420  0.00  0.00    +0.000 A 
ATOM      7  C   UNL     1       5.958   6.223  16.373  0.00  0.00    +0.000 C 
ATOM      8  O   UNL     1       6.843   7.047  16.549  0.00  0.00    +0.000 OA
ATOM      9  C   UNL     1       4.637   6.309  17.142  0.00  0.00    +0.000 C 
ATOM     10  O   UNL     1       4.207   7.413  17.441  0.00  0.00    +0.000 OA
ATOM     11  C   UNL     1       3.895   5.025  17.403  0.00  0.00    +0.000 A 
ATOM     12  C   UNL     1       4.153   3.920  16.548  0.00  0.00    +0.000 A 
ATOM     13  C   UNL     1       3.457   2.731  16.741  0.00  0.00    +0.000 A 
ATOM     14  C   UNL     1       2.532   2.639  17.787  0.00  0.00    +0.000 A 
ATOM     15  C   UNL     1       2.281   3.720  18.655  0.00  0.00    +0.000 A 
ATOM     16  C   UNL     1       2.965   4.935  18.465  0.00  0.00    +0.000 A 
ATOM     17  C   UNL     1       2.694   6.123  19.345  0.00  0.00    +0.000 C 
ATOM     18  C   UNL     1       1.931   5.894  20.637  0.00  0.00    +0.000 C 
ATOM     19  C   UNL     1       0.967   4.724  20.659  0.00  0.00    +0.000 C 
ATOM     20  C   UNL     1       1.313   3.518  19.787  0.00  0.00    +0.000 C 
ENDROOT
TORSDOF 0
ENDMDL
MODEL 6
REMARK VINA RESULT:      -7.0      1.671      6.126
REMARK  Name = 
REMARK  1 active torsions:
REMARK  status: ('A' for Active; 'I' for Inactive)
REMARK    1  A    between atoms: C_1  and  C_2
REMARK                            x       y       z     vdW  Elec       q    Type
REMARK                         _______ _______ _______ _____ _____    ______ ____
ROOT
ATOM      1  C   UNL     1       5.181   3.372  16.711  0.00  0.00    +0.000 C 
ATOM      2  C   UNL     1       4.770   4.797  16.736  0.00  0.00    +0.000 A 
ATOM      3  C   UNL     1       5.166   5.846  15.928  0.00  0.00    +0.000 A 
ATOM      4  O   UNL     1       4.549   7.016  16.290  0.00  0.00    +0.000 OA
ATOM      5  C   UNL     1       3.770   6.709  17.355  0.00  0.00    +0.000 A 
ATOM      6  C   UNL     1       3.880   5.378  17.659  0.00  0.00    +0.000 A 
ATOM      7  C   UNL     1       3.129   4.860  18.776  0.00  0.00    +0.000 C 
ATOM      8  O   UNL     1       2.922   3.670  18.959  0.00  0.00    +0.000 OA
ATOM      9  C   UNL     1       2.631   5.909  19.773  0.00  0.00    +0.000 C 
ATOM     10  O   UNL     1       2.581   5.611  20.958  0.00  0.00    +0.000 OA
ATOM     11  C   UNL     1       2.320   7.284  19.244  0.00  0.00    +0.000 A 
ATOM     12  C   UNL     1       2.940   7.688  18.033  0.00  0.00    +0.000 A 
ATOM     13  C   UNL     1       2.700   8.966  17.537  0.00  0.00    +0.000 A 
ATOM     14  C   UNL     1       1.835   9.821  18.230  0.00  0.00    +0.000 A 
ATOM     15  C   UNL     1       1.197   9.425  19.422  0.00  0.00    +0.000 A 
ATOM     16  C   UNL     1       1.440   8.143  19.946  0.00  0.00    +0.000 A 
ATOM     17  C   UNL     1       0.809   7.699  21.237  0.00  0.00    +0.000 C 
ATOM     18  C   UNL     1      -0.344   8.520  21.785  0.00  0.00    +0.000 C 
ATOM     19  C   UNL     1      -0.367   9.991  21.419  0.00  0.00    +0.000 C 
ATOM     20  C   UNL     1       0.240  10.385  20.073  0.00  0.00    +0.000 C 
ENDROOT
TORSDOF 0
ENDMDL
MODEL 7
REMARK VINA RESULT:      -6.9      1.253      5.798
REMARK  Name = 
REMARK  1 active torsions:
REMARK  status: ('A' for Active; 'I' for Inactive)
REMARK    1  A    between atoms: C_1  and  C_2
REMARK                            x       y       z     vdW  Elec       q    Type
REMARK                         _______ _______ _______ _____ _____    ______ ____
ROOT
ATOM      1  C   UNL     1       4.243   3.943  18.284  0.00  0.00    +0.000 C 
ATOM      2  C   UNL     1       3.353   4.677  19.217  0.00  0.00    +0.000 A 
ATOM      3  C   UNL     1       2.678   4.224  20.334  0.00  0.00    +0.000 A 
ATOM      4  O   UNL     1       1.950   5.229  20.918  0.00  0.00    +0.000 OA
ATOM      5  C   UNL     1       2.149   6.326  20.149  0.00  0.00    +0.000 A 
ATOM      6  C   UNL     1       2.987   6.032  19.106  0.00  0.00    +0.000 A 
ATOM      7  C   UNL     1       3.312   7.074  18.164  0.00  0.00    +0.000 C 
ATOM      8  O   UNL     1       4.251   7.015  17.385  0.00  0.00    +0.000 OA
ATOM      9  C   UNL     1       2.361   8.274  18.162  0.00  0.00    +0.000 C 
ATOM     10  O   UNL     1       2.136   8.839  17.101  0.00  0.00    +0.000 OA
ATOM     11  C   UNL     1       1.682   8.630  19.458  0.00  0.00    +0.000 A 
ATOM     12  C   UNL     1       1.547   7.614  20.441  0.00  0.00    +0.000 A 
ATOM     13  C   UNL     1       0.893   7.903  21.634  0.00  0.00    +0.000 A 
ATOM     14  C   UNL     1       0.398   9.193  21.853  0.00  0.00    +0.000 A 
ATOM     15  C   UNL     1       0.542  10.216  20.894  0.00  0.00    +0.000 A 
ATOM     16  C   UNL     1       1.188   9.938  19.676  0.00  0.00    +0.000 A 
ATOM     17  C   UNL     1       1.325  10.992  18.612  0.00  0.00    +0.000 C 
ATOM     18  C   UNL     1       1.060  12.436  19.001  0.00  0.00    +0.000 C 
ATOM     19  C   UNL     1       0.097  12.665  20.148  0.00  0.00    +0.000 C 
ATOM     20  C   UNL     1       0.032  11.589  21.232  0.00  0.00    +0.000 C 
ENDROOT
TORSDOF 0
ENDMDL
MODEL 8
REMARK VINA RESULT:      -6.8      1.609      5.542
REMARK  Name = 
REMARK  1 active torsions:
REMARK  status: ('A' for Active; 'I' for Inactive)
REMARK    1  A    between atoms: C_1  and  C_2
REMARK                            x       y       z     vdW  Elec       q    Type
REMARK                         _______ _______ _______ _____ _____    ______ ____
ROOT
ATOM      1  C   UNL     1       6.059   4.044  15.847  0.00  0.00    +0.000 C 
ATOM      2  C   UNL     1       5.062   4.087  16.944  0.00  0.00    +0.000 A 
ATOM      3  C   UNL     1       4.535   3.057  17.700  0.00  0.00    +0.000 A 
ATOM      4  O   UNL     1       3.628   3.525  18.616  0.00  0.00    +0.000 OA
ATOM      5  C   UNL     1       3.563   4.864  18.423  0.00  0.00    +0.000 A 
ATOM      6  C   UNL     1       4.411   5.242  17.416  0.00  0.00    +0.000 A 
ATOM      7  C   UNL     1       4.475   6.636  17.053  0.00  0.00    +0.000 C 
ATOM      8  O   UNL     1       5.380   7.124  16.393  0.00  0.00    +0.000 OA
ATOM      9  C   UNL     1       3.289   7.488  17.514  0.00  0.00    +0.000 C 
ATOM     10  O   UNL     1       2.915   8.405  16.797  0.00  0.00    +0.000 OA
ATOM     11  C   UNL     1       2.590   7.083  18.785  0.00  0.00    +0.000 A 
ATOM     12  C   UNL     1       2.708   5.734  19.210  0.00  0.00    +0.000 A 
ATOM     13  C   UNL     1       2.045   5.321  20.361  0.00  0.00    +0.000 A 
ATOM     14  C   UNL     1       1.292   6.248  21.091  0.00  0.00    +0.000 A 
ATOM     15  C   UNL     1       1.183   7.595  20.692  0.00  0.00    +0.000 A 
ATOM     16  C   UNL     1       1.835   8.026  19.522  0.00  0.00    +0.000 A 
ATOM     17  C   UNL     1       1.709   9.446  19.043  0.00  0.00    +0.000 C 
ATOM     18  C   UNL     1       1.153  10.477  20.008  0.00  0.00    +0.000 C 
ATOM     19  C   UNL     1       0.199   9.970  21.071  0.00  0.00    +0.000 C 
ATOM     20  C   UNL     1       0.401   8.538  21.563  0.00  0.00    +0.000 C 
ENDROOT
TORSDOF 0
ENDMDL
MODEL 9
REMARK VINA RESULT:      -6.7      2.128      7.275
REMARK  Name = 
REMARK  1 active torsions:
REMARK  status: ('A' for Active; 'I' for Inactive)
REMARK    1  A    between atoms: C_1  and  C_2
REMARK                            x       y       z     vdW  Elec       q    Type
REMARK                         _______ _______ _______ _____ _____    ______ ____
ROOT
ATOM      1  C   UNL     1       3.308   6.144  18.904  0.00  0.00    +0.000 C 
ATOM      2  C   UNL     1       2.629   7.426  18.591  0.00  0.00    +0.000 A 
ATOM      3  C   UNL     1       2.670   8.189  17.440  0.00  0.00    +0.000 A 
ATOM      4  O   UNL     1       1.899   9.317  17.562  0.00  0.00    +0.000 OA
ATOM      5  C   UNL     1       1.382   9.279  18.814  0.00  0.00    +0.000 A 
ATOM      6  C   UNL     1       1.804   8.153  19.470  0.00  0.00    +0.000 A 
ATOM      7  C   UNL     1       1.367   7.938  20.827  0.00  0.00    +0.000 C 
ATOM      8  O   UNL     1       1.435   6.861  21.398  0.00  0.00    +0.000 OA
ATOM      9  C   UNL     1       0.838   9.181  21.549  0.00  0.00    +0.000 C 
ATOM     10  O   UNL     1       1.044   9.290  22.749  0.00  0.00    +0.000 OA
ATOM     11  C   UNL     1       0.175  10.245  20.715  0.00  0.00    +0.000 A 
ATOM     12  C   UNL     1       0.496  10.304  19.333  0.00  0.00    +0.000 A 
ATOM     13  C   UNL     1      -0.073  11.299  18.543  0.00  0.00    +0.000 A 
ATOM     14  C   UNL     1      -0.966  12.208  19.120  0.00  0.00    +0.000 A 
ATOM     15  C   UNL     1      -1.308  12.148  20.486  0.00  0.00    +0.000 A 
ATOM     16  C   UNL     1      -0.731  11.159  21.303  0.00  0.00    +0.000 A 
ATOM     17  C   UNL     1      -1.040  11.089  22.772  0.00  0.00    +0.000 C 
ATOM     18  C   UNL     1      -2.229  11.878  23.289  0.00  0.00    +0.000 C 
ATOM     19  C   UNL     1      -2.606  13.126  22.515  0.00  0.00    +0.000 C 
ATOM     20  C   UNL     1      -2.319  13.128  21.014  0.00  0.00    +0.000 C 
ENDROOT
TORSDOF 0
ENDMDL
