MODEL 1
REMARK VINA RESULT:      -7.8      0.000      0.000
REMARK  Name = 
REMARK  9 active torsions:
REMARK  status: ('A' for Active; 'I' for Inactive)
REMARK    1  A    between atoms: C_1  and  C_2
REMARK    2  A    between atoms: C_2  and  N_3
REMARK    3  A    between atoms: N_3  and  C_4
REMARK    4  A    between atoms: N_3  and  C_6
REMARK    5  A    between atoms: C_4  and  C_5
REMARK    6  A    between atoms: C_9  and  C_10
REMARK    7  A    between atoms: C_10  and  C_12
REMARK    8  A    between atoms: C_13  and  C_14
REMARK    9  A    between atoms: C_17  and  N_18
REMARK                            x       y       z     vdW  Elec       q    Type
REMARK                         _______ _______ _______ _____ _____    ______ ____
ROOT
ATOM      1  C   UNL     1       7.204   6.737  17.223  0.00  0.00    +0.000 C 
ATOM      2  O   UNL     1       7.567   6.327  16.128  0.00  0.00    +0.000 OA
ENDROOT
BRANCH   1   6
ATOM      3  C   UNL     1       3.662   4.987  19.053  0.00  0.00    +0.000 A 
ATOM      4  C   UNL     1       4.970   4.637  19.419  0.00  0.00    +0.000 A 
ATOM      5  C   UNL     1       6.100   5.207  18.817  0.00  0.00    +0.000 A 
ATOM      6  C   UNL     1       5.963   6.203  17.849  0.00  0.00    +0.000 A 
ATOM      7  C   UNL     1       4.683   6.629  17.512  0.00  0.00    +0.000 A 
ATOM      8  C   UNL     1       3.562   6.034  18.109  0.00  0.00    +0.000 A 
BRANCH   3   9
ATOM      9  N   UNL     1       2.531   4.320  19.548  0.00  0.00    +0.000 N 
BRANCH   9  11
ATOM     10  C   UNL     1       1.916   3.069  21.614  0.00  0.00    +0.000 C 
ATOM     11  C   UNL     1       2.163   4.432  20.968  0.00  0.00    +0.000 C 
ENDBRANCH   9  11
BRANCH   9  12
ATOM     12  C   UNL     1       1.688   3.595  18.580  0.00  0.00    +0.000 C 
ATOM     13  C   UNL     1       2.314   2.461  17.790  0.00  0.00    +0.000 C 
ENDBRANCH   9  12
ENDBRANCH   3   9
ENDBRANCH   1   6
BRANCH   1  14
ATOM     14  C   UNL     1       8.001   7.731  17.982  0.00  0.00    +0.000 C 
ATOM     15  C   UNL     1       7.944   9.031  17.644  0.00  0.00    +0.000 C 
BRANCH  15  16
ATOM     16  C   UNL     1       8.739   9.985  18.329  0.00  0.00    +0.000 A 
ATOM     17  C   UNL     1       9.171   9.973  19.655  0.00  0.00    +0.000 A 
ATOM     18  C   UNL     1       9.931  11.148  19.886  0.00  0.00    +0.000 A 
ATOM     19  C   UNL     1       9.928  11.814  18.687  0.00  0.00    +0.000 A 
ATOM     20  O   UNL     1       9.228  11.137  17.745  0.00  0.00    +0.000 OA
BRANCH  19  21
ATOM     21  N   UNL     1      10.506  13.052  18.278  0.00  0.00    +0.000 N 
ATOM     22  O   UNL     1      10.744  13.866  19.181  0.00  0.00    +0.000 OA
ATOM     23  O   UNL     1      10.725  13.218  17.071  0.00  0.00    +0.000 OA
ENDBRANCH  19  21
ENDBRANCH  15  16
ENDBRANCH   1  14
TORSDOF 7
ENDMDL
MODEL 2
REMARK VINA RESULT:      -7.7      0.535      1.479
REMARK  Name = 
REMARK  9 active torsions:
REMARK  status: ('A' for Active; 'I' for Inactive)
REMARK    1  A    between atoms: C_1  and  C_2
REMARK    2  A    between atoms: C_2  and  N_3
REMARK    3  A    between atoms: N_3  and  C_4
REMARK    4  A    between atoms: N_3  and  C_6
REMARK    5  A    between atoms: C_4  and  C_5
REMARK    6  A    between atoms: C_9  and  C_10
REMARK    7  A    between atoms: C_10  and  C_12
REMARK    8  A    between atoms: C_13  and  C_14
REMARK    9  A    between atoms: C_17  and  N_18
REMARK                            x       y       z     vdW  Elec       q    Type
REMARK                         _______ _______ _______ _____ _____    ______ ____
ROOT
ATOM      1  C   UNL     1       7.179   6.805  17.195  0.00  0.00    +0.000 C 
ATOM      2  O   UNL     1       7.608   6.402  16.121  0.00  0.00    +0.000 OA
ENDROOT
BRANCH   1   6
ATOM      3  C   UNL     1       3.615   4.947  18.869  0.00  0.00    +0.000 A 
ATOM      4  C   UNL     1       4.912   4.676  19.329  0.00  0.00    +0.000 A 
ATOM      5  C   UNL     1       6.049   5.279  18.776  0.00  0.00    +0.000 A 
ATOM      6  C   UNL     1       5.928   6.232  17.763  0.00  0.00    +0.000 A 
ATOM      7  C   UNL     1       4.652   6.581  17.330  0.00  0.00    +0.000 A 
ATOM      8  C   UNL     1       3.526   5.952  17.880  0.00  0.00    +0.000 A 
BRANCH   3   9
ATOM      9  N   UNL     1       2.487   4.242  19.319  0.00  0.00    +0.000 N 
BRANCH   9  11
ATOM     10  C   UNL     1       2.440   2.329  17.722  0.00  0.00    +0.000 C 
ATOM     11  C   UNL     1       1.664   3.473  18.373  0.00  0.00    +0.000 C 
ENDBRANCH   9  11
BRANCH   9  12
ATOM     12  C   UNL     1       2.225   4.228  20.770  0.00  0.00    +0.000 C 
ATOM     13  C   UNL     1       1.412   3.082  21.343  0.00  0.00    +0.000 C 
ENDBRANCH   9  12
ENDBRANCH   3   9
ENDBRANCH   1   6
BRANCH   1  14
ATOM     14  C   UNL     1       7.904   7.827  17.986  0.00  0.00    +0.000 C 
ATOM     15  C   UNL     1       7.924   9.105  17.568  0.00  0.00    +0.000 C 
BRANCH  15  16
ATOM     16  C   UNL     1       8.655  10.084  18.288  0.00  0.00    +0.000 A 
ATOM     17  C   UNL     1       9.288   9.968  19.525  0.00  0.00    +0.000 A 
ATOM     18  C   UNL     1       9.879  11.217  19.842  0.00  0.00    +0.000 A 
ATOM     19  C   UNL     1       9.580  12.031  18.779  0.00  0.00    +0.000 A 
ATOM     20  O   UNL     1       8.856  11.374  17.840  0.00  0.00    +0.000 OA
BRANCH  19  21
ATOM     21  N   UNL     1       9.882  13.397  18.504  0.00  0.00    +0.000 N 
ATOM     22  O   UNL     1       8.915  14.171  18.465  0.00  0.00    +0.000 OA
ATOM     23  O   UNL     1      11.068  13.704  18.328  0.00  0.00    +0.000 OA
ENDBRANCH  19  21
ENDBRANCH  15  16
ENDBRANCH   1  14
TORSDOF 7
ENDMDL
MODEL 3
REMARK VINA RESULT:      -7.3      0.771      1.795
REMARK  Name = 
REMARK  9 active torsions:
REMARK  status: ('A' for Active; 'I' for Inactive)
REMARK    1  A    between atoms: C_1  and  C_2
REMARK    2  A    between atoms: C_2  and  N_3
REMARK    3  A    between atoms: N_3  and  C_4
REMARK    4  A    between atoms: N_3  and  C_6
REMARK    5  A    between atoms: C_4  and  C_5
REMARK    6  A    between atoms: C_9  and  C_10
REMARK    7  A    between atoms: C_10  and  C_12
REMARK    8  A    between atoms: C_13  and  C_14
REMARK    9  A    between atoms: C_17  and  N_18
REMARK                            x       y       z     vdW  Elec       q    Type
REMARK                         _______ _______ _______ _____ _____    ______ ____
ROOT
ATOM      1  C   UNL     1       7.269   6.812  17.272  0.00  0.00    +0.000 C 
ATOM      2  O   UNL     1       7.730   6.419  16.208  0.00  0.00    +0.000 OA
ENDROOT
BRANCH   1   6
ATOM      3  C   UNL     1       3.492   5.270  18.792  0.00  0.00    +0.000 A 
ATOM      4  C   UNL     1       3.591   6.059  17.637  0.00  0.00    +0.000 A 
ATOM      5  C   UNL     1       4.815   6.551  17.163  0.00  0.00    +0.000 A 
ATOM      6  C   UNL     1       6.010   6.224  17.806  0.00  0.00    +0.000 A 
ATOM      7  C   UNL     1       5.959   5.383  18.913  0.00  0.00    +0.000 A 
ATOM      8  C   UNL     1       4.724   4.916  19.386  0.00  0.00    +0.000 A 
BRANCH   3   9
ATOM      9  N   UNL     1       2.260   4.894  19.351  0.00  0.00    +0.000 N 
BRANCH   9  11
ATOM     10  C   UNL     1       1.676   2.471  19.357  0.00  0.00    +0.000 C 
ATOM     11  C   UNL     1       1.447   3.842  18.722  0.00  0.00    +0.000 C 
ENDBRANCH   9  11
BRANCH   9  12
ATOM     12  C   UNL     1       1.870   5.521  20.628  0.00  0.00    +0.000 C 
ATOM     13  C   UNL     1       1.639   7.021  20.651  0.00  0.00    +0.000 C 
ENDBRANCH   9  12
ENDBRANCH   3   9
ENDBRANCH   1   6
BRANCH   1  14
ATOM     14  C   UNL     1       7.963   7.839  18.086  0.00  0.00    +0.000 C 
ATOM     15  C   UNL     1       8.036   9.106  17.643  0.00  0.00    +0.000 C 
BRANCH  15  16
ATOM     16  C   UNL     1       8.740  10.087  18.387  0.00  0.00    +0.000 A 
ATOM     17  C   UNL     1       9.275   9.993  19.671  0.00  0.00    +0.000 A 
ATOM     18  C   UNL     1       9.876  11.235  19.995  0.00  0.00    +0.000 A 
ATOM     19  C   UNL     1       9.681  12.023  18.889  0.00  0.00    +0.000 A 
ATOM     20  O   UNL     1       9.010  11.357  17.918  0.00  0.00    +0.000 OA
BRANCH  19  21
ATOM     21  N   UNL     1      10.042  13.371  18.598  0.00  0.00    +0.000 N 
ATOM     22  O   UNL     1      10.232  14.107  19.577  0.00  0.00    +0.000 OA
ATOM     23  O   UNL     1      10.138  13.701  17.409  0.00  0.00    +0.000 OA
ENDBRANCH  19  21
ENDBRANCH  15  16
ENDBRANCH   1  14
TORSDOF 7
ENDMDL
MODEL 4
REMARK VINA RESULT:      -7.2      1.071      1.905
REMARK  Name = 
REMARK  9 active torsions:
REMARK  status: ('A' for Active; 'I' for Inactive)
REMARK    1  A    between atoms: C_1  and  C_2
REMARK    2  A    between atoms: C_2  and  N_3
REMARK    3  A    between atoms: N_3  and  C_4
REMARK    4  A    between atoms: N_3  and  C_6
REMARK    5  A    between atoms: C_4  and  C_5
REMARK    6  A    between atoms: C_9  and  C_10
REMARK    7  A    between atoms: C_10  and  C_12
REMARK    8  A    between atoms: C_13  and  C_14
REMARK    9  A    between atoms: C_17  and  N_18
REMARK                            x       y       z     vdW  Elec       q    Type
REMARK                         _______ _______ _______ _____ _____    ______ ____
ROOT
ATOM      1  C   UNL     1       7.304   6.494  17.126  0.00  0.00    +0.000 C 
ATOM      2  O   UNL     1       7.682   6.305  15.977  0.00  0.00    +0.000 OA
ENDROOT
BRANCH   1   6
ATOM      3  C   UNL     1       4.179   3.916  18.723  0.00  0.00    +0.000 A 
ATOM      4  C   UNL     1       4.620   3.857  17.393  0.00  0.00    +0.000 A 
ATOM      5  C   UNL     1       5.624   4.697  16.893  0.00  0.00    +0.000 A 
ATOM      6  C   UNL     1       6.273   5.605  17.731  0.00  0.00    +0.000 A 
ATOM      7  C   UNL     1       5.914   5.643  19.074  0.00  0.00    +0.000 A 
ATOM      8  C   UNL     1       4.893   4.809  19.554  0.00  0.00    +0.000 A 
BRANCH   3   9
ATOM      9  N   UNL     1       3.079   3.181  19.192  0.00  0.00    +0.000 N 
BRANCH   9  11
ATOM     10  C   UNL     1       1.345   4.198  17.719  0.00  0.00    +0.000 C 
ATOM     11  C   UNL     1       1.930   2.916  18.312  0.00  0.00    +0.000 C 
ENDBRANCH   9  11
BRANCH   9  12
ATOM     12  C   UNL     1       3.168   2.612  20.550  0.00  0.00    +0.000 C 
ATOM     13  C   UNL     1       2.139   3.044  21.579  0.00  0.00    +0.000 C 
ENDBRANCH   9  12
ENDBRANCH   3   9
ENDBRANCH   1   6
BRANCH   1  14
ATOM     14  C   UNL     1       7.884   7.568  17.967  0.00  0.00    +0.000 C 
ATOM     15  C   UNL     1       7.966   8.821  17.487  0.00  0.00    +0.000 C 
BRANCH  15  16
ATOM     16  C   UNL     1       8.564   9.848  18.262  0.00  0.00    +0.000 A 
ATOM     17  C   UNL     1       9.185   9.755  19.508  0.00  0.00    +0.000 A 
ATOM     18  C   UNL     1       9.618  11.050  19.887  0.00  0.00    +0.000 A 
ATOM     19  C   UNL     1       9.244  11.867  18.850  0.00  0.00    +0.000 A 
ATOM     20  O   UNL     1       8.619  11.171  17.870  0.00  0.00    +0.000 OA
BRANCH  19  21
ATOM     21  N   UNL     1       9.388  13.270  18.637  0.00  0.00    +0.000 N 
ATOM     22  O   UNL     1       8.357  13.882  18.324  0.00  0.00    +0.000 OA
ATOM     23  O   UNL     1      10.514  13.764  18.778  0.00  0.00    +0.000 OA
ENDBRANCH  19  21
ENDBRANCH  15  16
ENDBRANCH   1  14
TORSDOF 7
ENDMDL
MODEL 5
REMARK VINA RESULT:      -7.2      0.968      1.404
REMARK  Name = 
REMARK  9 active torsions:
REMARK  status: ('A' for Active; 'I' for Inactive)
REMARK    1  A    between atoms: C_1  and  C_2
REMARK    2  A    between atoms: C_2  and  N_3
REMARK    3  A    between atoms: N_3  and  C_4
REMARK    4  A    between atoms: N_3  and  C_6
REMARK    5  A    between atoms: C_4  and  C_5
REMARK    6  A    between atoms: C_9  and  C_10
REMARK    7  A    between atoms: C_10  and  C_12
REMARK    8  A    between atoms: C_13  and  C_14
REMARK    9  A    between atoms: C_17  and  N_18
REMARK                            x       y       z     vdW  Elec       q    Type
REMARK                         _______ _______ _______ _____ _____    ______ ____
ROOT
ATOM      1  C   UNL     1       7.370   6.702  17.154  0.00  0.00    +0.000 C 
ATOM      2  O   UNL     1       7.792   6.464  16.029  0.00  0.00    +0.000 OA
ENDROOT
BRANCH   1   6
ATOM      3  C   UNL     1       3.987   4.461  18.734  0.00  0.00    +0.000 A 
ATOM      4  C   UNL     1       4.017   4.996  17.438  0.00  0.00    +0.000 A 
ATOM      5  C   UNL     1       5.112   5.719  16.946  0.00  0.00    +0.000 A 
ATOM      6  C   UNL     1       6.258   5.891  17.724  0.00  0.00    +0.000 A 
ATOM      7  C   UNL     1       6.295   5.311  18.988  0.00  0.00    +0.000 A 
ATOM      8  C   UNL     1       5.183   4.608  19.473  0.00  0.00    +0.000 A 
BRANCH   3   9
ATOM      9  N   UNL     1       2.842   3.862  19.282  0.00  0.00    +0.000 N 
BRANCH   9  11
ATOM     10  C   UNL     1       1.693   5.543  20.718  0.00  0.00    +0.000 C 
ATOM     11  C   UNL     1       1.615   4.647  19.483  0.00  0.00    +0.000 C 
ENDBRANCH   9  11
BRANCH   9  12
ATOM     12  C   UNL     1       2.893   2.413  19.552  0.00  0.00    +0.000 C 
ATOM     13  C   UNL     1       3.333   1.488  18.433  0.00  0.00    +0.000 C 
ENDBRANCH   9  12
ENDBRANCH   3   9
ENDBRANCH   1   6
BRANCH   1  14
ATOM     14  C   UNL     1       7.972   7.758  18.001  0.00  0.00    +0.000 C 
ATOM     15  C   UNL     1       8.018   9.026  17.557  0.00  0.00    +0.000 C 
BRANCH  15  16
ATOM     16  C   UNL     1       8.637  10.037  18.335  0.00  0.00    +0.000 A 
ATOM     17  C   UNL     1       9.243   9.929  19.587  0.00  0.00    +0.000 A 
ATOM     18  C   UNL     1       9.707  11.213  19.969  0.00  0.00    +0.000 A 
ATOM     19  C   UNL     1       9.365  12.039  18.928  0.00  0.00    +0.000 A 
ATOM     20  O   UNL     1       8.730  11.358  17.943  0.00  0.00    +0.000 OA
BRANCH  19  21
ATOM     21  N   UNL     1       9.548  13.436  18.714  0.00  0.00    +0.000 N 
ATOM     22  O   UNL     1       9.390  14.164  19.705  0.00  0.00    +0.000 OA
ATOM     23  O   UNL     1       9.849  13.813  17.574  0.00  0.00    +0.000 OA
ENDBRANCH  19  21
ENDBRANCH  15  16
ENDBRANCH   1  14
TORSDOF 7
ENDMDL
MODEL 6
REMARK VINA RESULT:      -7.1      5.558      7.665
REMARK  Name = 
REMARK  9 active torsions:
REMARK  status: ('A' for Active; 'I' for Inactive)
REMARK    1  A    between atoms: C_1  and  C_2
REMARK    2  A    between atoms: C_2  and  N_3
REMARK    3  A    between atoms: N_3  and  C_4
REMARK    4  A    between atoms: N_3  and  C_6
REMARK    5  A    between atoms: C_4  and  C_5
REMARK    6  A    between atoms: C_9  and  C_10
REMARK    7  A    between atoms: C_10  and  C_12
REMARK    8  A    between atoms: C_13  and  C_14
REMARK    9  A    between atoms: C_17  and  N_18
REMARK                            x       y       z     vdW  Elec       q    Type
REMARK                         _______ _______ _______ _____ _____    ______ ____
ROOT
ATOM      1  C   UNL     1       5.147   4.728  17.979  0.00  0.00    +0.000 C 
ATOM      2  O   UNL     1       5.926   4.275  18.808  0.00  0.00    +0.000 OA
ENDROOT
BRANCH   1   6
ATOM      3  C   UNL     1       2.182   7.703  19.129  0.00  0.00    +0.000 A 
ATOM      4  C   UNL     1       2.932   7.781  17.945  0.00  0.00    +0.000 A 
ATOM      5  C   UNL     1       3.885   6.817  17.592  0.00  0.00    +0.000 A 
ATOM      6  C   UNL     1       4.091   5.693  18.394  0.00  0.00    +0.000 A 
ATOM      7  C   UNL     1       3.315   5.544  19.539  0.00  0.00    +0.000 A 
ATOM      8  C   UNL     1       2.379   6.528  19.888  0.00  0.00    +0.000 A 
BRANCH   3   9
ATOM      9  N   UNL     1       1.332   8.734  19.558  0.00  0.00    +0.000 N 
BRANCH   9  11
ATOM     10  C   UNL     1       0.980  10.034  21.655  0.00  0.00    +0.000 C 
ATOM     11  C   UNL     1       0.764   8.714  20.915  0.00  0.00    +0.000 C 
ENDBRANCH   9  11
BRANCH   9  12
ATOM     12  C   UNL     1       1.115   9.867  18.639  0.00  0.00    +0.000 C 
ATOM     13  C   UNL     1      -0.299  10.145  18.162  0.00  0.00    +0.000 C 
ENDBRANCH   9  12
ENDBRANCH   3   9
ENDBRANCH   1   6
BRANCH   1  14
ATOM     14  C   UNL     1       5.253   4.380  16.542  0.00  0.00    +0.000 C 
ATOM     15  C   UNL     1       6.381   4.662  15.868  0.00  0.00    +0.000 C 
BRANCH  15  16
ATOM     16  C   UNL     1       6.477   4.381  14.481  0.00  0.00    +0.000 A 
ATOM     17  C   UNL     1       7.369   4.901  13.543  0.00  0.00    +0.000 A 
ATOM     18  C   UNL     1       7.070   4.330  12.280  0.00  0.00    +0.000 A 
ATOM     19  C   UNL     1       6.012   3.487  12.513  0.00  0.00    +0.000 A 
ATOM     20  O   UNL     1       5.647   3.499  13.818  0.00  0.00    +0.000 OA
BRANCH  19  21
ATOM     21  N   UNL     1       5.257   2.639  11.652  0.00  0.00    +0.000 N 
ATOM     22  O   UNL     1       4.187   3.103  11.232  0.00  0.00    +0.000 OA
ATOM     23  O   UNL     1       5.718   1.520  11.391  0.00  0.00    +0.000 OA
ENDBRANCH  19  21
ENDBRANCH  15  16
ENDBRANCH   1  14
TORSDOF 7
ENDMDL
MODEL 7
REMARK VINA RESULT:      -7.1      1.600      2.109
REMARK  Name = 
REMARK  9 active torsions:
REMARK  status: ('A' for Active; 'I' for Inactive)
REMARK    1  A    between atoms: C_1  and  C_2
REMARK    2  A    between atoms: C_2  and  N_3
REMARK    3  A    between atoms: N_3  and  C_4
REMARK    4  A    between atoms: N_3  and  C_6
REMARK    5  A    between atoms: C_4  and  C_5
REMARK    6  A    between atoms: C_9  and  C_10
REMARK    7  A    between atoms: C_10  and  C_12
REMARK    8  A    between atoms: C_13  and  C_14
REMARK    9  A    between atoms: C_17  and  N_18
REMARK                            x       y       z     vdW  Elec       q    Type
REMARK                         _______ _______ _______ _____ _____    ______ ____
ROOT
ATOM      1  C   UNL     1       7.443   6.894  17.372  0.00  0.00    +0.000 C 
ATOM      2  O   UNL     1       7.867   6.652  16.249  0.00  0.00    +0.000 OA
ENDROOT
BRANCH   1   6
ATOM      3  C   UNL     1       3.836   4.965  18.866  0.00  0.00    +0.000 A 
ATOM      4  C   UNL     1       3.847   5.825  17.757  0.00  0.00    +0.000 A 
ATOM      5  C   UNL     1       5.016   6.441  17.291  0.00  0.00    +0.000 A 
ATOM      6  C   UNL     1       6.247   6.176  17.892  0.00  0.00    +0.000 A 
ATOM      7  C   UNL     1       6.289   5.272  18.949  0.00  0.00    +0.000 A 
ATOM      8  C   UNL     1       5.106   4.679  19.416  0.00  0.00    +0.000 A 
BRANCH   3   9
ATOM      9  N   UNL     1       2.652   4.460  19.423  0.00  0.00    +0.000 N 
BRANCH   9  11
ATOM     10  C   UNL     1       2.071   3.467  21.634  0.00  0.00    +0.000 C 
ATOM     11  C   UNL     1       2.309   4.742  20.826  0.00  0.00    +0.000 C 
ENDBRANCH   9  11
BRANCH   9  12
ATOM     12  C   UNL     1       1.735   3.727  18.530  0.00  0.00    +0.000 C 
ATOM     13  C   UNL     1       2.266   2.509  17.797  0.00  0.00    +0.000 C 
ENDBRANCH   9  12
ENDBRANCH   3   9
ENDBRANCH   1   6
BRANCH   1  14
ATOM     14  C   UNL     1       8.124   7.861  18.266  0.00  0.00    +0.000 C 
ATOM     15  C   UNL     1       8.275   9.139  17.876  0.00  0.00    +0.000 C 
BRANCH  15  16
ATOM     16  C   UNL     1       8.968  10.063  18.700  0.00  0.00    +0.000 A 
ATOM     17  C   UNL     1      10.163  10.736  18.445  0.00  0.00    +0.000 A 
ATOM     18  C   UNL     1      10.469  11.542  19.570  0.00  0.00    +0.000 A 
ATOM     19  C   UNL     1       9.441  11.324  20.453  0.00  0.00    +0.000 A 
ATOM     20  O   UNL     1       8.535  10.449  19.952  0.00  0.00    +0.000 OA
BRANCH  19  21
ATOM     21  N   UNL     1       9.176  11.833  21.758  0.00  0.00    +0.000 N 
ATOM     22  O   UNL     1       8.466  11.124  22.485  0.00  0.00    +0.000 OA
ATOM     23  O   UNL     1       9.668  12.927  22.063  0.00  0.00    +0.000 OA
ENDBRANCH  19  21
ENDBRANCH  15  16
ENDBRANCH   1  14
TORSDOF 7
ENDMDL
MODEL 8
REMARK VINA RESULT:      -7.0      1.048      1.180
REMARK  Name = 
REMARK  9 active torsions:
REMARK  status: ('A' for Active; 'I' for Inactive)
REMARK    1  A    between atoms: C_1  and  C_2
REMARK    2  A    between atoms: C_2  and  N_3
REMARK    3  A    between atoms: N_3  and  C_4
REMARK    4  A    between atoms: N_3  and  C_6
REMARK    5  A    between atoms: C_4  and  C_5
REMARK    6  A    between atoms: C_9  and  C_10
REMARK    7  A    between atoms: C_10  and  C_12
REMARK    8  A    between atoms: C_13  and  C_14
REMARK    9  A    between atoms: C_17  and  N_18
REMARK                            x       y       z     vdW  Elec       q    Type
REMARK                         _______ _______ _______ _____ _____    ______ ____
ROOT
ATOM      1  C   UNL     1       7.122   7.081  17.072  0.00  0.00    +0.000 C 
ATOM      2  O   UNL     1       7.820   6.549  16.218  0.00  0.00    +0.000 OA
ENDROOT
BRANCH   1   6
ATOM      3  C   UNL     1       3.902   4.755  18.855  0.00  0.00    +0.000 A 
ATOM      4  C   UNL     1       5.214   4.758  19.350  0.00  0.00    +0.000 A 
ATOM      5  C   UNL     1       6.240   5.509  18.761  0.00  0.00    +0.000 A 
ATOM      6  C   UNL     1       5.978   6.341  17.672  0.00  0.00    +0.000 A 
ATOM      7  C   UNL     1       4.673   6.420  17.197  0.00  0.00    +0.000 A 
ATOM      8  C   UNL     1       3.661   5.647  17.785  0.00  0.00    +0.000 A 
BRANCH   3   9
ATOM      9  N   UNL     1       2.906   3.898  19.348  0.00  0.00    +0.000 N 
BRANCH   9  11
ATOM     10  C   UNL     1       1.680   5.555  20.749  0.00  0.00    +0.000 C 
ATOM     11  C   UNL     1       1.586   4.428  19.722  0.00  0.00    +0.000 C 
ENDBRANCH   9  11
BRANCH   9  12
ATOM     12  C   UNL     1       3.204   2.454  19.385  0.00  0.00    +0.000 C 
ATOM     13  C   UNL     1       3.446   1.737  18.069  0.00  0.00    +0.000 C 
ENDBRANCH   9  12
ENDBRANCH   3   9
ENDBRANCH   1   6
BRANCH   1  14
ATOM     14  C   UNL     1       7.414   8.446  17.573  0.00  0.00    +0.000 C 
ATOM     15  C   UNL     1       8.610   8.713  18.124  0.00  0.00    +0.000 C 
BRANCH  15  16
ATOM     16  C   UNL     1       8.885  10.000  18.653  0.00  0.00    +0.000 A 
ATOM     17  C   UNL     1       9.273  10.349  19.947  0.00  0.00    +0.000 A 
ATOM     18  C   UNL     1       9.416  11.758  20.003  0.00  0.00    +0.000 A 
ATOM     19  C   UNL     1       9.113  12.197  18.739  0.00  0.00    +0.000 A 
ATOM     20  O   UNL     1       8.798  11.166  17.918  0.00  0.00    +0.000 OA
BRANCH  19  21
ATOM     21  N   UNL     1       9.067  13.501  18.164  0.00  0.00    +0.000 N 
ATOM     22  O   UNL     1       8.006  14.124  18.311  0.00  0.00    +0.000 OA
ATOM     23  O   UNL     1      10.074  13.907  17.570  0.00  0.00    +0.000 OA
ENDBRANCH  19  21
ENDBRANCH  15  16
ENDBRANCH   1  14
TORSDOF 7
ENDMDL
MODEL 9
REMARK VINA RESULT:      -7.0      1.657      2.470
REMARK  Name = 
REMARK  9 active torsions:
REMARK  status: ('A' for Active; 'I' for Inactive)
REMARK    1  A    between atoms: C_1  and  C_2
REMARK    2  A    between atoms: C_2  and  N_3
REMARK    3  A    between atoms: N_3  and  C_4
REMARK    4  A    between atoms: N_3  and  C_6
REMARK    5  A    between atoms: C_4  and  C_5
REMARK    6  A    between atoms: C_9  and  C_10
REMARK    7  A    between atoms: C_10  and  C_12
REMARK    8  A    between atoms: C_13  and  C_14
REMARK    9  A    between atoms: C_17  and  N_18
REMARK                            x       y       z     vdW  Elec       q    Type
REMARK                         _______ _______ _______ _____ _____    ______ ____
ROOT
ATOM      1  C   UNL     1       7.294   6.866  17.238  0.00  0.00    +0.000 C 
ATOM      2  O   UNL     1       7.706   6.457  16.160  0.00  0.00    +0.000 OA
ENDROOT
BRANCH   1   6
ATOM      3  C   UNL     1       3.499   5.488  18.870  0.00  0.00    +0.000 A 
ATOM      4  C   UNL     1       3.597   6.306  17.735  0.00  0.00    +0.000 A 
ATOM      5  C   UNL     1       4.826   6.745  17.225  0.00  0.00    +0.000 A 
ATOM      6  C   UNL     1       6.026   6.332  17.807  0.00  0.00    +0.000 A 
ATOM      7  C   UNL     1       5.972   5.461  18.890  0.00  0.00    +0.000 A 
ATOM      8  C   UNL     1       4.733   5.048  19.401  0.00  0.00    +0.000 A 
BRANCH   3   9
ATOM      9  N   UNL     1       2.272   5.164  19.469  0.00  0.00    +0.000 N 
BRANCH   9  11
ATOM     10  C   UNL     1       0.932   3.152  20.075  0.00  0.00    +0.000 C 
ATOM     11  C   UNL     1       1.466   4.046  18.956  0.00  0.00    +0.000 C 
ENDBRANCH   9  11
BRANCH   9  12
ATOM     12  C   UNL     1       1.881   5.918  20.674  0.00  0.00    +0.000 C 
ATOM     13  C   UNL     1       1.690   7.419  20.552  0.00  0.00    +0.000 C 
ENDBRANCH   9  12
ENDBRANCH   3   9
ENDBRANCH   1   6
BRANCH   1  14
ATOM     14  C   UNL     1       8.056   7.858  18.034  0.00  0.00    +0.000 C 
ATOM     15  C   UNL     1       8.074   9.147  17.654  0.00  0.00    +0.000 C 
BRANCH  15  16
ATOM     16  C   UNL     1       8.840  10.097  18.377  0.00  0.00    +0.000 A 
ATOM     17  C   UNL     1       9.973  10.801  17.969  0.00  0.00    +0.000 A 
ATOM     18  C   UNL     1      10.395  11.626  19.041  0.00  0.00    +0.000 A 
ATOM     19  C   UNL     1       9.495  11.388  20.049  0.00  0.00    +0.000 A 
ATOM     20  O   UNL     1       8.558  10.484  19.673  0.00  0.00    +0.000 OA
BRANCH  19  21
ATOM     21  N   UNL     1       9.383  11.901  21.374  0.00  0.00    +0.000 N 
ATOM     22  O   UNL     1      10.042  12.922  21.620  0.00  0.00    +0.000 OA
ATOM     23  O   UNL     1       8.647  11.301  22.167  0.00  0.00    +0.000 OA
ENDBRANCH  19  21
ENDBRANCH  15  16
ENDBRANCH   1  14
TORSDOF 7
ENDMDL
