MODEL 1
REMARK VINA RESULT:      -8.2      0.000      0.000
REMARK  Name = 
REMARK  5 active torsions:
REMARK  status: ('A' for Active; 'I' for Inactive)
REMARK    1  A    between atoms: C_1  and  C_2
REMARK    2  A    between atoms: N_10  and  C_11
REMARK    3  A    between atoms: C_11  and  C_12
REMARK    4  A    between atoms: C_19  and  C_20
REMARK    5  A    between atoms: N_24  and  C_25
REMARK                            x       y       z     vdW  Elec       q    Type
REMARK                         _______ _______ _______ _____ _____    ______ ____
ROOT
ATOM      1  C   UNL     1       2.121  10.605  17.919  0.00  0.00    +0.000 C 
ATOM      2  C   UNL     1       1.064  10.488  19.037  0.00  0.00    +0.000 C 
ATOM      3  C   UNL     1      -0.387  10.416  18.567  0.00  0.00    +0.000 A 
ATOM      4  C   UNL     1      -0.737   9.885  17.315  0.00  0.00    +0.000 A 
ATOM      5  C   UNL     1      -2.065   9.863  16.910  0.00  0.00    +0.000 A 
ATOM      6  F   UNL     1      -2.383   9.351  15.713  0.00  0.00    +0.000 F 
ATOM      7  C   UNL     1      -3.070  10.359  17.728  0.00  0.00    +0.000 A 
ATOM      8  C   UNL     1      -2.740  10.877  18.980  0.00  0.00    +0.000 A 
ATOM      9  C   UNL     1      -1.410  10.899  19.424  0.00  0.00    +0.000 A 
ATOM     10  N   UNL     1      -1.095  11.281  20.723  0.00  0.00    +0.000 N 
ATOM     11  C   UNL     1      -0.609  10.185  21.579  0.00  0.00    +0.000 C 
ATOM     12  C   UNL     1       0.921   9.957  21.453  0.00  0.00    +0.000 C 
ATOM     13  C   UNL     1       1.442   9.199  22.685  0.00  0.00    +0.000 C 
ATOM     14  N   UNL     1       1.328   9.475  20.099  0.00  0.00    +0.000 N 
ATOM     15  C   UNL     1       1.643   8.193  19.652  0.00  0.00    +0.000 C 
ATOM     16  O   UNL     1       1.922   7.983  18.484  0.00  0.00    +0.000 OA
ATOM     17  N   UNL     1       1.628   7.181  20.578  0.00  0.00    +0.000 N 
ATOM     18  H   UNL     1       0.976   7.284  21.329  0.00  0.00    +0.000 HD
ENDROOT
BRANCH  17  19
ATOM     19  C   UNL     1       2.033   5.846  20.309  0.00  0.00    +0.000 A 
ATOM     20  C   UNL     1       1.232   4.726  20.529  0.00  0.00    +0.000 A 
ATOM     21  C   UNL     1       1.750   3.443  20.357  0.00  0.00    +0.000 A 
ATOM     22  C   UNL     1       3.058   3.322  19.925  0.00  0.00    +0.000 A 
ATOM     23  N   UNL     1       3.850   4.374  19.628  0.00  0.00    +0.000 NA
ATOM     24  C   UNL     1       3.318   5.606  19.823  0.00  0.00    +0.000 A 
ENDBRANCH  17  19
BRANCH  10  25
ATOM     25  C   UNL     1      -1.450  12.611  21.247  0.00  0.00    +0.000 C 
BRANCH  25  26
ATOM     26  C   UNL     1      -2.730  12.630  22.060  0.00  0.00    +0.000 A 
ATOM     27  C   UNL     1      -3.932  13.068  21.492  0.00  0.00    +0.000 A 
ATOM     28  C   UNL     1      -5.056  13.300  22.282  0.00  0.00    +0.000 A 
ATOM     29  C   UNL     1      -5.022  13.004  23.639  0.00  0.00    +0.000 A 
ATOM     30  C   UNL     1      -3.881  12.428  24.193  0.00  0.00    +0.000 A 
ATOM     31  C   UNL     1      -2.739  12.241  23.409  0.00  0.00    +0.000 A 
ENDBRANCH  25  26
ENDBRANCH  10  25
TORSDOF 3
ENDMDL
MODEL 2
REMARK VINA RESULT:      -8.0      1.523      2.612
REMARK  Name = 
REMARK  5 active torsions:
REMARK  status: ('A' for Active; 'I' for Inactive)
REMARK    1  A    between atoms: C_1  and  C_2
REMARK    2  A    between atoms: N_10  and  C_11
REMARK    3  A    between atoms: C_11  and  C_12
REMARK    4  A    between atoms: C_19  and  C_20
REMARK    5  A    between atoms: N_24  and  C_25
REMARK                            x       y       z     vdW  Elec       q    Type
REMARK                         _______ _______ _______ _____ _____    ______ ____
ROOT
ATOM      1  C   UNL     1       2.172  10.499  17.887  0.00  0.00    +0.000 C 
ATOM      2  C   UNL     1       1.139  10.439  19.031  0.00  0.00    +0.000 C 
ATOM      3  C   UNL     1      -0.325  10.420  18.597  0.00  0.00    +0.000 A 
ATOM      4  C   UNL     1      -0.727   9.888  17.360  0.00  0.00    +0.000 A 
ATOM      5  C   UNL     1      -2.064   9.916  16.988  0.00  0.00    +0.000 A 
ATOM      6  F   UNL     1      -2.431   9.403  15.805  0.00  0.00    +0.000 F 
ATOM      7  C   UNL     1      -3.027  10.462  17.823  0.00  0.00    +0.000 A 
ATOM      8  C   UNL     1      -2.647  10.982  19.059  0.00  0.00    +0.000 A 
ATOM      9  C   UNL     1      -1.307  10.955  19.471  0.00  0.00    +0.000 A 
ATOM     10  N   UNL     1      -0.945  11.340  20.757  0.00  0.00    +0.000 N 
ATOM     11  C   UNL     1      -0.482  10.235  21.616  0.00  0.00    +0.000 C 
ATOM     12  C   UNL     1       1.034   9.944  21.456  0.00  0.00    +0.000 C 
ATOM     13  C   UNL     1       1.553   9.181  22.686  0.00  0.00    +0.000 C 
ATOM     14  N   UNL     1       1.387   9.430  20.099  0.00  0.00    +0.000 N 
ATOM     15  C   UNL     1       1.639   8.131  19.662  0.00  0.00    +0.000 C 
ATOM     16  O   UNL     1       1.881   7.894  18.491  0.00  0.00    +0.000 OA
ATOM     17  N   UNL     1       1.607   7.132  20.602  0.00  0.00    +0.000 N 
ATOM     18  H   UNL     1       0.977   7.270  21.367  0.00  0.00    +0.000 HD
ENDROOT
BRANCH  17  19
ATOM     19  C   UNL     1       1.950   5.777  20.340  0.00  0.00    +0.000 A 
ATOM     20  C   UNL     1       1.079   4.702  20.508  0.00  0.00    +0.000 A 
ATOM     21  C   UNL     1       1.533   3.394  20.350  0.00  0.00    +0.000 A 
ATOM     22  C   UNL     1       2.853   3.203  19.985  0.00  0.00    +0.000 A 
ATOM     23  N   UNL     1       3.717   4.212  19.740  0.00  0.00    +0.000 NA
ATOM     24  C   UNL     1       3.244   5.470  19.919  0.00  0.00    +0.000 A 
ENDBRANCH  17  19
BRANCH  10  25
ATOM     25  C   UNL     1      -1.233  12.690  21.272  0.00  0.00    +0.000 C 
BRANCH  25  26
ATOM     26  C   UNL     1      -0.426  13.787  20.605  0.00  0.00    +0.000 A 
ATOM     27  C   UNL     1      -1.064  14.851  19.957  0.00  0.00    +0.000 A 
ATOM     28  C   UNL     1      -0.346  15.737  19.157  0.00  0.00    +0.000 A 
ATOM     29  C   UNL     1       1.037  15.629  19.071  0.00  0.00    +0.000 A 
ATOM     30  C   UNL     1       1.703  14.668  19.826  0.00  0.00    +0.000 A 
ATOM     31  C   UNL     1       0.978  13.749  20.591  0.00  0.00    +0.000 A 
ENDBRANCH  25  26
ENDBRANCH  10  25
TORSDOF 3
ENDMDL
MODEL 3
REMARK VINA RESULT:      -7.5      3.823      6.324
REMARK  Name = 
REMARK  5 active torsions:
REMARK  status: ('A' for Active; 'I' for Inactive)
REMARK    1  A    between atoms: C_1  and  C_2
REMARK    2  A    between atoms: N_10  and  C_11
REMARK    3  A    between atoms: C_11  and  C_12
REMARK    4  A    between atoms: C_19  and  C_20
REMARK    5  A    between atoms: N_24  and  C_25
REMARK                            x       y       z     vdW  Elec       q    Type
REMARK                         _______ _______ _______ _____ _____    ______ ____
ROOT
ATOM      1  C   UNL     1      -1.622  11.834  18.601  0.00  0.00    +0.000 C 
ATOM      2  C   UNL     1      -1.413  12.253  20.071  0.00  0.00    +0.000 C 
ATOM      3  C   UNL     1      -0.871  11.166  20.996  0.00  0.00    +0.000 A 
ATOM      4  C   UNL     1      -0.062  10.122  20.520  0.00  0.00    +0.000 A 
ATOM      5  C   UNL     1       0.388   9.134  21.387  0.00  0.00    +0.000 A 
ATOM      6  F   UNL     1       1.161   8.145  20.918  0.00  0.00    +0.000 F 
ATOM      7  C   UNL     1       0.052   9.158  22.732  0.00  0.00    +0.000 A 
ATOM      8  C   UNL     1      -0.740  10.195  23.222  0.00  0.00    +0.000 A 
ATOM      9  C   UNL     1      -1.196  11.216  22.376  0.00  0.00    +0.000 A 
ATOM     10  N   UNL     1      -1.864  12.324  22.885  0.00  0.00    +0.000 N 
ATOM     11  C   UNL     1      -1.101  13.582  22.807  0.00  0.00    +0.000 C 
ATOM     12  C   UNL     1      -1.279  14.309  21.447  0.00  0.00    +0.000 C 
ATOM     13  C   UNL     1      -0.911  15.795  21.594  0.00  0.00    +0.000 C 
ATOM     14  N   UNL     1      -0.704  13.545  20.300  0.00  0.00    +0.000 N 
ATOM     15  C   UNL     1       0.500  13.707  19.618  0.00  0.00    +0.000 C 
ATOM     16  O   UNL     1       0.822  12.953  18.716  0.00  0.00    +0.000 OA
ATOM     17  N   UNL     1       1.306  14.749  20.002  0.00  0.00    +0.000 N 
ATOM     18  H   UNL     1       1.259  15.007  20.967  0.00  0.00    +0.000 HD
ENDROOT
BRANCH  17  19
ATOM     19  C   UNL     1       2.508  15.117  19.337  0.00  0.00    +0.000 A 
ATOM     20  C   UNL     1       2.556  15.898  18.183  0.00  0.00    +0.000 A 
ATOM     21  C   UNL     1       3.765  16.107  17.523  0.00  0.00    +0.000 A 
ATOM     22  C   UNL     1       4.909  15.555  18.069  0.00  0.00    +0.000 A 
ATOM     23  N   UNL     1       4.926  14.853  19.223  0.00  0.00    +0.000 NA
ATOM     24  C   UNL     1       3.729  14.656  19.828  0.00  0.00    +0.000 A 
ENDBRANCH  17  19
BRANCH  10  25
ATOM     25  C   UNL     1      -3.116  12.190  23.650  0.00  0.00    +0.000 C 
BRANCH  25  26
ATOM     26  C   UNL     1      -4.287  12.943  23.047  0.00  0.00    +0.000 A 
ATOM     27  C   UNL     1      -5.013  13.864  23.810  0.00  0.00    +0.000 A 
ATOM     28  C   UNL     1      -6.216  14.391  23.344  0.00  0.00    +0.000 A 
ATOM     29  C   UNL     1      -6.661  14.077  22.065  0.00  0.00    +0.000 A 
ATOM     30  C   UNL     1      -5.876  13.279  21.237  0.00  0.00    +0.000 A 
ATOM     31  C   UNL     1      -4.694  12.713  21.723  0.00  0.00    +0.000 A 
ENDBRANCH  25  26
ENDBRANCH  10  25
TORSDOF 3
ENDMDL
MODEL 4
REMARK VINA RESULT:      -7.4      3.868      6.509
REMARK  Name = 
REMARK  5 active torsions:
REMARK  status: ('A' for Active; 'I' for Inactive)
REMARK    1  A    between atoms: C_1  and  C_2
REMARK    2  A    between atoms: N_10  and  C_11
REMARK    3  A    between atoms: C_11  and  C_12
REMARK    4  A    between atoms: C_19  and  C_20
REMARK    5  A    between atoms: N_24  and  C_25
REMARK                            x       y       z     vdW  Elec       q    Type
REMARK                         _______ _______ _______ _____ _____    ______ ____
ROOT
ATOM      1  C   UNL     1      -1.392  12.186  18.595  0.00  0.00    +0.000 C 
ATOM      2  C   UNL     1      -1.236  12.490  20.099  0.00  0.00    +0.000 C 
ATOM      3  C   UNL     1      -0.722  11.334  20.955  0.00  0.00    +0.000 A 
ATOM      4  C   UNL     1       0.107  10.331  20.428  0.00  0.00    +0.000 A 
ATOM      5  C   UNL     1       0.530   9.279  21.230  0.00  0.00    +0.000 A 
ATOM      6  F   UNL     1       1.323   8.331  20.712  0.00  0.00    +0.000 F 
ATOM      7  C   UNL     1       0.148   9.197  22.560  0.00  0.00    +0.000 A 
ATOM      8  C   UNL     1      -0.664  10.192  23.102  0.00  0.00    +0.000 A 
ATOM      9  C   UNL     1      -1.095  11.275  22.323  0.00  0.00    +0.000 A 
ATOM     10  N   UNL     1      -1.784  12.339  22.894  0.00  0.00    +0.000 N 
ATOM     11  C   UNL     1      -1.023  13.601  22.940  0.00  0.00    +0.000 C 
ATOM     12  C   UNL     1      -1.157  14.432  21.636  0.00  0.00    +0.000 C 
ATOM     13  C   UNL     1      -0.800  15.901  21.911  0.00  0.00    +0.000 C 
ATOM     14  N   UNL     1      -0.540  13.760  20.453  0.00  0.00    +0.000 N 
ATOM     15  C   UNL     1       0.687  13.976  19.828  0.00  0.00    +0.000 C 
ATOM     16  O   UNL     1       1.042  13.295  18.882  0.00  0.00    +0.000 OA
ATOM     17  N   UNL     1       1.475  14.986  20.320  0.00  0.00    +0.000 N 
ATOM     18  H   UNL     1       1.394  15.167  21.300  0.00  0.00    +0.000 HD
ENDROOT
BRANCH  17  19
ATOM     19  C   UNL     1       2.697  15.405  19.728  0.00  0.00    +0.000 A 
ATOM     20  C   UNL     1       3.938  14.830  20.001  0.00  0.00    +0.000 A 
ATOM     21  C   UNL     1       5.103  15.382  19.473  0.00  0.00    +0.000 A 
ATOM     22  C   UNL     1       4.985  16.484  18.646  0.00  0.00    +0.000 A 
ATOM     23  N   UNL     1       3.803  17.033  18.293  0.00  0.00    +0.000 NA
ATOM     24  C   UNL     1       2.692  16.479  18.838  0.00  0.00    +0.000 A 
ENDBRANCH  17  19
BRANCH  10  25
ATOM     25  C   UNL     1      -3.061  12.145  23.601  0.00  0.00    +0.000 C 
BRANCH  25  26
ATOM     26  C   UNL     1      -4.227  12.890  22.980  0.00  0.00    +0.000 A 
ATOM     27  C   UNL     1      -4.523  12.749  21.620  0.00  0.00    +0.000 A 
ATOM     28  C   UNL     1      -5.441  13.590  20.994  0.00  0.00    +0.000 A 
ATOM     29  C   UNL     1      -6.149  14.523  21.743  0.00  0.00    +0.000 A 
ATOM     30  C   UNL     1      -5.974  14.576  23.123  0.00  0.00    +0.000 A 
ATOM     31  C   UNL     1      -5.018  13.765  23.742  0.00  0.00    +0.000 A 
ENDBRANCH  25  26
ENDBRANCH  10  25
TORSDOF 3
ENDMDL
MODEL 5
REMARK VINA RESULT:      -7.3      3.779      5.632
REMARK  Name = 
REMARK  5 active torsions:
REMARK  status: ('A' for Active; 'I' for Inactive)
REMARK    1  A    between atoms: C_1  and  C_2
REMARK    2  A    between atoms: N_10  and  C_11
REMARK    3  A    between atoms: C_11  and  C_12
REMARK    4  A    between atoms: C_19  and  C_20
REMARK    5  A    between atoms: N_24  and  C_25
REMARK                            x       y       z     vdW  Elec       q    Type
REMARK                         _______ _______ _______ _____ _____    ______ ____
ROOT
ATOM      1  C   UNL     1      -2.616  12.132  18.768  0.00  0.00    +0.000 C 
ATOM      2  C   UNL     1      -1.394  12.824  19.407  0.00  0.00    +0.000 C 
ATOM      3  C   UNL     1      -1.488  13.068  20.912  0.00  0.00    +0.000 A 
ATOM      4  C   UNL     1      -2.252  12.242  21.752  0.00  0.00    +0.000 A 
ATOM      5  C   UNL     1      -2.337  12.513  23.111  0.00  0.00    +0.000 A 
ATOM      6  F   UNL     1      -3.069  11.714  23.900  0.00  0.00    +0.000 F 
ATOM      7  C   UNL     1      -1.671  13.595  23.667  0.00  0.00    +0.000 A 
ATOM      8  C   UNL     1      -0.897  14.417  22.848  0.00  0.00    +0.000 A 
ATOM      9  C   UNL     1      -0.779  14.161  21.474  0.00  0.00    +0.000 A 
ATOM     10  N   UNL     1       0.102  14.889  20.683  0.00  0.00    +0.000 N 
ATOM     11  C   UNL     1       1.261  14.120  20.196  0.00  0.00    +0.000 C 
ATOM     12  C   UNL     1       0.966  13.360  18.875  0.00  0.00    +0.000 C 
ATOM     13  C   UNL     1       2.284  13.016  18.162  0.00  0.00    +0.000 C 
ATOM     14  N   UNL     1      -0.055  12.282  19.041  0.00  0.00    +0.000 N 
ATOM     15  C   UNL     1       0.100  10.903  19.171  0.00  0.00    +0.000 C 
ATOM     16  O   UNL     1      -0.862  10.173  19.335  0.00  0.00    +0.000 OA
ATOM     17  N   UNL     1       1.375  10.403  19.104  0.00  0.00    +0.000 N 
ATOM     18  H   UNL     1       2.100  11.004  19.442  0.00  0.00    +0.000 HD
ENDROOT
BRANCH  17  19
ATOM     19  C   UNL     1       1.691   9.017  19.106  0.00  0.00    +0.000 A 
ATOM     20  C   UNL     1       1.596   8.194  20.228  0.00  0.00    +0.000 A 
ATOM     21  C   UNL     1       2.045   6.875  20.176  0.00  0.00    +0.000 A 
ATOM     22  C   UNL     1       2.542   6.404  18.975  0.00  0.00    +0.000 A 
ATOM     23  N   UNL     1       2.587   7.138  17.842  0.00  0.00    +0.000 NA
ATOM     24  C   UNL     1       2.158   8.420  17.935  0.00  0.00    +0.000 A 
ENDBRANCH  17  19
BRANCH  10  25
ATOM     25  C   UNL     1      -0.001  16.353  20.555  0.00  0.00    +0.000 C 
BRANCH  25  26
ATOM     26  C   UNL     1       0.295  16.870  19.160  0.00  0.00    +0.000 A 
ATOM     27  C   UNL     1       1.613  16.979  18.703  0.00  0.00    +0.000 A 
ATOM     28  C   UNL     1       1.908  17.655  17.521  0.00  0.00    +0.000 A 
ATOM     29  C   UNL     1       0.879  18.150  16.729  0.00  0.00    +0.000 A 
ATOM     30  C   UNL     1      -0.445  17.922  17.096  0.00  0.00    +0.000 A 
ATOM     31  C   UNL     1      -0.739  17.285  18.305  0.00  0.00    +0.000 A 
ENDBRANCH  25  26
ENDBRANCH  10  25
TORSDOF 3
ENDMDL
MODEL 6
REMARK VINA RESULT:      -7.3      4.182      6.457
REMARK  Name = 
REMARK  5 active torsions:
REMARK  status: ('A' for Active; 'I' for Inactive)
REMARK    1  A    between atoms: C_1  and  C_2
REMARK    2  A    between atoms: N_10  and  C_11
REMARK    3  A    between atoms: C_11  and  C_12
REMARK    4  A    between atoms: C_19  and  C_20
REMARK    5  A    between atoms: N_24  and  C_25
REMARK                            x       y       z     vdW  Elec       q    Type
REMARK                         _______ _______ _______ _____ _____    ______ ____
ROOT
ATOM      1  C   UNL     1      -1.283  11.685  18.223  0.00  0.00    +0.000 C 
ATOM      2  C   UNL     1      -1.411  12.472  19.543  0.00  0.00    +0.000 C 
ATOM      3  C   UNL     1      -1.182  11.662  20.818  0.00  0.00    +0.000 A 
ATOM      4  C   UNL     1      -0.352  10.530  20.840  0.00  0.00    +0.000 A 
ATOM      5  C   UNL     1      -0.193   9.802  22.011  0.00  0.00    +0.000 A 
ATOM      6  F   UNL     1       0.605   8.725  22.016  0.00  0.00    +0.000 F 
ATOM      7  C   UNL     1      -0.843  10.174  23.178  0.00  0.00    +0.000 A 
ATOM      8  C   UNL     1      -1.660  11.304  23.176  0.00  0.00    +0.000 A 
ATOM      9  C   UNL     1      -1.829  12.070  22.013  0.00  0.00    +0.000 A 
ATOM     10  N   UNL     1      -2.526  13.272  22.042  0.00  0.00    +0.000 N 
ATOM     11  C   UNL     1      -1.686  14.467  21.844  0.00  0.00    +0.000 C 
ATOM     12  C   UNL     1      -1.480  14.815  20.346  0.00  0.00    +0.000 C 
ATOM     13  C   UNL     1      -1.061  16.287  20.202  0.00  0.00    +0.000 C 
ATOM     14  N   UNL     1      -0.695  13.779  19.611  0.00  0.00    +0.000 N 
ATOM     15  C   UNL     1       0.647  13.758  19.236  0.00  0.00    +0.000 C 
ATOM     16  O   UNL     1       1.128  12.795  18.664  0.00  0.00    +0.000 OA
ATOM     17  N   UNL     1       1.402  14.863  19.536  0.00  0.00    +0.000 N 
ATOM     18  H   UNL     1       1.139  15.363  20.361  0.00  0.00    +0.000 HD
ENDROOT
BRANCH  17  19
ATOM     19  C   UNL     1       2.751  15.044  19.124  0.00  0.00    +0.000 A 
ATOM     20  C   UNL     1       3.135  15.380  17.827  0.00  0.00    +0.000 A 
ATOM     21  C   UNL     1       4.483  15.416  17.477  0.00  0.00    +0.000 A 
ATOM     22  C   UNL     1       5.418  15.150  18.460  0.00  0.00    +0.000 A 
ATOM     23  N   UNL     1       5.100  14.892  19.747  0.00  0.00    +0.000 NA
ATOM     24  C   UNL     1       3.779  14.851  20.047  0.00  0.00    +0.000 A 
ENDBRANCH  17  19
BRANCH  10  25
ATOM     25  C   UNL     1      -3.932  13.343  22.475  0.00  0.00    +0.000 C 
BRANCH  25  26
ATOM     26  C   UNL     1      -4.923  12.883  21.422  0.00  0.00    +0.000 A 
ATOM     27  C   UNL     1      -6.179  12.389  21.790  0.00  0.00    +0.000 A 
ATOM     28  C   UNL     1      -7.003  11.761  20.859  0.00  0.00    +0.000 A 
ATOM     29  C   UNL     1      -6.623  11.704  19.523  0.00  0.00    +0.000 A 
ATOM     30  C   UNL     1      -5.443  12.321  19.114  0.00  0.00    +0.000 A 
ATOM     31  C   UNL     1      -4.595  12.908  20.057  0.00  0.00    +0.000 A 
ENDBRANCH  25  26
ENDBRANCH  10  25
TORSDOF 3
ENDMDL
MODEL 7
REMARK VINA RESULT:      -7.2      3.933      6.496
REMARK  Name = 
REMARK  5 active torsions:
REMARK  status: ('A' for Active; 'I' for Inactive)
REMARK    1  A    between atoms: C_1  and  C_2
REMARK    2  A    between atoms: N_10  and  C_11
REMARK    3  A    between atoms: C_11  and  C_12
REMARK    4  A    between atoms: C_19  and  C_20
REMARK    5  A    between atoms: N_24  and  C_25
REMARK                            x       y       z     vdW  Elec       q    Type
REMARK                         _______ _______ _______ _____ _____    ______ ____
ROOT
ATOM      1  C   UNL     1       0.390  10.599  18.023  0.00  0.00    +0.000 C 
ATOM      2  C   UNL     1      -0.182  11.617  19.031  0.00  0.00    +0.000 C 
ATOM      3  C   UNL     1      -0.258  11.140  20.480  0.00  0.00    +0.000 A 
ATOM      4  C   UNL     1       0.629  10.179  20.993  0.00  0.00    +0.000 A 
ATOM      5  C   UNL     1       0.510   9.748  22.307  0.00  0.00    +0.000 A 
ATOM      6  F   UNL     1       1.365   8.832  22.782  0.00  0.00    +0.000 F 
ATOM      7  C   UNL     1      -0.479  10.253  23.138  0.00  0.00    +0.000 A 
ATOM      8  C   UNL     1      -1.359  11.217  22.647  0.00  0.00    +0.000 A 
ATOM      9  C   UNL     1      -1.255  11.685  21.330  0.00  0.00    +0.000 A 
ATOM     10  N   UNL     1      -2.036  12.745  20.882  0.00  0.00    +0.000 N 
ATOM     11  C   UNL     1      -1.285  13.985  20.621  0.00  0.00    +0.000 C 
ATOM     12  C   UNL     1      -0.689  14.038  19.188  0.00  0.00    +0.000 C 
ATOM     13  C   UNL     1      -0.381  15.493  18.801  0.00  0.00    +0.000 C 
ATOM     14  N   UNL     1       0.363  13.003  18.959  0.00  0.00    +0.000 N 
ATOM     15  C   UNL     1       1.753  13.111  18.961  0.00  0.00    +0.000 C 
ATOM     16  O   UNL     1       2.462  12.135  18.786  0.00  0.00    +0.000 OA
ATOM     17  N   UNL     1       2.288  14.358  19.165  0.00  0.00    +0.000 N 
ATOM     18  H   UNL     1       1.755  14.974  19.745  0.00  0.00    +0.000 HD
ENDROOT
BRANCH  17  19
ATOM     19  C   UNL     1       3.676  14.654  19.084  0.00  0.00    +0.000 A 
ATOM     20  C   UNL     1       4.391  14.736  17.890  0.00  0.00    +0.000 A 
ATOM     21  C   UNL     1       5.774  14.907  17.906  0.00  0.00    +0.000 A 
ATOM     22  C   UNL     1       6.400  15.033  19.132  0.00  0.00    +0.000 A 
ATOM     23  N   UNL     1       5.745  15.034  20.313  0.00  0.00    +0.000 NA
ATOM     24  C   UNL     1       4.402  14.850  20.259  0.00  0.00    +0.000 A 
ENDBRANCH  17  19
BRANCH  10  25
ATOM     25  C   UNL     1      -3.507  12.687  20.905  0.00  0.00    +0.000 C 
BRANCH  25  26
ATOM     26  C   UNL     1      -4.129  12.322  19.571  0.00  0.00    +0.000 A 
ATOM     27  C   UNL     1      -3.403  11.602  18.616  0.00  0.00    +0.000 A 
ATOM     28  C   UNL     1      -3.877  11.457  17.314  0.00  0.00    +0.000 A 
ATOM     29  C   UNL     1      -5.132  11.948  16.974  0.00  0.00    +0.000 A 
ATOM     30  C   UNL     1      -5.931  12.537  17.951  0.00  0.00    +0.000 A 
ATOM     31  C   UNL     1      -5.434  12.725  19.244  0.00  0.00    +0.000 A 
ENDBRANCH  25  26
ENDBRANCH  10  25
TORSDOF 3
ENDMDL
MODEL 8
REMARK VINA RESULT:      -7.1      3.811      6.251
REMARK  Name = 
REMARK  5 active torsions:
REMARK  status: ('A' for Active; 'I' for Inactive)
REMARK    1  A    between atoms: C_1  and  C_2
REMARK    2  A    between atoms: N_10  and  C_11
REMARK    3  A    between atoms: C_11  and  C_12
REMARK    4  A    between atoms: C_19  and  C_20
REMARK    5  A    between atoms: N_24  and  C_25
REMARK                            x       y       z     vdW  Elec       q    Type
REMARK                         _______ _______ _______ _____ _____    ______ ____
ROOT
ATOM      1  C   UNL     1      -1.421  11.722  18.557  0.00  0.00    +0.000 C 
ATOM      2  C   UNL     1      -1.250  12.191  20.017  0.00  0.00    +0.000 C 
ATOM      3  C   UNL     1      -0.763  11.127  20.998  0.00  0.00    +0.000 A 
ATOM      4  C   UNL     1       0.038  10.048  20.588  0.00  0.00    +0.000 A 
ATOM      5  C   UNL     1       0.436   9.084  21.504  0.00  0.00    +0.000 A 
ATOM      6  F   UNL     1       1.201   8.062  21.097  0.00  0.00    +0.000 F 
ATOM      7  C   UNL     1       0.058   9.165  22.836  0.00  0.00    +0.000 A 
ATOM      8  C   UNL     1      -0.725  10.237  23.262  0.00  0.00    +0.000 A 
ATOM      9  C   UNL     1      -1.131  11.235  22.365  0.00  0.00    +0.000 A 
ATOM     10  N   UNL     1      -1.788  12.376  22.811  0.00  0.00    +0.000 N 
ATOM     11  C   UNL     1      -0.995  13.614  22.712  0.00  0.00    +0.000 C 
ATOM     12  C   UNL     1      -1.113  14.293  21.321  0.00  0.00    +0.000 C 
ATOM     13  C   UNL     1      -0.715  15.775  21.426  0.00  0.00    +0.000 C 
ATOM     14  N   UNL     1      -0.519  13.474  20.222  0.00  0.00    +0.000 N 
ATOM     15  C   UNL     1       0.710  13.585  19.575  0.00  0.00    +0.000 C 
ATOM     16  O   UNL     1       1.043  12.791  18.712  0.00  0.00    +0.000 OA
ATOM     17  N   UNL     1       1.527  14.622  19.947  0.00  0.00    +0.000 N 
ATOM     18  H   UNL     1       1.455  14.917  20.900  0.00  0.00    +0.000 HD
ENDROOT
BRANCH  17  19
ATOM     19  C   UNL     1       2.758  14.939  19.309  0.00  0.00    +0.000 A 
ATOM     20  C   UNL     1       2.860  15.445  18.014  0.00  0.00    +0.000 A 
ATOM     21  C   UNL     1       4.109  15.610  17.417  0.00  0.00    +0.000 A 
ATOM     22  C   UNL     1       5.232  15.296  18.161  0.00  0.00    +0.000 A 
ATOM     23  N   UNL     1       5.188  14.873  19.442  0.00  0.00    +0.000 NA
ATOM     24  C   UNL     1       3.956  14.709  19.984  0.00  0.00    +0.000 A 
ENDBRANCH  17  19
BRANCH  10  25
ATOM     25  C   UNL     1      -3.067  12.298  23.538  0.00  0.00    +0.000 C 
BRANCH  25  26
ATOM     26  C   UNL     1      -3.698  13.649  23.818  0.00  0.00    +0.000 A 
ATOM     27  C   UNL     1      -4.731  14.137  23.010  0.00  0.00    +0.000 A 
ATOM     28  C   UNL     1      -5.161  15.458  23.117  0.00  0.00    +0.000 A 
ATOM     29  C   UNL     1      -4.631  16.282  24.102  0.00  0.00    +0.000 A 
ATOM     30  C   UNL     1      -3.708  15.769  25.009  0.00  0.00    +0.000 A 
ATOM     31  C   UNL     1      -3.242  14.458  24.871  0.00  0.00    +0.000 A 
ENDBRANCH  25  26
ENDBRANCH  10  25
TORSDOF 3
ENDMDL
MODEL 9
REMARK VINA RESULT:      -7.1      4.400      6.928
REMARK  Name = 
REMARK  5 active torsions:
REMARK  status: ('A' for Active; 'I' for Inactive)
REMARK    1  A    between atoms: C_1  and  C_2
REMARK    2  A    between atoms: N_10  and  C_11
REMARK    3  A    between atoms: C_11  and  C_12
REMARK    4  A    between atoms: C_19  and  C_20
REMARK    5  A    between atoms: N_24  and  C_25
REMARK                            x       y       z     vdW  Elec       q    Type
REMARK                         _______ _______ _______ _____ _____    ______ ____
ROOT
ATOM      1  C   UNL     1      -1.315  12.121  18.239  0.00  0.00    +0.000 C 
ATOM      2  C   UNL     1      -1.556  12.824  19.591  0.00  0.00    +0.000 C 
ATOM      3  C   UNL     1      -1.299  11.971  20.832  0.00  0.00    +0.000 A 
ATOM      4  C   UNL     1      -0.373  10.916  20.830  0.00  0.00    +0.000 A 
ATOM      5  C   UNL     1      -0.189  10.144  21.969  0.00  0.00    +0.000 A 
ATOM      6  F   UNL     1       0.700   9.141  21.951  0.00  0.00    +0.000 F 
ATOM      7  C   UNL     1      -0.909  10.397  23.127  0.00  0.00    +0.000 A 
ATOM      8  C   UNL     1      -1.822  11.450  23.150  0.00  0.00    +0.000 A 
ATOM      9  C   UNL     1      -2.019  12.258  22.021  0.00  0.00    +0.000 A 
ATOM     10  N   UNL     1      -2.820  13.392  22.083  0.00  0.00    +0.000 N 
ATOM     11  C   UNL     1      -2.083  14.664  21.976  0.00  0.00    +0.000 C 
ATOM     12  C   UNL     1      -1.859  15.107  20.505  0.00  0.00    +0.000 C 
ATOM     13  C   UNL     1      -1.568  16.615  20.450  0.00  0.00    +0.000 C 
ATOM     14  N   UNL     1      -0.962  14.182  19.750  0.00  0.00    +0.000 N 
ATOM     15  C   UNL     1       0.389  14.297  19.426  0.00  0.00    +0.000 C 
ATOM     16  O   UNL     1       0.971  13.411  18.825  0.00  0.00    +0.000 OA
ATOM     17  N   UNL     1       1.033  15.447  19.808  0.00  0.00    +0.000 N 
ATOM     18  H   UNL     1       0.699  15.878  20.646  0.00  0.00    +0.000 HD
ENDROOT
BRANCH  17  19
ATOM     19  C   UNL     1       2.373  15.766  19.457  0.00  0.00    +0.000 A 
ATOM     20  C   UNL     1       3.493  15.321  20.158  0.00  0.00    +0.000 A 
ATOM     21  C   UNL     1       4.765  15.782  19.823  0.00  0.00    +0.000 A 
ATOM     22  C   UNL     1       4.881  16.654  18.756  0.00  0.00    +0.000 A 
ATOM     23  N   UNL     1       3.837  17.057  18.000  0.00  0.00    +0.000 NA
ATOM     24  C   UNL     1       2.613  16.601  18.366  0.00  0.00    +0.000 A 
ENDBRANCH  17  19
BRANCH  10  25
ATOM     25  C   UNL     1      -4.241  13.318  22.465  0.00  0.00    +0.000 C 
BRANCH  25  26
ATOM     26  C   UNL     1      -5.151  12.829  21.355  0.00  0.00    +0.000 A 
ATOM     27  C   UNL     1      -6.343  12.157  21.650  0.00  0.00    +0.000 A 
ATOM     28  C   UNL     1      -7.069  11.512  20.652  0.00  0.00    +0.000 A 
ATOM     29  C   UNL     1      -6.664  11.611  19.326  0.00  0.00    +0.000 A 
ATOM     30  C   UNL     1      -5.563  12.398  18.997  0.00  0.00    +0.000 A 
ATOM     31  C   UNL     1      -4.808  13.006  20.004  0.00  0.00    +0.000 A 
ENDBRANCH  25  26
ENDBRANCH  10  25
TORSDOF 3
ENDMDL
