MODEL 1
REMARK VINA RESULT:      -8.2      0.000      0.000
REMARK  Name = 
REMARK  1 active torsions:
REMARK  status: ('A' for Active; 'I' for Inactive)
REMARK    1  A    between atoms: C_1  and  C_2
REMARK                            x       y       z     vdW  Elec       q    Type
REMARK                         _______ _______ _______ _____ _____    ______ ____
ROOT
ATOM      1  C   UNL     1       7.406   8.574  17.528  0.00  0.00    +0.000 C 
ATOM      2  C   UNL     1       7.619   7.167  18.026  0.00  0.00    +0.000 C 
ATOM      3  O   UNL     1       8.545   6.925  18.805  0.00  0.00    +0.000 OA
ATOM      4  N   UNL     1       6.728   6.194  17.594  0.00  0.00    +0.000 N 
ATOM      5  C   UNL     1       6.824   4.853  18.159  0.00  0.00    +0.000 C 
ATOM      6  C   UNL     1       5.578   4.562  18.992  0.00  0.00    +0.000 C 
ATOM      7  C   UNL     1       4.294   4.738  18.151  0.00  0.00    +0.000 C 
ATOM      8  C   UNL     1       4.276   6.131  17.484  0.00  0.00    +0.000 C 
ATOM      9  C   UNL     1       5.571   6.424  16.729  0.00  0.00    +0.000 C 
ATOM     10  C   UNL     1       4.161   3.577  17.110  0.00  0.00    +0.000 C 
ATOM     11  N   UNL     1       2.802   3.026  17.183  0.00  0.00    +0.000 N 
ATOM     12  C   UNL     1       2.297   3.485  18.419  0.00  0.00    +0.000 A 
ATOM     13  C   UNL     1       1.109   3.089  19.019  0.00  0.00    +0.000 A 
ATOM     14  F   UNL     1       0.382   2.092  18.496  0.00  0.00    +0.000 F 
ATOM     15  C   UNL     1       0.671   3.730  20.174  0.00  0.00    +0.000 A 
ATOM     16  C   UNL     1       1.422   4.783  20.718  0.00  0.00    +0.000 A 
ATOM     17  C   UNL     1       2.622   5.179  20.120  0.00  0.00    +0.000 A 
ATOM     18  C   UNL     1       3.051   4.516  18.974  0.00  0.00    +0.000 A 
ATOM     19  H   UNL     1       2.713   2.015  17.100  0.00  0.00    +0.000 HD
ENDROOT
TORSDOF 0
ENDMDL
MODEL 2
REMARK VINA RESULT:      -8.2      2.948      3.856
REMARK  Name = 
REMARK  1 active torsions:
REMARK  status: ('A' for Active; 'I' for Inactive)
REMARK    1  A    between atoms: C_1  and  C_2
REMARK                            x       y       z     vdW  Elec       q    Type
REMARK                         _______ _______ _______ _____ _____    ______ ____
ROOT
ATOM      1  C   UNL     1       6.171   3.969  13.692  0.00  0.00    +0.000 C 
ATOM      2  C   UNL     1       6.828   4.742  14.807  0.00  0.00    +0.000 C 
ATOM      3  O   UNL     1       7.846   5.401  14.580  0.00  0.00    +0.000 OA
ATOM      4  N   UNL     1       6.228   4.694  16.059  0.00  0.00    +0.000 N 
ATOM      5  C   UNL     1       6.760   5.535  17.125  0.00  0.00    +0.000 C 
ATOM      6  C   UNL     1       5.730   6.598  17.497  0.00  0.00    +0.000 C 
ATOM      7  C   UNL     1       4.384   5.951  17.895  0.00  0.00    +0.000 C 
ATOM      8  C   UNL     1       3.902   4.988  16.788  0.00  0.00    +0.000 C 
ATOM      9  C   UNL     1       4.987   3.992  16.380  0.00  0.00    +0.000 C 
ATOM     10  C   UNL     1       4.509   5.244  19.286  0.00  0.00    +0.000 C 
ATOM     11  N   UNL     1       3.383   5.656  20.133  0.00  0.00    +0.000 N 
ATOM     12  C   UNL     1       2.872   6.814  19.507  0.00  0.00    +0.000 A 
ATOM     13  C   UNL     1       1.907   7.668  20.024  0.00  0.00    +0.000 A 
ATOM     14  F   UNL     1       1.463   7.514  21.279  0.00  0.00    +0.000 F 
ATOM     15  C   UNL     1       1.399   8.696  19.234  0.00  0.00    +0.000 A 
ATOM     16  C   UNL     1       1.851   8.854  17.916  0.00  0.00    +0.000 A 
ATOM     17  C   UNL     1       2.829   7.999  17.396  0.00  0.00    +0.000 A 
ATOM     18  C   UNL     1       3.334   6.988  18.206  0.00  0.00    +0.000 A 
ATOM     19  H   UNL     1       3.588   5.826  21.115  0.00  0.00    +0.000 HD
ENDROOT
TORSDOF 0
ENDMDL
MODEL 3
REMARK VINA RESULT:      -7.3      2.625      3.420
REMARK  Name = 
REMARK  1 active torsions:
REMARK  status: ('A' for Active; 'I' for Inactive)
REMARK    1  A    between atoms: C_1  and  C_2
REMARK                            x       y       z     vdW  Elec       q    Type
REMARK                         _______ _______ _______ _____ _____    ______ ____
ROOT
ATOM      1  C   UNL     1       6.647   4.414  12.917  0.00  0.00    +0.000 C 
ATOM      2  C   UNL     1       7.317   4.922  14.168  0.00  0.00    +0.000 C 
ATOM      3  O   UNL     1       8.280   5.687  14.080  0.00  0.00    +0.000 OA
ATOM      4  N   UNL     1       6.791   4.514  15.386  0.00  0.00    +0.000 N 
ATOM      5  C   UNL     1       7.330   5.090  16.613  0.00  0.00    +0.000 C 
ATOM      6  C   UNL     1       6.260   5.946  17.285  0.00  0.00    +0.000 C 
ATOM      7  C   UNL     1       4.979   5.126  17.553  0.00  0.00    +0.000 C 
ATOM      8  C   UNL     1       4.495   4.446  16.254  0.00  0.00    +0.000 C 
ATOM      9  C   UNL     1       5.612   3.666  15.563  0.00  0.00    +0.000 C 
ATOM     10  C   UNL     1       5.222   4.098  18.709  0.00  0.00    +0.000 C 
ATOM     11  N   UNL     1       4.122   4.199  19.676  0.00  0.00    +0.000 N 
ATOM     12  C   UNL     1       3.510   5.440  19.390  0.00  0.00    +0.000 A 
ATOM     13  C   UNL     1       2.526   6.063  20.146  0.00  0.00    +0.000 A 
ATOM     14  F   UNL     1       2.162   5.562  21.334  0.00  0.00    +0.000 F 
ATOM     15  C   UNL     1       1.916   7.219  19.668  0.00  0.00    +0.000 A 
ATOM     16  C   UNL     1       2.285   7.740  18.419  0.00  0.00    +0.000 A 
ATOM     17  C   UNL     1       3.281   7.118  17.659  0.00  0.00    +0.000 A 
ATOM     18  C   UNL     1       3.889   5.972  18.161  0.00  0.00    +0.000 A 
ATOM     19  H   UNL     1       4.370   4.128  20.660  0.00  0.00    +0.000 HD
ENDROOT
TORSDOF 0
ENDMDL
MODEL 4
REMARK VINA RESULT:      -6.9      3.726      6.035
REMARK  Name = 
REMARK  1 active torsions:
REMARK  status: ('A' for Active; 'I' for Inactive)
REMARK    1  A    between atoms: C_1  and  C_2
REMARK                            x       y       z     vdW  Elec       q    Type
REMARK                         _______ _______ _______ _____ _____    ______ ____
ROOT
ATOM      1  C   UNL     1       1.551   4.815  19.779  0.00  0.00    +0.000 C 
ATOM      2  C   UNL     1       2.882   4.115  19.874  0.00  0.00    +0.000 C 
ATOM      3  O   UNL     1       2.965   3.029  20.454  0.00  0.00    +0.000 OA
ATOM      4  N   UNL     1       3.972   4.729  19.271  0.00  0.00    +0.000 N 
ATOM      5  C   UNL     1       5.244   4.017  19.229  0.00  0.00    +0.000 C 
ATOM      6  C   UNL     1       5.585   3.670  17.782  0.00  0.00    +0.000 C 
ATOM      7  C   UNL     1       5.609   4.937  16.898  0.00  0.00    +0.000 C 
ATOM      8  C   UNL     1       4.286   5.720  17.047  0.00  0.00    +0.000 C 
ATOM      9  C   UNL     1       3.932   5.977  18.510  0.00  0.00    +0.000 C 
ATOM     10  C   UNL     1       6.861   5.814  17.234  0.00  0.00    +0.000 C 
ATOM     11  N   UNL     1       7.536   6.181  15.983  0.00  0.00    +0.000 N 
ATOM     12  C   UNL     1       7.026   5.276  15.025  0.00  0.00    +0.000 A 
ATOM     13  C   UNL     1       7.485   5.113  13.725  0.00  0.00    +0.000 A 
ATOM     14  F   UNL     1       8.590   5.746  13.309  0.00  0.00    +0.000 F 
ATOM     15  C   UNL     1       6.796   4.280  12.849  0.00  0.00    +0.000 A 
ATOM     16  C   UNL     1       5.631   3.624  13.276  0.00  0.00    +0.000 A 
ATOM     17  C   UNL     1       5.171   3.782  14.587  0.00  0.00    +0.000 A 
ATOM     18  C   UNL     1       5.883   4.607  15.453  0.00  0.00    +0.000 A 
ATOM     19  H   UNL     1       8.554   6.173  15.993  0.00  0.00    +0.000 HD
ENDROOT
TORSDOF 0
ENDMDL
MODEL 5
REMARK VINA RESULT:      -6.9      3.367      6.071
REMARK  Name = 
REMARK  1 active torsions:
REMARK  status: ('A' for Active; 'I' for Inactive)
REMARK    1  A    between atoms: C_1  and  C_2
REMARK                            x       y       z     vdW  Elec       q    Type
REMARK                         _______ _______ _______ _____ _____    ______ ____
ROOT
ATOM      1  C   UNL     1       1.307   1.700  18.898  0.00  0.00    +0.000 C 
ATOM      2  C   UNL     1       1.214   3.172  19.211  0.00  0.00    +0.000 C 
ATOM      3  O   UNL     1       0.545   3.554  20.174  0.00  0.00    +0.000 OA
ATOM      4  N   UNL     1       1.922   4.045  18.395  0.00  0.00    +0.000 N 
ATOM      5  C   UNL     1       1.961   5.459  18.747  0.00  0.00    +0.000 C 
ATOM      6  C   UNL     1       3.386   5.847  19.134  0.00  0.00    +0.000 C 
ATOM      7  C   UNL     1       4.380   5.513  17.999  0.00  0.00    +0.000 C 
ATOM      8  C   UNL     1       4.238   4.033  17.580  0.00  0.00    +0.000 C 
ATOM      9  C   UNL     1       2.788   3.656  17.283  0.00  0.00    +0.000 C 
ATOM     10  C   UNL     1       4.183   6.494  16.795  0.00  0.00    +0.000 C 
ATOM     11  N   UNL     1       5.494   7.018  16.389  0.00  0.00    +0.000 N 
ATOM     12  C   UNL     1       6.341   6.745  17.486  0.00  0.00    +0.000 A 
ATOM     13  C   UNL     1       7.642   7.202  17.651  0.00  0.00    +0.000 A 
ATOM     14  F   UNL     1       8.166   8.089  16.793  0.00  0.00    +0.000 F 
ATOM     15  C   UNL     1       8.406   6.739  18.718  0.00  0.00    +0.000 A 
ATOM     16  C   UNL     1       7.867   5.802  19.611  0.00  0.00    +0.000 A 
ATOM     17  C   UNL     1       6.554   5.346  19.451  0.00  0.00    +0.000 A 
ATOM     18  C   UNL     1       5.801   5.832  18.387  0.00  0.00    +0.000 A 
ATOM     19  H   UNL     1       5.532   8.001  16.128  0.00  0.00    +0.000 HD
ENDROOT
TORSDOF 0
ENDMDL
MODEL 6
REMARK VINA RESULT:      -6.7      2.138      2.483
REMARK  Name = 
REMARK  1 active torsions:
REMARK  status: ('A' for Active; 'I' for Inactive)
REMARK    1  A    between atoms: C_1  and  C_2
REMARK                            x       y       z     vdW  Elec       q    Type
REMARK                         _______ _______ _______ _____ _____    ______ ____
ROOT
ATOM      1  C   UNL     1       6.471   5.057  14.171  0.00  0.00    +0.000 C 
ATOM      2  C   UNL     1       6.970   5.258  15.579  0.00  0.00    +0.000 C 
ATOM      3  O   UNL     1       7.761   6.172  15.826  0.00  0.00    +0.000 OA
ATOM      4  N   UNL     1       6.486   4.400  16.558  0.00  0.00    +0.000 N 
ATOM      5  C   UNL     1       6.844   4.649  17.949  0.00  0.00    +0.000 C 
ATOM      6  C   UNL     1       5.595   5.044  18.733  0.00  0.00    +0.000 C 
ATOM      7  C   UNL     1       4.497   3.965  18.609  0.00  0.00    +0.000 C 
ATOM      8  C   UNL     1       4.216   3.652  17.123  0.00  0.00    +0.000 C 
ATOM      9  C   UNL     1       5.497   3.343  16.349  0.00  0.00    +0.000 C 
ATOM     10  C   UNL     1       4.893   2.687  19.422  0.00  0.00    +0.000 C 
ATOM     11  N   UNL     1       3.755   2.280  20.255  0.00  0.00    +0.000 N 
ATOM     12  C   UNL     1       2.916   3.416  20.292  0.00  0.00    +0.000 A 
ATOM     13  C   UNL     1       1.795   3.583  21.093  0.00  0.00    +0.000 A 
ATOM     14  F   UNL     1       1.489   2.678  22.032  0.00  0.00    +0.000 F 
ATOM     15  C   UNL     1       0.984   4.702  20.923  0.00  0.00    +0.000 A 
ATOM     16  C   UNL     1       1.293   5.646  19.933  0.00  0.00    +0.000 A 
ATOM     17  C   UNL     1       2.426   5.484  19.129  0.00  0.00    +0.000 A 
ATOM     18  C   UNL     1       3.232   4.367  19.325  0.00  0.00    +0.000 A 
ATOM     19  H   UNL     1       3.969   1.949  21.192  0.00  0.00    +0.000 HD
ENDROOT
TORSDOF 0
ENDMDL
MODEL 7
REMARK VINA RESULT:      -6.7      3.365      5.913
REMARK  Name = 
REMARK  1 active torsions:
REMARK  status: ('A' for Active; 'I' for Inactive)
REMARK    1  A    between atoms: C_1  and  C_2
REMARK                            x       y       z     vdW  Elec       q    Type
REMARK                         _______ _______ _______ _____ _____    ______ ____
ROOT
ATOM      1  C   UNL     1       1.759   2.662  21.845  0.00  0.00    +0.000 C 
ATOM      2  C   UNL     1       1.320   3.246  20.526  0.00  0.00    +0.000 C 
ATOM      3  O   UNL     1       0.286   3.916  20.465  0.00  0.00    +0.000 OA
ATOM      4  N   UNL     1       2.131   3.016  19.423  0.00  0.00    +0.000 N 
ATOM      5  C   UNL     1       1.807   3.675  18.163  0.00  0.00    +0.000 C 
ATOM      6  C   UNL     1       2.901   4.684  17.822  0.00  0.00    +0.000 C 
ATOM      7  C   UNL     1       4.287   4.004  17.772  0.00  0.00    +0.000 C 
ATOM      8  C   UNL     1       4.553   3.230  19.081  0.00  0.00    +0.000 C 
ATOM      9  C   UNL     1       3.401   2.291  19.438  0.00  0.00    +0.000 C 
ATOM     10  C   UNL     1       4.402   3.090  16.506  0.00  0.00    +0.000 C 
ATOM     11  N   UNL     1       5.666   3.385  15.819  0.00  0.00    +0.000 N 
ATOM     12  C   UNL     1       6.072   4.633  16.340  0.00  0.00    +0.000 A 
ATOM     13  C   UNL     1       7.124   5.412  15.878  0.00  0.00    +0.000 A 
ATOM     14  F   UNL     1       7.781   5.074  14.760  0.00  0.00    +0.000 F 
ATOM     15  C   UNL     1       7.496   6.556  16.578  0.00  0.00    +0.000 A 
ATOM     16  C   UNL     1       6.819   6.908  17.755  0.00  0.00    +0.000 A 
ATOM     17  C   UNL     1       5.755   6.128  18.219  0.00  0.00    +0.000 A 
ATOM     18  C   UNL     1       5.388   4.997  17.497  0.00  0.00    +0.000 A 
ATOM     19  H   UNL     1       5.640   3.400  14.802  0.00  0.00    +0.000 HD
ENDROOT
TORSDOF 0
ENDMDL
MODEL 8
REMARK VINA RESULT:      -6.7      4.102      6.503
REMARK  Name = 
REMARK  1 active torsions:
REMARK  status: ('A' for Active; 'I' for Inactive)
REMARK    1  A    between atoms: C_1  and  C_2
REMARK                            x       y       z     vdW  Elec       q    Type
REMARK                         _______ _______ _______ _____ _____    ______ ____
ROOT
ATOM      1  C   UNL     1       1.293   4.082  18.549  0.00  0.00    +0.000 C 
ATOM      2  C   UNL     1       2.607   3.353  18.668  0.00  0.00    +0.000 C 
ATOM      3  O   UNL     1       2.631   2.197  19.097  0.00  0.00    +0.000 OA
ATOM      4  N   UNL     1       3.750   4.025  18.256  0.00  0.00    +0.000 N 
ATOM      5  C   UNL     1       5.018   3.305  18.232  0.00  0.00    +0.000 C 
ATOM      6  C   UNL     1       5.490   3.154  16.788  0.00  0.00    +0.000 C 
ATOM      7  C   UNL     1       5.600   4.529  16.093  0.00  0.00    +0.000 C 
ATOM      8  C   UNL     1       4.272   5.306  16.227  0.00  0.00    +0.000 C 
ATOM      9  C   UNL     1       3.785   5.367  17.674  0.00  0.00    +0.000 C 
ATOM     10  C   UNL     1       6.820   5.331  16.659  0.00  0.00    +0.000 C 
ATOM     11  N   UNL     1       7.609   5.853  15.537  0.00  0.00    +0.000 N 
ATOM     12  C   UNL     1       7.185   5.097  14.421  0.00  0.00    +0.000 A 
ATOM     13  C   UNL     1       7.762   5.105  13.158  0.00  0.00    +0.000 A 
ATOM     14  F   UNL     1       8.903   5.771  12.935  0.00  0.00    +0.000 F 
ATOM     15  C   UNL     1       7.152   4.411  12.117  0.00  0.00    +0.000 A 
ATOM     16  C   UNL     1       5.951   3.723  12.342  0.00  0.00    +0.000 A 
ATOM     17  C   UNL     1       5.373   3.708  13.615  0.00  0.00    +0.000 A 
ATOM     18  C   UNL     1       6.005   4.395  14.647  0.00  0.00    +0.000 A 
ATOM     19  H   UNL     1       8.621   5.827  15.638  0.00  0.00    +0.000 HD
ENDROOT
TORSDOF 0
ENDMDL
MODEL 9
REMARK VINA RESULT:      -6.6      3.635      4.647
REMARK  Name = 
REMARK  1 active torsions:
REMARK  status: ('A' for Active; 'I' for Inactive)
REMARK    1  A    between atoms: C_1  and  C_2
REMARK                            x       y       z     vdW  Elec       q    Type
REMARK                         _______ _______ _______ _____ _____    ______ ____
ROOT
ATOM      1  C   UNL     1       0.172  10.044  18.103  0.00  0.00    +0.000 C 
ATOM      2  C   UNL     1       0.566   9.451  19.431  0.00  0.00    +0.000 C 
ATOM      3  O   UNL     1      -0.068   9.746  20.448  0.00  0.00    +0.000 OA
ATOM      4  N   UNL     1       1.632   8.562  19.444  0.00  0.00    +0.000 N 
ATOM      5  C   UNL     1       1.955   7.869  20.686  0.00  0.00    +0.000 C 
ATOM      6  C   UNL     1       1.681   6.377  20.522  0.00  0.00    +0.000 C 
ATOM      7  C   UNL     1       2.464   5.797  19.324  0.00  0.00    +0.000 C 
ATOM      8  C   UNL     1       2.178   6.617  18.048  0.00  0.00    +0.000 C 
ATOM      9  C   UNL     1       2.381   8.115  18.270  0.00  0.00    +0.000 C 
ATOM     10  C   UNL     1       3.992   5.723  19.655  0.00  0.00    +0.000 C 
ATOM     11  N   UNL     1       4.492   4.387  19.305  0.00  0.00    +0.000 N 
ATOM     12  C   UNL     1       3.330   3.591  19.190  0.00  0.00    +0.000 A 
ATOM     13  C   UNL     1       3.293   2.212  19.039  0.00  0.00    +0.000 A 
ATOM     14  F   UNL     1       4.416   1.487  19.126  0.00  0.00    +0.000 F 
ATOM     15  C   UNL     1       2.078   1.576  18.800  0.00  0.00    +0.000 A 
ATOM     16  C   UNL     1       0.900   2.332  18.696  0.00  0.00    +0.000 A 
ATOM     17  C   UNL     1       0.935   3.721  18.855  0.00  0.00    +0.000 A 
ATOM     18  C   UNL     1       2.157   4.336  19.108  0.00  0.00    +0.000 A 
ATOM     19  H   UNL     1       5.165   3.969  19.943  0.00  0.00    +0.000 HD
ENDROOT
TORSDOF 0
ENDMDL
