MODEL 1
REMARK VINA RESULT:      -7.7      0.000      0.000
REMARK  Name = 
REMARK  3 active torsions:
REMARK  status: ('A' for Active; 'I' for Inactive)
REMARK    1  A    between atoms: C_1  and  N_2
REMARK    2  A    between atoms: C_12  and  O_13
REMARK    3  A    between atoms: C_14  and  C_15
REMARK                            x       y       z     vdW  Elec       q    Type
REMARK                         _______ _______ _______ _____ _____    ______ ____
ROOT
ATOM      1  C   UNL     1       3.615   7.347  17.300  0.00  0.00    +0.000 C 
ATOM      2  N   UNL     1       3.117   6.814  18.553  0.00  0.00    +0.000 N 
ATOM      3  C   UNL     1       2.244   7.542  19.350  0.00  0.00    +0.000 A 
ATOM      4  C   UNL     1       1.770   8.866  19.247  0.00  0.00    +0.000 A 
ATOM      5  C   UNL     1       0.840   9.312  20.193  0.00  0.00    +0.000 A 
ATOM      6  C   UNL     1       0.393   8.474  21.206  0.00  0.00    +0.000 A 
ATOM      7  C   UNL     1       0.876   7.171  21.303  0.00  0.00    +0.000 A 
ATOM      8  C   UNL     1       1.821   6.696  20.369  0.00  0.00    +0.000 A 
ATOM      9  C   UNL     1       2.514   5.473  20.205  0.00  0.00    +0.000 A 
ATOM     10  N   UNL     1       2.411   4.369  20.982  0.00  0.00    +0.000 NA
ATOM     11  N   UNL     1       3.141   3.331  20.711  0.00  0.00    +0.000 NA
ATOM     12  C   UNL     1       4.004   3.379  19.668  0.00  0.00    +0.000 A 
ATOM     13  C   UNL     1       4.211   4.454  18.784  0.00  0.00    +0.000 A 
ATOM     14  C   UNL     1       3.373   5.559  19.099  0.00  0.00    +0.000 A 
ENDROOT
BRANCH  13  15
ATOM     15  C   UNL     1       5.184   4.401  17.671  0.00  0.00    +0.000 A 
ATOM     16  C   UNL     1       4.799   4.038  16.364  0.00  0.00    +0.000 A 
ATOM     17  C   UNL     1       5.708   4.028  15.300  0.00  0.00    +0.000 A 
ATOM     18  C   UNL     1       7.021   4.433  15.505  0.00  0.00    +0.000 A 
ATOM     19  C   UNL     1       7.441   4.762  16.787  0.00  0.00    +0.000 A 
ATOM     20  C   UNL     1       6.546   4.686  17.860  0.00  0.00    +0.000 A 
ENDBRANCH  13  15
BRANCH  12  21
ATOM     21  O   UNL     1       4.708   2.218  19.550  0.00  0.00    +0.000 OA
ATOM     22  H   UNL     1       5.220   2.395  18.740  0.00  0.00    +0.000 HD
ENDBRANCH  12  21
TORSDOF 2
ENDMDL
MODEL 2
REMARK VINA RESULT:      -7.6      0.152      1.056
REMARK  Name = 
REMARK  3 active torsions:
REMARK  status: ('A' for Active; 'I' for Inactive)
REMARK    1  A    between atoms: C_1  and  N_2
REMARK    2  A    between atoms: C_12  and  O_13
REMARK    3  A    between atoms: C_14  and  C_15
REMARK                            x       y       z     vdW  Elec       q    Type
REMARK                         _______ _______ _______ _____ _____    ______ ____
ROOT
ATOM      1  C   UNL     1       3.556   7.442  17.388  0.00  0.00    +0.000 C 
ATOM      2  N   UNL     1       3.032   6.892  18.623  0.00  0.00    +0.000 N 
ATOM      3  C   UNL     1       2.160   7.617  19.423  0.00  0.00    +0.000 A 
ATOM      4  C   UNL     1       1.708   8.951  19.341  0.00  0.00    +0.000 A 
ATOM      5  C   UNL     1       0.772   9.393  20.283  0.00  0.00    +0.000 A 
ATOM      6  C   UNL     1       0.297   8.542  21.273  0.00  0.00    +0.000 A 
ATOM      7  C   UNL     1       0.758   7.229  21.349  0.00  0.00    +0.000 A 
ATOM      8  C   UNL     1       1.708   6.758  20.419  0.00  0.00    +0.000 A 
ATOM      9  C   UNL     1       2.384   5.528  20.239  0.00  0.00    +0.000 A 
ATOM     10  N   UNL     1       2.252   4.409  20.992  0.00  0.00    +0.000 NA
ATOM     11  N   UNL     1       2.969   3.366  20.709  0.00  0.00    +0.000 NA
ATOM     12  C   UNL     1       3.848   3.421  19.679  0.00  0.00    +0.000 A 
ATOM     13  C   UNL     1       4.084   4.510  18.821  0.00  0.00    +0.000 A 
ATOM     14  C   UNL     1       3.259   5.622  19.147  0.00  0.00    +0.000 A 
ENDROOT
BRANCH  13  15
ATOM     15  C   UNL     1       5.072   4.464  17.720  0.00  0.00    +0.000 A 
ATOM     16  C   UNL     1       6.432   4.772  17.931  0.00  0.00    +0.000 A 
ATOM     17  C   UNL     1       7.378   4.689  16.902  0.00  0.00    +0.000 A 
ATOM     18  C   UNL     1       6.996   4.243  15.643  0.00  0.00    +0.000 A 
ATOM     19  C   UNL     1       5.658   3.966  15.394  0.00  0.00    +0.000 A 
ATOM     20  C   UNL     1       4.706   4.136  16.406  0.00  0.00    +0.000 A 
ENDBRANCH  13  15
BRANCH  12  21
ATOM     21  O   UNL     1       4.534   2.251  19.547  0.00  0.00    +0.000 OA
ATOM     22  H   UNL     1       5.450   2.580  19.493  0.00  0.00    +0.000 HD
ENDBRANCH  12  21
TORSDOF 2
ENDMDL
MODEL 3
REMARK VINA RESULT:      -6.9      2.480      6.090
REMARK  Name = 
REMARK  3 active torsions:
REMARK  status: ('A' for Active; 'I' for Inactive)
REMARK    1  A    between atoms: C_1  and  N_2
REMARK    2  A    between atoms: C_12  and  O_13
REMARK    3  A    between atoms: C_14  and  C_15
REMARK                            x       y       z     vdW  Elec       q    Type
REMARK                         _______ _______ _______ _____ _____    ______ ____
ROOT
ATOM      1  C   UNL     1       3.814   2.642  17.625  0.00  0.00    +0.000 C 
ATOM      2  N   UNL     1       4.177   4.006  17.294  0.00  0.00    +0.000 N 
ATOM      3  C   UNL     1       5.077   4.286  16.275  0.00  0.00    +0.000 A 
ATOM      4  C   UNL     1       5.879   3.442  15.480  0.00  0.00    +0.000 A 
ATOM      5  C   UNL     1       6.665   4.023  14.479  0.00  0.00    +0.000 A 
ATOM      6  C   UNL     1       6.657   5.396  14.271  0.00  0.00    +0.000 A 
ATOM      7  C   UNL     1       5.868   6.221  15.070  0.00  0.00    +0.000 A 
ATOM      8  C   UNL     1       5.072   5.664  16.093  0.00  0.00    +0.000 A 
ATOM      9  C   UNL     1       4.204   6.206  17.071  0.00  0.00    +0.000 A 
ATOM     10  N   UNL     1       3.908   7.514  17.260  0.00  0.00    +0.000 NA
ATOM     11  N   UNL     1       3.109   7.851  18.226  0.00  0.00    +0.000 NA
ATOM     12  C   UNL     1       2.602   6.890  19.036  0.00  0.00    +0.000 A 
ATOM     13  C   UNL     1       2.825   5.504  18.953  0.00  0.00    +0.000 A 
ATOM     14  C   UNL     1       3.681   5.175  17.866  0.00  0.00    +0.000 A 
ENDROOT
BRANCH  13  15
ATOM     15  C   UNL     1       2.219   4.536  19.894  0.00  0.00    +0.000 A 
ATOM     16  C   UNL     1       1.056   3.809  19.564  0.00  0.00    +0.000 A 
ATOM     17  C   UNL     1       0.504   2.862  20.435  0.00  0.00    +0.000 A 
ATOM     18  C   UNL     1       1.133   2.578  21.641  0.00  0.00    +0.000 A 
ATOM     19  C   UNL     1       2.259   3.302  22.010  0.00  0.00    +0.000 A 
ATOM     20  C   UNL     1       2.753   4.308  21.171  0.00  0.00    +0.000 A 
ENDBRANCH  13  15
BRANCH  12  21
ATOM     21  O   UNL     1       1.812   7.425  20.009  0.00  0.00    +0.000 OA
ATOM     22  H   UNL     1       0.956   7.008  19.800  0.00  0.00    +0.000 HD
ENDBRANCH  12  21
TORSDOF 2
ENDMDL
MODEL 4
REMARK VINA RESULT:      -6.9      2.994      6.451
REMARK  Name = 
REMARK  3 active torsions:
REMARK  status: ('A' for Active; 'I' for Inactive)
REMARK    1  A    between atoms: C_1  and  N_2
REMARK    2  A    between atoms: C_12  and  O_13
REMARK    3  A    between atoms: C_14  and  C_15
REMARK                            x       y       z     vdW  Elec       q    Type
REMARK                         _______ _______ _______ _____ _____    ______ ____
ROOT
ATOM      1  C   UNL     1       3.417   3.602  16.174  0.00  0.00    +0.000 C 
ATOM      2  N   UNL     1       4.794   4.028  16.019  0.00  0.00    +0.000 N 
ATOM      3  C   UNL     1       5.410   4.036  14.775  0.00  0.00    +0.000 A 
ATOM      4  C   UNL     1       4.977   3.572  13.515  0.00  0.00    +0.000 A 
ATOM      5  C   UNL     1       5.816   3.768  12.412  0.00  0.00    +0.000 A 
ATOM      6  C   UNL     1       7.044   4.402  12.552  0.00  0.00    +0.000 A 
ATOM      7  C   UNL     1       7.465   4.847  13.803  0.00  0.00    +0.000 A 
ATOM      8  C   UNL     1       6.644   4.656  14.934  0.00  0.00    +0.000 A 
ATOM      9  C   UNL     1       6.781   4.953  16.312  0.00  0.00    +0.000 A 
ATOM     10  N   UNL     1       7.835   5.555  16.913  0.00  0.00    +0.000 NA
ATOM     11  N   UNL     1       7.816   5.732  18.199  0.00  0.00    +0.000 NA
ATOM     12  C   UNL     1       6.752   5.295  18.915  0.00  0.00    +0.000 A 
ATOM     13  C   UNL     1       5.599   4.659  18.422  0.00  0.00    +0.000 A 
ATOM     14  C   UNL     1       5.646   4.511  17.008  0.00  0.00    +0.000 A 
ENDROOT
BRANCH  13  15
ATOM     15  C   UNL     1       4.489   4.220  19.296  0.00  0.00    +0.000 A 
ATOM     16  C   UNL     1       4.376   2.886  19.739  0.00  0.00    +0.000 A 
ATOM     17  C   UNL     1       3.352   2.476  20.601  0.00  0.00    +0.000 A 
ATOM     18  C   UNL     1       2.439   3.405  21.086  0.00  0.00    +0.000 A 
ATOM     19  C   UNL     1       2.501   4.718  20.640  0.00  0.00    +0.000 A 
ATOM     20  C   UNL     1       3.477   5.099  19.711  0.00  0.00    +0.000 A 
ENDBRANCH  13  15
BRANCH  12  21
ATOM     21  O   UNL     1       6.916   5.535  20.246  0.00  0.00    +0.000 OA
ATOM     22  H   UNL     1       7.885   5.620  20.300  0.00  0.00    +0.000 HD
ENDBRANCH  12  21
TORSDOF 2
ENDMDL
MODEL 5
REMARK VINA RESULT:      -6.9      2.983      6.461
REMARK  Name = 
REMARK  3 active torsions:
REMARK  status: ('A' for Active; 'I' for Inactive)
REMARK    1  A    between atoms: C_1  and  N_2
REMARK    2  A    between atoms: C_12  and  O_13
REMARK    3  A    between atoms: C_14  and  C_15
REMARK                            x       y       z     vdW  Elec       q    Type
REMARK                         _______ _______ _______ _____ _____    ______ ____
ROOT
ATOM      1  C   UNL     1       3.416   3.629  16.184  0.00  0.00    +0.000 C 
ATOM      2  N   UNL     1       4.795   4.038  16.004  0.00  0.00    +0.000 N 
ATOM      3  C   UNL     1       5.393   4.027  14.751  0.00  0.00    +0.000 A 
ATOM      4  C   UNL     1       4.936   3.556  13.503  0.00  0.00    +0.000 A 
ATOM      5  C   UNL     1       5.760   3.731  12.385  0.00  0.00    +0.000 A 
ATOM      6  C   UNL     1       6.997   4.353  12.500  0.00  0.00    +0.000 A 
ATOM      7  C   UNL     1       7.442   4.805  13.741  0.00  0.00    +0.000 A 
ATOM      8  C   UNL     1       6.636   4.635  14.886  0.00  0.00    +0.000 A 
ATOM      9  C   UNL     1       6.797   4.944  16.258  0.00  0.00    +0.000 A 
ATOM     10  N   UNL     1       7.866   5.540  16.838  0.00  0.00    +0.000 NA
ATOM     11  N   UNL     1       7.868   5.729  18.122  0.00  0.00    +0.000 NA
ATOM     12  C   UNL     1       6.811   5.311  18.858  0.00  0.00    +0.000 A 
ATOM     13  C   UNL     1       5.643   4.684  18.388  0.00  0.00    +0.000 A 
ATOM     14  C   UNL     1       5.668   4.521  16.976  0.00  0.00    +0.000 A 
ENDROOT
BRANCH  13  15
ATOM     15  C   UNL     1       4.541   4.266  19.284  0.00  0.00    +0.000 A 
ATOM     16  C   UNL     1       3.563   5.178  19.733  0.00  0.00    +0.000 A 
ATOM     17  C   UNL     1       2.496   4.778  20.545  0.00  0.00    +0.000 A 
ATOM     18  C   UNL     1       2.348   3.440  20.888  0.00  0.00    +0.000 A 
ATOM     19  C   UNL     1       3.314   2.523  20.492  0.00  0.00    +0.000 A 
ATOM     20  C   UNL     1       4.424   2.948  19.752  0.00  0.00    +0.000 A 
ENDBRANCH  13  15
BRANCH  12  21
ATOM     21  O   UNL     1       6.997   5.562  20.184  0.00  0.00    +0.000 OA
ATOM     22  H   UNL     1       7.843   6.047  20.163  0.00  0.00    +0.000 HD
ENDBRANCH  12  21
TORSDOF 2
ENDMDL
MODEL 6
REMARK VINA RESULT:      -6.8      3.027      4.640
REMARK  Name = 
REMARK  3 active torsions:
REMARK  status: ('A' for Active; 'I' for Inactive)
REMARK    1  A    between atoms: C_1  and  N_2
REMARK    2  A    between atoms: C_12  and  O_13
REMARK    3  A    between atoms: C_14  and  C_15
REMARK                            x       y       z     vdW  Elec       q    Type
REMARK                         _______ _______ _______ _____ _____    ______ ____
ROOT
ATOM      1  C   UNL     1       4.121   6.340  19.533  0.00  0.00    +0.000 C 
ATOM      2  N   UNL     1       4.048   5.142  18.718  0.00  0.00    +0.000 N 
ATOM      3  C   UNL     1       3.017   4.226  18.875  0.00  0.00    +0.000 A 
ATOM      4  C   UNL     1       1.976   4.145  19.823  0.00  0.00    +0.000 A 
ATOM      5  C   UNL     1       1.039   3.114  19.692  0.00  0.00    +0.000 A 
ATOM      6  C   UNL     1       1.129   2.193  18.656  0.00  0.00    +0.000 A 
ATOM      7  C   UNL     1       2.168   2.278  17.731  0.00  0.00    +0.000 A 
ATOM      8  C   UNL     1       3.132   3.302  17.843  0.00  0.00    +0.000 A 
ATOM      9  C   UNL     1       4.294   3.644  17.111  0.00  0.00    +0.000 A 
ATOM     10  N   UNL     1       4.788   3.005  16.023  0.00  0.00    +0.000 NA
ATOM     11  N   UNL     1       5.886   3.432  15.481  0.00  0.00    +0.000 NA
ATOM     12  C   UNL     1       6.526   4.496  16.022  0.00  0.00    +0.000 A 
ATOM     13  C   UNL     1       6.127   5.249  17.141  0.00  0.00    +0.000 A 
ATOM     14  C   UNL     1       4.906   4.766  17.688  0.00  0.00    +0.000 A 
ENDROOT
BRANCH  13  15
ATOM     15  C   UNL     1       6.904   6.400  17.653  0.00  0.00    +0.000 A 
ATOM     16  C   UNL     1       7.808   6.266  18.727  0.00  0.00    +0.000 A 
ATOM     17  C   UNL     1       8.576   7.342  19.186  0.00  0.00    +0.000 A 
ATOM     18  C   UNL     1       8.498   8.574  18.547  0.00  0.00    +0.000 A 
ATOM     19  C   UNL     1       7.591   8.747  17.509  0.00  0.00    +0.000 A 
ATOM     20  C   UNL     1       6.765   7.688  17.114  0.00  0.00    +0.000 A 
ENDBRANCH  13  15
BRANCH  12  21
ATOM     21  O   UNL     1       7.673   4.786  15.345  0.00  0.00    +0.000 OA
ATOM     22  H   UNL     1       8.299   4.174  15.773  0.00  0.00    +0.000 HD
ENDBRANCH  12  21
TORSDOF 2
ENDMDL
MODEL 7
REMARK VINA RESULT:      -6.7      2.499      6.186
REMARK  Name = 
REMARK  3 active torsions:
REMARK  status: ('A' for Active; 'I' for Inactive)
REMARK    1  A    between atoms: C_1  and  N_2
REMARK    2  A    between atoms: C_12  and  O_13
REMARK    3  A    between atoms: C_14  and  C_15
REMARK                            x       y       z     vdW  Elec       q    Type
REMARK                         _______ _______ _______ _____ _____    ______ ____
ROOT
ATOM      1  C   UNL     1       3.876   2.590  17.533  0.00  0.00    +0.000 C 
ATOM      2  N   UNL     1       4.228   3.963  17.224  0.00  0.00    +0.000 N 
ATOM      3  C   UNL     1       5.120   4.267  16.204  0.00  0.00    +0.000 A 
ATOM      4  C   UNL     1       5.921   3.442  15.389  0.00  0.00    +0.000 A 
ATOM      5  C   UNL     1       6.697   4.046  14.392  0.00  0.00    +0.000 A 
ATOM      6  C   UNL     1       6.679   5.423  14.210  0.00  0.00    +0.000 A 
ATOM      7  C   UNL     1       5.890   6.228  15.029  0.00  0.00    +0.000 A 
ATOM      8  C   UNL     1       5.104   5.648  16.047  0.00  0.00    +0.000 A 
ATOM      9  C   UNL     1       4.240   6.167  17.040  0.00  0.00    +0.000 A 
ATOM     10  N   UNL     1       3.937   7.469  17.255  0.00  0.00    +0.000 NA
ATOM     11  N   UNL     1       3.143   7.783  18.232  0.00  0.00    +0.000 NA
ATOM     12  C   UNL     1       2.648   6.805  19.028  0.00  0.00    +0.000 A 
ATOM     13  C   UNL     1       2.879   5.422  18.918  0.00  0.00    +0.000 A 
ATOM     14  C   UNL     1       3.729   5.119  17.820  0.00  0.00    +0.000 A 
ENDROOT
BRANCH  13  15
ATOM     15  C   UNL     1       2.285   4.434  19.846  0.00  0.00    +0.000 A 
ATOM     16  C   UNL     1       2.875   4.137  21.092  0.00  0.00    +0.000 A 
ATOM     17  C   UNL     1       2.294   3.234  21.990  0.00  0.00    +0.000 A 
ATOM     18  C   UNL     1       1.075   2.642  21.687  0.00  0.00    +0.000 A 
ATOM     19  C   UNL     1       0.486   2.885  20.454  0.00  0.00    +0.000 A 
ATOM     20  C   UNL     1       1.118   3.722  19.527  0.00  0.00    +0.000 A 
ENDBRANCH  13  15
BRANCH  12  21
ATOM     21  O   UNL     1       1.861   7.317  20.016  0.00  0.00    +0.000 OA
ATOM     22  H   UNL     1       1.688   6.518  20.546  0.00  0.00    +0.000 HD
ENDBRANCH  12  21
TORSDOF 2
ENDMDL
MODEL 8
REMARK VINA RESULT:      -6.6      3.019      4.542
REMARK  Name = 
REMARK  3 active torsions:
REMARK  status: ('A' for Active; 'I' for Inactive)
REMARK    1  A    between atoms: C_1  and  N_2
REMARK    2  A    between atoms: C_12  and  O_13
REMARK    3  A    between atoms: C_14  and  C_15
REMARK                            x       y       z     vdW  Elec       q    Type
REMARK                         _______ _______ _______ _____ _____    ______ ____
ROOT
ATOM      1  C   UNL     1       4.230   6.469  19.456  0.00  0.00    +0.000 C 
ATOM      2  N   UNL     1       4.113   5.269  18.651  0.00  0.00    +0.000 N 
ATOM      3  C   UNL     1       3.051   4.391  18.815  0.00  0.00    +0.000 A 
ATOM      4  C   UNL     1       2.008   4.354  19.764  0.00  0.00    +0.000 A 
ATOM      5  C   UNL     1       1.035   3.355  19.642  0.00  0.00    +0.000 A 
ATOM      6  C   UNL     1       1.092   2.425  18.613  0.00  0.00    +0.000 A 
ATOM      7  C   UNL     1       2.132   2.466  17.687  0.00  0.00    +0.000 A 
ATOM      8  C   UNL     1       3.132   3.455  17.790  0.00  0.00    +0.000 A 
ATOM      9  C   UNL     1       4.304   3.750  17.054  0.00  0.00    +0.000 A 
ATOM     10  N   UNL     1       4.774   3.086  15.971  0.00  0.00    +0.000 NA
ATOM     11  N   UNL     1       5.887   3.470  15.425  0.00  0.00    +0.000 NA
ATOM     12  C   UNL     1       6.564   4.515  15.958  0.00  0.00    +0.000 A 
ATOM     13  C   UNL     1       6.193   5.290  17.072  0.00  0.00    +0.000 A 
ATOM     14  C   UNL     1       4.956   4.855  17.623  0.00  0.00    +0.000 A 
ENDROOT
BRANCH  13  15
ATOM     15  C   UNL     1       7.011   6.416  17.574  0.00  0.00    +0.000 A 
ATOM     16  C   UNL     1       6.961   7.693  16.978  0.00  0.00    +0.000 A 
ATOM     17  C   UNL     1       7.701   8.772  17.476  0.00  0.00    +0.000 A 
ATOM     18  C   UNL     1       8.473   8.615  18.620  0.00  0.00    +0.000 A 
ATOM     19  C   UNL     1       8.571   7.361  19.210  0.00  0.00    +0.000 A 
ATOM     20  C   UNL     1       7.896   6.269  18.653  0.00  0.00    +0.000 A 
ENDBRANCH  13  15
BRANCH  12  21
ATOM     21  O   UNL     1       7.720   4.758  15.277  0.00  0.00    +0.000 OA
ATOM     22  H   UNL     1       7.727   5.733  15.270  0.00  0.00    +0.000 HD
ENDBRANCH  12  21
TORSDOF 2
ENDMDL
MODEL 9
REMARK VINA RESULT:      -6.4      2.672      4.659
REMARK  Name = 
REMARK  3 active torsions:
REMARK  status: ('A' for Active; 'I' for Inactive)
REMARK    1  A    between atoms: C_1  and  N_2
REMARK    2  A    between atoms: C_12  and  O_13
REMARK    3  A    between atoms: C_14  and  C_15
REMARK                            x       y       z     vdW  Elec       q    Type
REMARK                         _______ _______ _______ _____ _____    ______ ____
ROOT
ATOM      1  C   UNL     1       0.808   7.542  21.160  0.00  0.00    +0.000 C 
ATOM      2  N   UNL     1       1.397   8.080  19.949  0.00  0.00    +0.000 N 
ATOM      3  C   UNL     1       1.246   9.416  19.605  0.00  0.00    +0.000 A 
ATOM      4  C   UNL     1       0.477  10.448  20.183  0.00  0.00    +0.000 A 
ATOM      5  C   UNL     1       0.569  11.732  19.634  0.00  0.00    +0.000 A 
ATOM      6  C   UNL     1       1.397  11.986  18.548  0.00  0.00    +0.000 A 
ATOM      7  C   UNL     1       2.144  10.957  17.980  0.00  0.00    +0.000 A 
ATOM      8  C   UNL     1       2.065   9.651  18.507  0.00  0.00    +0.000 A 
ATOM      9  C   UNL     1       2.651   8.411  18.158  0.00  0.00    +0.000 A 
ATOM     10  N   UNL     1       3.514   8.176  17.141  0.00  0.00    +0.000 NA
ATOM     11  N   UNL     1       3.942   6.969  16.937  0.00  0.00    +0.000 NA
ATOM     12  C   UNL     1       3.504   5.964  17.733  0.00  0.00    +0.000 A 
ATOM     13  C   UNL     1       2.615   6.066  18.818  0.00  0.00    +0.000 A 
ATOM     14  C   UNL     1       2.193   7.408  19.025  0.00  0.00    +0.000 A 
ENDROOT
BRANCH  13  15
ATOM     15  C   UNL     1       2.200   4.898  19.627  0.00  0.00    +0.000 A 
ATOM     16  C   UNL     1       2.733   4.656  20.910  0.00  0.00    +0.000 A 
ATOM     17  C   UNL     1       2.311   3.577  21.696  0.00  0.00    +0.000 A 
ATOM     18  C   UNL     1       1.304   2.738  21.238  0.00  0.00    +0.000 A 
ATOM     19  C   UNL     1       0.784   2.927  19.964  0.00  0.00    +0.000 A 
ATOM     20  C   UNL     1       1.273   3.957  19.152  0.00  0.00    +0.000 A 
ENDBRANCH  13  15
BRANCH  12  21
ATOM     21  O   UNL     1       4.031   4.765  17.357  0.00  0.00    +0.000 OA
ATOM     22  H   UNL     1       4.852   5.054  16.920  0.00  0.00    +0.000 HD
ENDBRANCH  12  21
TORSDOF 2
ENDMDL
