MODEL 1
REMARK VINA RESULT:      -9.8      0.000      0.000
REMARK  Name = 
REMARK  4 active torsions:
REMARK  status: ('A' for Active; 'I' for Inactive)
REMARK    1  A    between atoms: C_1  and  N_2
REMARK    2  A    between atoms: C_4  and  C_5
REMARK    3  A    between atoms: C_14  and  C_16
REMARK    4  A    between atoms: C_16  and  C_17
REMARK                            x       y       z     vdW  Elec       q    Type
REMARK                         _______ _______ _______ _____ _____    ______ ____
ROOT
ATOM      1  C   UNL     1       1.401   7.565  20.282  0.00  0.00    +0.000 A 
ATOM      2  C   UNL     1       2.420   7.566  19.320  0.00  0.00    +0.000 A 
ATOM      3  C   UNL     1       3.012   6.382  18.874  0.00  0.00    +0.000 A 
ATOM      4  C   UNL     1       2.642   5.187  19.455  0.00  0.00    +0.000 A 
ATOM      5  C   UNL     1       1.668   5.181  20.457  0.00  0.00    +0.000 A 
ATOM      6  C   UNL     1       1.021   6.346  20.859  0.00  0.00    +0.000 A 
ATOM      7  C   UNL     1       1.429   3.801  20.981  0.00  0.00    +0.000 C 
ATOM      8  C   UNL     1       2.556   3.021  20.304  0.00  0.00    +0.000 C 
ATOM      9  N   UNL     1       3.127   3.882  19.256  0.00  0.00    +0.000 N 
ATOM     10  C   UNL     1       4.074   3.362  18.398  0.00  0.00    +0.000 C 
ATOM     11  O   UNL     1       4.447   2.187  18.517  0.00  0.00    +0.000 OA
ENDROOT
BRANCH   1  15
ATOM     12  C   UNL     1      -0.936  10.825  23.175  0.00  0.00    +0.000 C 
ATOM     13  N   UNL     1      -0.253  10.271  22.032  0.00  0.00    +0.000 N 
ATOM     14  C   UNL     1       0.147   8.967  21.906  0.00  0.00    +0.000 A 
ATOM     15  C   UNL     1       0.789   8.826  20.688  0.00  0.00    +0.000 A 
ATOM     16  C   UNL     1       0.764  10.117  20.045  0.00  0.00    +0.000 A 
ATOM     17  C   UNL     1       1.208  10.691  18.837  0.00  0.00    +0.000 A 
ATOM     18  N   UNL     1       1.835  10.004  17.804  0.00  0.00    +0.000 N 
ATOM     19  N   UNL     1       1.008  12.007  18.623  0.00  0.00    +0.000 NA
ATOM     20  C   UNL     1       0.379  12.722  19.571  0.00  0.00    +0.000 A 
ATOM     21  N   UNL     1      -0.108  12.293  20.743  0.00  0.00    +0.000 NA
ATOM     22  C   UNL     1       0.118  10.981  20.923  0.00  0.00    +0.000 A 
ATOM     23  H   UNL     1       1.513   9.051  17.691  0.00  0.00    +0.000 HD
ATOM     24  H   UNL     1       1.841  10.571  16.963  0.00  0.00    +0.000 HD
ENDBRANCH   1  15
BRANCH  10  25
ATOM     25  C   UNL     1       4.668   4.207  17.288  0.00  0.00    +0.000 C 
BRANCH  25  26
ATOM     26  C   UNL     1       5.797   5.140  17.683  0.00  0.00    +0.000 A 
ATOM     27  C   UNL     1       6.610   4.924  18.808  0.00  0.00    +0.000 A 
ATOM     28  C   UNL     1       7.610   5.837  19.150  0.00  0.00    +0.000 A 
ATOM     29  C   UNL     1       7.811   6.963  18.363  0.00  0.00    +0.000 A 
ATOM     30  F   UNL     1       8.770   7.837  18.692  0.00  0.00    +0.000 F 
ATOM     31  C   UNL     1       7.029   7.195  17.238  0.00  0.00    +0.000 A 
ATOM     32  C   UNL     1       6.025   6.286  16.899  0.00  0.00    +0.000 A 
ENDBRANCH  25  26
ENDBRANCH  10  25
TORSDOF 3
ENDMDL
MODEL 2
REMARK VINA RESULT:      -9.7      2.811      3.792
REMARK  Name = 
REMARK  4 active torsions:
REMARK  status: ('A' for Active; 'I' for Inactive)
REMARK    1  A    between atoms: C_1  and  N_2
REMARK    2  A    between atoms: C_4  and  C_5
REMARK    3  A    between atoms: C_14  and  C_16
REMARK    4  A    between atoms: C_16  and  C_17
REMARK                            x       y       z     vdW  Elec       q    Type
REMARK                         _______ _______ _______ _____ _____    ______ ____
ROOT
ATOM      1  C   UNL     1       1.799   8.372  18.984  0.00  0.00    +0.000 A 
ATOM      2  C   UNL     1       2.612   8.555  17.858  0.00  0.00    +0.000 A 
ATOM      3  C   UNL     1       3.512   7.575  17.433  0.00  0.00    +0.000 A 
ATOM      4  C   UNL     1       3.665   6.432  18.190  0.00  0.00    +0.000 A 
ATOM      5  C   UNL     1       2.900   6.266  19.348  0.00  0.00    +0.000 A 
ATOM      6  C   UNL     1       1.950   7.203  19.741  0.00  0.00    +0.000 A 
ATOM      7  C   UNL     1       3.231   4.984  20.044  0.00  0.00    +0.000 C 
ATOM      8  C   UNL     1       4.456   4.518  19.256  0.00  0.00    +0.000 C 
ATOM      9  N   UNL     1       4.542   5.343  18.039  0.00  0.00    +0.000 N 
ATOM     10  C   UNL     1       5.483   5.032  17.080  0.00  0.00    +0.000 C 
ATOM     11  O   UNL     1       6.254   4.078  17.247  0.00  0.00    +0.000 OA
ENDROOT
BRANCH   1  15
ATOM     12  C   UNL     1      -1.760  11.768  18.467  0.00  0.00    +0.000 C 
ATOM     13  N   UNL     1      -0.772  10.922  19.090  0.00  0.00    +0.000 N 
ATOM     14  C   UNL     1       0.067  10.066  18.428  0.00  0.00    +0.000 A 
ATOM     15  C   UNL     1       0.848   9.412  19.365  0.00  0.00    +0.000 A 
ATOM     16  C   UNL     1       0.459   9.911  20.661  0.00  0.00    +0.000 A 
ATOM     17  C   UNL     1       0.816   9.706  22.009  0.00  0.00    +0.000 A 
ATOM     18  N   UNL     1       1.829   8.863  22.454  0.00  0.00    +0.000 N 
ATOM     19  N   UNL     1       0.156  10.379  22.973  0.00  0.00    +0.000 NA
ATOM     20  C   UNL     1      -0.815  11.234  22.607  0.00  0.00    +0.000 A 
ATOM     21  N   UNL     1      -1.230  11.533  21.369  0.00  0.00    +0.000 NA
ATOM     22  C   UNL     1      -0.555  10.836  20.438  0.00  0.00    +0.000 A 
ATOM     23  H   UNL     1       2.620   8.808  21.825  0.00  0.00    +0.000 HD
ATOM     24  H   UNL     1       2.048   9.065  23.423  0.00  0.00    +0.000 HD
ENDBRANCH   1  15
BRANCH  10  25
ATOM     25  C   UNL     1       5.588   5.839  15.800  0.00  0.00    +0.000 C 
BRANCH  25  26
ATOM     26  C   UNL     1       6.019   5.079  14.560  0.00  0.00    +0.000 A 
ATOM     27  C   UNL     1       5.225   4.094  13.951  0.00  0.00    +0.000 A 
ATOM     28  C   UNL     1       5.688   3.395  12.833  0.00  0.00    +0.000 A 
ATOM     29  C   UNL     1       6.942   3.686  12.313  0.00  0.00    +0.000 A 
ATOM     30  F   UNL     1       7.384   3.016  11.242  0.00  0.00    +0.000 F 
ATOM     31  C   UNL     1       7.743   4.664  12.889  0.00  0.00    +0.000 A 
ATOM     32  C   UNL     1       7.283   5.359  14.009  0.00  0.00    +0.000 A 
ENDBRANCH  25  26
ENDBRANCH  10  25
TORSDOF 3
ENDMDL
MODEL 3
REMARK VINA RESULT:      -9.7      3.371      8.145
REMARK  Name = 
REMARK  4 active torsions:
REMARK  status: ('A' for Active; 'I' for Inactive)
REMARK    1  A    between atoms: C_1  and  N_2
REMARK    2  A    between atoms: C_4  and  C_5
REMARK    3  A    between atoms: C_14  and  C_16
REMARK    4  A    between atoms: C_16  and  C_17
REMARK                            x       y       z     vdW  Elec       q    Type
REMARK                         _______ _______ _______ _____ _____    ______ ____
ROOT
ATOM      1  C   UNL     1       2.387   7.382  18.631  0.00  0.00    +0.000 A 
ATOM      2  C   UNL     1       1.881   8.393  17.803  0.00  0.00    +0.000 A 
ATOM      3  C   UNL     1       1.196   9.494  18.320  0.00  0.00    +0.000 A 
ATOM      4  C   UNL     1       0.937   9.548  19.674  0.00  0.00    +0.000 A 
ATOM      5  C   UNL     1       1.386   8.515  20.502  0.00  0.00    +0.000 A 
ATOM      6  C   UNL     1       2.131   7.449  20.007  0.00  0.00    +0.000 A 
ATOM      7  C   UNL     1       0.982   8.738  21.924  0.00  0.00    +0.000 C 
ATOM      8  C   UNL     1       0.040   9.934  21.788  0.00  0.00    +0.000 C 
ATOM      9  N   UNL     1       0.211  10.483  20.432  0.00  0.00    +0.000 N 
ATOM     10  C   UNL     1      -0.426  11.660  20.097  0.00  0.00    +0.000 C 
ATOM     11  O   UNL     1      -1.142  12.241  20.923  0.00  0.00    +0.000 OA
ENDROOT
BRANCH   1  15
ATOM     12  C   UNL     1       5.892   5.045  16.041  0.00  0.00    +0.000 C 
ATOM     13  N   UNL     1       4.738   5.256  16.881  0.00  0.00    +0.000 N 
ATOM     14  C   UNL     1       4.208   6.476  17.204  0.00  0.00    +0.000 A 
ATOM     15  C   UNL     1       3.128   6.270  18.045  0.00  0.00    +0.000 A 
ATOM     16  C   UNL     1       3.001   4.846  18.229  0.00  0.00    +0.000 A 
ATOM     17  C   UNL     1       2.161   3.953  18.925  0.00  0.00    +0.000 A 
ATOM     18  N   UNL     1       1.052   4.316  19.680  0.00  0.00    +0.000 N 
ATOM     19  N   UNL     1       2.412   2.630  18.861  0.00  0.00    +0.000 NA
ATOM     20  C   UNL     1       3.452   2.210  18.121  0.00  0.00    +0.000 A 
ATOM     21  N   UNL     1       4.306   2.950  17.399  0.00  0.00    +0.000 NA
ATOM     22  C   UNL     1       4.029   4.261  17.496  0.00  0.00    +0.000 A 
ATOM     23  H   UNL     1       0.556   5.121  19.318  0.00  0.00    +0.000 HD
ATOM     24  H   UNL     1       0.484   3.500  19.879  0.00  0.00    +0.000 HD
ENDBRANCH   1  15
BRANCH  10  25
ATOM     25  C   UNL     1      -0.255  12.274  18.720  0.00  0.00    +0.000 C 
BRANCH  25  26
ATOM     26  C   UNL     1       0.793  13.363  18.596  0.00  0.00    +0.000 A 
ATOM     27  C   UNL     1       2.131  13.104  18.253  0.00  0.00    +0.000 A 
ATOM     28  C   UNL     1       3.065  14.141  18.192  0.00  0.00    +0.000 A 
ATOM     29  C   UNL     1       2.664  15.442  18.461  0.00  0.00    +0.000 A 
ATOM     30  F   UNL     1       3.561  16.435  18.401  0.00  0.00    +0.000 F 
ATOM     31  C   UNL     1       1.345  15.729  18.790  0.00  0.00    +0.000 A 
ATOM     32  C   UNL     1       0.412  14.692  18.857  0.00  0.00    +0.000 A 
ENDBRANCH  25  26
ENDBRANCH  10  25
TORSDOF 3
ENDMDL
MODEL 4
REMARK VINA RESULT:      -9.5      3.405      8.266
REMARK  Name = 
REMARK  4 active torsions:
REMARK  status: ('A' for Active; 'I' for Inactive)
REMARK    1  A    between atoms: C_1  and  N_2
REMARK    2  A    between atoms: C_4  and  C_5
REMARK    3  A    between atoms: C_14  and  C_16
REMARK    4  A    between atoms: C_16  and  C_17
REMARK                            x       y       z     vdW  Elec       q    Type
REMARK                         _______ _______ _______ _____ _____    ______ ____
ROOT
ATOM      1  C   UNL     1       2.227   7.760  18.739  0.00  0.00    +0.000 A 
ATOM      2  C   UNL     1       1.687   8.749  17.906  0.00  0.00    +0.000 A 
ATOM      3  C   UNL     1       0.926   9.804  18.415  0.00  0.00    +0.000 A 
ATOM      4  C   UNL     1       0.628   9.828  19.761  0.00  0.00    +0.000 A 
ATOM      5  C   UNL     1       1.113   8.814  20.591  0.00  0.00    +0.000 A 
ATOM      6  C   UNL     1       1.931   7.797  20.107  0.00  0.00    +0.000 A 
ATOM      7  C   UNL     1       0.658   8.998  22.004  0.00  0.00    +0.000 C 
ATOM      8  C   UNL     1      -0.347  10.139  21.853  0.00  0.00    +0.000 C 
ATOM      9  N   UNL     1      -0.171  10.712  20.508  0.00  0.00    +0.000 N 
ATOM     10  C   UNL     1      -0.865  11.854  20.166  0.00  0.00    +0.000 C 
ATOM     11  O   UNL     1      -1.635  12.384  20.977  0.00  0.00    +0.000 OA
ENDROOT
BRANCH   1  15
ATOM     12  C   UNL     1       5.834   5.655  16.089  0.00  0.00    +0.000 C 
ATOM     13  N   UNL     1       4.699   5.791  16.969  0.00  0.00    +0.000 N 
ATOM     14  C   UNL     1       4.069   6.969  17.269  0.00  0.00    +0.000 A 
ATOM     15  C   UNL     1       3.047   6.699  18.163  0.00  0.00    +0.000 A 
ATOM     16  C   UNL     1       3.063   5.277  18.405  0.00  0.00    +0.000 A 
ATOM     17  C   UNL     1       2.339   4.340  19.169  0.00  0.00    +0.000 A 
ATOM     18  N   UNL     1       1.231   4.629  19.957  0.00  0.00    +0.000 N 
ATOM     19  N   UNL     1       2.711   3.044  19.143  0.00  0.00    +0.000 NA
ATOM     20  C   UNL     1       3.757   2.693  18.375  0.00  0.00    +0.000 A 
ATOM     21  N   UNL     1       4.507   3.478  17.591  0.00  0.00    +0.000 NA
ATOM     22  C   UNL     1       4.112   4.762  17.650  0.00  0.00    +0.000 A 
ATOM     23  H   UNL     1       0.648   5.368  19.587  0.00  0.00    +0.000 HD
ATOM     24  H   UNL     1       0.751   3.772  20.210  0.00  0.00    +0.000 HD
ENDBRANCH   1  15
BRANCH  10  25
ATOM     25  C   UNL     1      -0.692  12.491  18.800  0.00  0.00    +0.000 C 
BRANCH  25  26
ATOM     26  C   UNL     1       0.296  13.639  18.715  0.00  0.00    +0.000 A 
ATOM     27  C   UNL     1      -0.067  14.979  18.930  0.00  0.00    +0.000 A 
ATOM     28  C   UNL     1       0.876  16.002  18.800  0.00  0.00    +0.000 A 
ATOM     29  C   UNL     1       2.186  15.690  18.465  0.00  0.00    +0.000 A 
ATOM     30  F   UNL     1       3.088  16.672  18.340  0.00  0.00    +0.000 F 
ATOM     31  C   UNL     1       2.574  14.373  18.258  0.00  0.00    +0.000 A 
ATOM     32  C   UNL     1       1.632  13.350  18.383  0.00  0.00    +0.000 A 
ENDBRANCH  25  26
ENDBRANCH  10  25
TORSDOF 3
ENDMDL
MODEL 5
REMARK VINA RESULT:      -9.4      4.107      8.698
REMARK  Name = 
REMARK  4 active torsions:
REMARK  status: ('A' for Active; 'I' for Inactive)
REMARK    1  A    between atoms: C_1  and  N_2
REMARK    2  A    between atoms: C_4  and  C_5
REMARK    3  A    between atoms: C_14  and  C_16
REMARK    4  A    between atoms: C_16  and  C_17
REMARK                            x       y       z     vdW  Elec       q    Type
REMARK                         _______ _______ _______ _____ _____    ______ ____
ROOT
ATOM      1  C   UNL     1       2.236   7.666  18.825  0.00  0.00    +0.000 A 
ATOM      2  C   UNL     1       1.567   8.663  18.103  0.00  0.00    +0.000 A 
ATOM      3  C   UNL     1       0.832   9.665  18.739  0.00  0.00    +0.000 A 
ATOM      4  C   UNL     1       0.691   9.625  20.111  0.00  0.00    +0.000 A 
ATOM      5  C   UNL     1       1.306   8.601  20.836  0.00  0.00    +0.000 A 
ATOM      6  C   UNL     1       2.099   7.639  20.219  0.00  0.00    +0.000 A 
ATOM      7  C   UNL     1       1.011   8.712  22.298  0.00  0.00    +0.000 C 
ATOM      8  C   UNL     1      -0.046   9.816  22.311  0.00  0.00    +0.000 C 
ATOM      9  N   UNL     1      -0.048  10.446  20.981  0.00  0.00    +0.000 N 
ATOM     10  C   UNL     1      -0.818  11.571  20.769  0.00  0.00    +0.000 C 
ATOM     11  O   UNL     1      -1.509  12.037  21.686  0.00  0.00    +0.000 OA
ENDROOT
BRANCH   1  15
ATOM     12  C   UNL     1       5.760   5.810  15.893  0.00  0.00    +0.000 C 
ATOM     13  N   UNL     1       4.638   5.866  16.798  0.00  0.00    +0.000 N 
ATOM     14  C   UNL     1       4.041   7.014  17.247  0.00  0.00    +0.000 A 
ATOM     15  C   UNL     1       3.023   6.663  18.115  0.00  0.00    +0.000 A 
ATOM     16  C   UNL     1       3.004   5.223  18.183  0.00  0.00    +0.000 A 
ATOM     17  C   UNL     1       2.263   4.217  18.837  0.00  0.00    +0.000 A 
ATOM     18  N   UNL     1       1.171   4.436  19.669  0.00  0.00    +0.000 N 
ATOM     19  N   UNL     1       2.602   2.926  18.650  0.00  0.00    +0.000 NA
ATOM     20  C   UNL     1       3.630   2.644  17.832  0.00  0.00    +0.000 A 
ATOM     21  N   UNL     1       4.392   3.500  17.138  0.00  0.00    +0.000 NA
ATOM     22  C   UNL     1       4.031   4.776  17.358  0.00  0.00    +0.000 A 
ATOM     23  H   UNL     1       0.603   5.229  19.399  0.00  0.00    +0.000 HD
ATOM     24  H   UNL     1       0.672   3.567  19.823  0.00  0.00    +0.000 HD
ENDBRANCH   1  15
BRANCH  10  25
ATOM     25  C   UNL     1      -0.828  12.267  19.422  0.00  0.00    +0.000 C 
BRANCH  25  26
ATOM     26  C   UNL     1      -1.967  11.906  18.487  0.00  0.00    +0.000 A 
ATOM     27  C   UNL     1      -3.318  11.956  18.871  0.00  0.00    +0.000 A 
ATOM     28  C   UNL     1      -4.325  11.574  17.981  0.00  0.00    +0.000 A 
ATOM     29  C   UNL     1      -3.989  11.151  16.703  0.00  0.00    +0.000 A 
ATOM     30  F   UNL     1      -4.956  10.785  15.852  0.00  0.00    +0.000 F 
ATOM     31  C   UNL     1      -2.662  11.104  16.294  0.00  0.00    +0.000 A 
ATOM     32  C   UNL     1      -1.654  11.480  17.183  0.00  0.00    +0.000 A 
ENDBRANCH  25  26
ENDBRANCH  10  25
TORSDOF 3
ENDMDL
MODEL 6
REMARK VINA RESULT:      -9.2      1.085      2.146
REMARK  Name = 
REMARK  4 active torsions:
REMARK  status: ('A' for Active; 'I' for Inactive)
REMARK    1  A    between atoms: C_1  and  N_2
REMARK    2  A    between atoms: C_4  and  C_5
REMARK    3  A    between atoms: C_14  and  C_16
REMARK    4  A    between atoms: C_16  and  C_17
REMARK                            x       y       z     vdW  Elec       q    Type
REMARK                         _______ _______ _______ _____ _____    ______ ____
ROOT
ATOM      1  C   UNL     1       1.409   8.112  19.615  0.00  0.00    +0.000 A 
ATOM      2  C   UNL     1       2.500   8.009  18.742  0.00  0.00    +0.000 A 
ATOM      3  C   UNL     1       3.214   6.818  18.593  0.00  0.00    +0.000 A 
ATOM      4  C   UNL     1       2.891   5.739  19.388  0.00  0.00    +0.000 A 
ATOM      5  C   UNL     1       1.841   5.849  20.305  0.00  0.00    +0.000 A 
ATOM      6  C   UNL     1       1.078   7.007  20.411  0.00  0.00    +0.000 A 
ATOM      7  C   UNL     1       1.667   4.589  21.092  0.00  0.00    +0.000 C 
ATOM      8  C   UNL     1       2.901   3.793  20.668  0.00  0.00    +0.000 C 
ATOM      9  N   UNL     1       3.488   4.471  19.500  0.00  0.00    +0.000 N 
ATOM     10  C   UNL     1       4.538   3.875  18.832  0.00  0.00    +0.000 C 
ATOM     11  O   UNL     1       4.989   2.788  19.219  0.00  0.00    +0.000 OA
ENDROOT
BRANCH   1  15
ATOM     12  C   UNL     1      -1.165  12.058  18.111  0.00  0.00    +0.000 C 
ATOM     13  N   UNL     1      -0.502  11.124  18.988  0.00  0.00    +0.000 N 
ATOM     14  C   UNL     1       0.212  10.029  18.581  0.00  0.00    +0.000 A 
ATOM     15  C   UNL     1       0.671   9.368  19.707  0.00  0.00    +0.000 A 
ATOM     16  C   UNL     1       0.213  10.115  20.852  0.00  0.00    +0.000 A 
ATOM     17  C   UNL     1       0.304  10.035  22.256  0.00  0.00    +0.000 A 
ATOM     18  N   UNL     1       1.019   9.075  22.962  0.00  0.00    +0.000 N 
ATOM     19  N   UNL     1      -0.326  10.960  23.008  0.00  0.00    +0.000 NA
ATOM     20  C   UNL     1      -1.010  11.936  22.386  0.00  0.00    +0.000 A 
ATOM     21  N   UNL     1      -1.152  12.134  21.068  0.00  0.00    +0.000 NA
ATOM     22  C   UNL     1      -0.519  11.188  20.354  0.00  0.00    +0.000 A 
ATOM     23  H   UNL     1       1.863   8.769  22.496  0.00  0.00    +0.000 HD
ATOM     24  H   UNL     1       1.127   9.362  23.929  0.00  0.00    +0.000 HD
ENDBRANCH   1  15
BRANCH  10  25
ATOM     25  C   UNL     1       5.154   4.526  17.608  0.00  0.00    +0.000 C 
BRANCH  25  26
ATOM     26  C   UNL     1       6.221   5.571  17.869  0.00  0.00    +0.000 A 
ATOM     27  C   UNL     1       7.173   5.455  18.895  0.00  0.00    +0.000 A 
ATOM     28  C   UNL     1       8.110   6.468  19.116  0.00  0.00    +0.000 A 
ATOM     29  C   UNL     1       8.107   7.595  18.306  0.00  0.00    +0.000 A 
ATOM     30  F   UNL     1       9.005   8.564  18.520  0.00  0.00    +0.000 F 
ATOM     31  C   UNL     1       7.184   7.730  17.276  0.00  0.00    +0.000 A 
ATOM     32  C   UNL     1       6.244   6.721  17.058  0.00  0.00    +0.000 A 
ENDBRANCH  25  26
ENDBRANCH  10  25
TORSDOF 3
ENDMDL
MODEL 7
REMARK VINA RESULT:      -9.1      3.200      7.852
REMARK  Name = 
REMARK  4 active torsions:
REMARK  status: ('A' for Active; 'I' for Inactive)
REMARK    1  A    between atoms: C_1  and  N_2
REMARK    2  A    between atoms: C_4  and  C_5
REMARK    3  A    between atoms: C_14  and  C_16
REMARK    4  A    between atoms: C_16  and  C_17
REMARK                            x       y       z     vdW  Elec       q    Type
REMARK                         _______ _______ _______ _____ _____    ______ ____
ROOT
ATOM      1  C   UNL     1       2.455   7.492  18.705  0.00  0.00    +0.000 A 
ATOM      2  C   UNL     1       2.132   8.651  17.988  0.00  0.00    +0.000 A 
ATOM      3  C   UNL     1       1.447   9.715  18.579  0.00  0.00    +0.000 A 
ATOM      4  C   UNL     1       1.004   9.589  19.879  0.00  0.00    +0.000 A 
ATOM      5  C   UNL     1       1.270   8.412  20.585  0.00  0.00    +0.000 A 
ATOM      6  C   UNL     1       2.012   7.374  20.029  0.00  0.00    +0.000 A 
ATOM      7  C   UNL     1       0.683   8.454  21.960  0.00  0.00    +0.000 C 
ATOM      8  C   UNL     1      -0.158   9.729  21.892  0.00  0.00    +0.000 C 
ATOM      9  N   UNL     1       0.235  10.457  20.674  0.00  0.00    +0.000 N 
ATOM     10  C   UNL     1      -0.277  11.717  20.449  0.00  0.00    +0.000 C 
ATOM     11  O   UNL     1      -1.066  12.226  21.256  0.00  0.00    +0.000 OA
ENDROOT
BRANCH   1  15
ATOM     12  C   UNL     1       5.974   5.343  15.974  0.00  0.00    +0.000 C 
ATOM     13  N   UNL     1       4.820   5.493  16.827  0.00  0.00    +0.000 N 
ATOM     14  C   UNL     1       4.280   6.687  17.223  0.00  0.00    +0.000 A 
ATOM     15  C   UNL     1       3.204   6.423  18.053  0.00  0.00    +0.000 A 
ATOM     16  C   UNL     1       3.089   4.989  18.151  0.00  0.00    +0.000 A 
ATOM     17  C   UNL     1       2.258   4.050  18.795  0.00  0.00    +0.000 A 
ATOM     18  N   UNL     1       1.148   4.358  19.572  0.00  0.00    +0.000 N 
ATOM     19  N   UNL     1       2.520   2.735  18.651  0.00  0.00    +0.000 NA
ATOM     20  C   UNL     1       3.562   2.368  17.886  0.00  0.00    +0.000 A 
ATOM     21  N   UNL     1       4.407   3.157  17.208  0.00  0.00    +0.000 NA
ATOM     22  C   UNL     1       4.120   4.458  17.383  0.00  0.00    +0.000 A 
ATOM     23  H   UNL     1       0.645   5.178  19.259  0.00  0.00    +0.000 HD
ATOM     24  H   UNL     1       0.587   3.527  19.723  0.00  0.00    +0.000 HD
ENDBRANCH   1  15
BRANCH  10  25
ATOM     25  C   UNL     1       0.123  12.513  19.220  0.00  0.00    +0.000 C 
BRANCH  25  26
ATOM     26  C   UNL     1       1.455  13.234  19.291  0.00  0.00    +0.000 A 
ATOM     27  C   UNL     1       2.103  13.529  20.502  0.00  0.00    +0.000 A 
ATOM     28  C   UNL     1       3.311  14.231  20.511  0.00  0.00    +0.000 A 
ATOM     29  C   UNL     1       3.882  14.631  19.311  0.00  0.00    +0.000 A 
ATOM     30  F   UNL     1       5.040  15.304  19.322  0.00  0.00    +0.000 F 
ATOM     31  C   UNL     1       3.269  14.341  18.099  0.00  0.00    +0.000 A 
ATOM     32  C   UNL     1       2.059  13.645  18.088  0.00  0.00    +0.000 A 
ENDBRANCH  25  26
ENDBRANCH  10  25
TORSDOF 3
ENDMDL
MODEL 8
REMARK VINA RESULT:      -9.1      4.360      8.992
REMARK  Name = 
REMARK  4 active torsions:
REMARK  status: ('A' for Active; 'I' for Inactive)
REMARK    1  A    between atoms: C_1  and  N_2
REMARK    2  A    between atoms: C_4  and  C_5
REMARK    3  A    between atoms: C_14  and  C_16
REMARK    4  A    between atoms: C_16  and  C_17
REMARK                            x       y       z     vdW  Elec       q    Type
REMARK                         _______ _______ _______ _____ _____    ______ ____
ROOT
ATOM      1  C   UNL     1       1.906   8.005  19.253  0.00  0.00    +0.000 A 
ATOM      2  C   UNL     1       1.138   8.949  18.558  0.00  0.00    +0.000 A 
ATOM      3  C   UNL     1       0.386   9.919  19.223  0.00  0.00    +0.000 A 
ATOM      4  C   UNL     1       0.330   9.897  20.600  0.00  0.00    +0.000 A 
ATOM      5  C   UNL     1       1.046   8.924  21.303  0.00  0.00    +0.000 A 
ATOM      6  C   UNL     1       1.855   7.996  20.653  0.00  0.00    +0.000 A 
ATOM      7  C   UNL     1       0.833   9.045  22.778  0.00  0.00    +0.000 C 
ATOM      8  C   UNL     1      -0.283  10.088  22.839  0.00  0.00    +0.000 C 
ATOM      9  N   UNL     1      -0.401  10.692  21.501  0.00  0.00    +0.000 N 
ATOM     10  C   UNL     1      -1.246  11.767  21.320  0.00  0.00    +0.000 C 
ATOM     11  O   UNL     1      -1.906  12.211  22.269  0.00  0.00    +0.000 OA
ENDROOT
BRANCH   1  15
ATOM     12  C   UNL     1       5.317   6.296  16.106  0.00  0.00    +0.000 C 
ATOM     13  N   UNL     1       4.266   6.306  17.095  0.00  0.00    +0.000 N 
ATOM     14  C   UNL     1       3.626   7.425  17.556  0.00  0.00    +0.000 A 
ATOM     15  C   UNL     1       2.704   7.034  18.512  0.00  0.00    +0.000 A 
ATOM     16  C   UNL     1       2.793   5.599  18.622  0.00  0.00    +0.000 A 
ATOM     17  C   UNL     1       2.178   4.568  19.362  0.00  0.00    +0.000 A 
ATOM     18  N   UNL     1       1.140   4.740  20.270  0.00  0.00    +0.000 N 
ATOM     19  N   UNL     1       2.592   3.297  19.185  0.00  0.00    +0.000 NA
ATOM     20  C   UNL     1       3.571   3.059  18.296  0.00  0.00    +0.000 A 
ATOM     21  N   UNL     1       4.216   3.942  17.520  0.00  0.00    +0.000 NA
ATOM     22  C   UNL     1       3.782   5.197  17.732  0.00  0.00    +0.000 A 
ATOM     23  H   UNL     1       0.499   5.482  20.023  0.00  0.00    +0.000 HD
ATOM     24  H   UNL     1       0.717   3.844  20.488  0.00  0.00    +0.000 HD
ENDBRANCH   1  15
BRANCH  10  25
ATOM     25  C   UNL     1      -1.377  12.435  19.965  0.00  0.00    +0.000 C 
BRANCH  25  26
ATOM     26  C   UNL     1      -2.646  12.138  19.189  0.00  0.00    +0.000 A 
ATOM     27  C   UNL     1      -2.644  11.537  17.919  0.00  0.00    +0.000 A 
ATOM     28  C   UNL     1      -3.841  11.322  17.231  0.00  0.00    +0.000 A 
ATOM     29  C   UNL     1      -5.044  11.696  17.813  0.00  0.00    +0.000 A 
ATOM     30  F   UNL     1      -6.190  11.490  17.151  0.00  0.00    +0.000 F 
ATOM     31  C   UNL     1      -5.076  12.281  19.072  0.00  0.00    +0.000 A 
ATOM     32  C   UNL     1      -3.881  12.501  19.759  0.00  0.00    +0.000 A 
ENDBRANCH  25  26
ENDBRANCH  10  25
TORSDOF 3
ENDMDL
MODEL 9
REMARK VINA RESULT:      -9.1      3.584      7.945
REMARK  Name = 
REMARK  4 active torsions:
REMARK  status: ('A' for Active; 'I' for Inactive)
REMARK    1  A    between atoms: C_1  and  N_2
REMARK    2  A    between atoms: C_4  and  C_5
REMARK    3  A    between atoms: C_14  and  C_16
REMARK    4  A    between atoms: C_16  and  C_17
REMARK                            x       y       z     vdW  Elec       q    Type
REMARK                         _______ _______ _______ _____ _____    ______ ____
ROOT
ATOM      1  C   UNL     1       2.333   7.111  18.744  0.00  0.00    +0.000 A 
ATOM      2  C   UNL     1       2.038   8.167  17.873  0.00  0.00    +0.000 A 
ATOM      3  C   UNL     1       1.536   9.385  18.336  0.00  0.00    +0.000 A 
ATOM      4  C   UNL     1       1.244   9.523  19.677  0.00  0.00    +0.000 A 
ATOM      5  C   UNL     1       1.480   8.455  20.547  0.00  0.00    +0.000 A 
ATOM      6  C   UNL     1       2.046   7.262  20.107  0.00  0.00    +0.000 A 
ATOM      7  C   UNL     1       1.072   8.787  21.947  0.00  0.00    +0.000 C 
ATOM      8  C   UNL     1       0.355  10.122  21.745  0.00  0.00    +0.000 C 
ATOM      9  N   UNL     1       0.665  10.592  20.384  0.00  0.00    +0.000 N 
ATOM     10  C   UNL     1       0.253  11.850  19.996  0.00  0.00    +0.000 C 
ATOM     11  O   UNL     1      -0.380  12.570  20.779  0.00  0.00    +0.000 OA
ENDROOT
BRANCH   1  15
ATOM     12  C   UNL     1       2.564   2.330  17.496  0.00  0.00    +0.000 C 
ATOM     13  N   UNL     1       2.947   3.712  17.652  0.00  0.00    +0.000 N 
ATOM     14  C   UNL     1       2.211   4.669  18.297  0.00  0.00    +0.000 A 
ATOM     15  C   UNL     1       2.892   5.871  18.215  0.00  0.00    +0.000 A 
ATOM     16  C   UNL     1       4.109   5.616  17.485  0.00  0.00    +0.000 A 
ATOM     17  C   UNL     1       5.235   6.342  17.046  0.00  0.00    +0.000 A 
ATOM     18  N   UNL     1       5.477   7.686  17.307  0.00  0.00    +0.000 N 
ATOM     19  N   UNL     1       6.184   5.710  16.327  0.00  0.00    +0.000 NA
ATOM     20  C   UNL     1       6.026   4.401  16.065  0.00  0.00    +0.000 A 
ATOM     21  N   UNL     1       5.020   3.599  16.443  0.00  0.00    +0.000 NA
ATOM     22  C   UNL     1       4.091   4.267  17.148  0.00  0.00    +0.000 A 
ATOM     23  H   UNL     1       5.138   7.994  18.209  0.00  0.00    +0.000 HD
ATOM     24  H   UNL     1       6.443   7.912  17.097  0.00  0.00    +0.000 HD
ENDBRANCH   1  15
BRANCH  10  25
ATOM     25  C   UNL     1       0.574  12.383  18.613  0.00  0.00    +0.000 C 
BRANCH  25  26
ATOM     26  C   UNL     1       1.515  13.572  18.552  0.00  0.00    +0.000 A 
ATOM     27  C   UNL     1       1.086  14.897  18.736  0.00  0.00    +0.000 A 
ATOM     28  C   UNL     1       1.989  15.958  18.630  0.00  0.00    +0.000 A 
ATOM     29  C   UNL     1       3.324  15.699  18.353  0.00  0.00    +0.000 A 
ATOM     30  F   UNL     1       4.187  16.718  18.252  0.00  0.00    +0.000 F 
ATOM     31  C   UNL     1       3.776  14.398  18.179  0.00  0.00    +0.000 A 
ATOM     32  C   UNL     1       2.875  13.336  18.279  0.00  0.00    +0.000 A 
ENDBRANCH  25  26
ENDBRANCH  10  25
TORSDOF 3
ENDMDL
