MODEL 1
REMARK VINA RESULT:      -7.1      0.000      0.000
REMARK  Name = 
REMARK  9 active torsions:
REMARK  status: ('A' for Active; 'I' for Inactive)
REMARK    1  A    between atoms: C_1  and  O_2
REMARK    2  A    between atoms: O_2  and  C_3
REMARK    3  A    between atoms: C_11  and  C_12
REMARK    4  A    between atoms: N_14  and  C_15
REMARK    5  A    between atoms: C_15  and  C_16
REMARK    6  A    between atoms: C_16  and  N_17
REMARK    7  A    between atoms: N_17  and  C_18
REMARK    8  A    between atoms: N_17  and  C_19
REMARK    9  A    between atoms: N_27  and  C_28
REMARK                            x       y       z     vdW  Elec       q    Type
REMARK                         _______ _______ _______ _____ _____    ______ ____
ROOT
ATOM      1  C   UNL     1       2.545   3.817  20.315  0.00  0.00    +0.000 A 
ATOM      2  C   UNL     1       3.193   3.775  19.084  0.00  0.00    +0.000 A 
ATOM      3  C   UNL     1       3.330   4.924  18.295  0.00  0.00    +0.000 A 
ATOM      4  C   UNL     1       2.798   6.131  18.779  0.00  0.00    +0.000 A 
ATOM      5  C   UNL     1       2.152   6.195  20.002  0.00  0.00    +0.000 A 
ATOM      6  C   UNL     1       2.023   5.025  20.782  0.00  0.00    +0.000 A 
ATOM      7  C   UNL     1       1.737   7.540  20.190  0.00  0.00    +0.000 A 
ATOM      8  C   UNL     1       1.045   8.139  21.251  0.00  0.00    +0.000 A 
ATOM      9  C   UNL     1       0.737   9.505  21.235  0.00  0.00    +0.000 A 
ATOM     10  C   UNL     1       1.109  10.311  20.159  0.00  0.00    +0.000 A 
ATOM     11  N   UNL     1       0.800  11.632  20.165  0.00  0.00    +0.000 NA
ATOM     12  C   UNL     1       1.159  12.419  19.133  0.00  0.00    +0.000 A 
ATOM     13  C   UNL     1       1.835  11.951  18.037  0.00  0.00    +0.000 A 
ATOM     14  C   UNL     1       2.162  10.599  18.002  0.00  0.00    +0.000 A 
ATOM     15  C   UNL     1       1.814   9.728  19.060  0.00  0.00    +0.000 A 
ATOM     16  C   UNL     1       2.131   8.312  19.085  0.00  0.00    +0.000 A 
ATOM     17  N   UNL     1       2.779   7.414  18.237  0.00  0.00    +0.000 N 
ATOM     18  C   UNL     1       3.397   7.631  16.948  0.00  0.00    +0.000 C 
ENDROOT
BRANCH   9  19
ATOM     19  C   UNL     1       0.001  10.001  22.446  0.00  0.00    +0.000 C 
ATOM     20  O   UNL     1       0.355   9.646  23.569  0.00  0.00    +0.000 OA
ATOM     21  N   UNL     1      -1.053  10.858  22.258  0.00  0.00    +0.000 N 
ATOM     22  H   UNL     1      -1.370  11.032  21.303  0.00  0.00    +0.000 HD
BRANCH  21  23
ATOM     23  C   UNL     1      -1.864  11.343  23.352  0.00  0.00    +0.000 C 
BRANCH  23  24
ATOM     24  C   UNL     1      -2.827  12.456  22.905  0.00  0.00    +0.000 C 
BRANCH  24  25
ATOM     25  N   UNL     1      -4.249  12.242  23.261  0.00  0.00    +0.000 NA
ATOM     26  C   UNL     1      -4.488  12.460  24.689  0.00  0.00    +0.000 C 
ATOM     27  C   UNL     1      -5.090  13.149  22.475  0.00  0.00    +0.000 C 
ENDBRANCH  24  25
ENDBRANCH  23  24
ENDBRANCH  21  23
ENDBRANCH   9  19
BRANCH   1  29
ATOM     28  C   UNL     1       1.386   2.458  21.878  0.00  0.00    +0.000 C 
ATOM     29  O   UNL     1       2.483   2.623  20.986  0.00  0.00    +0.000 OA
ENDBRANCH   1  29
TORSDOF 5
ENDMDL
MODEL 2
REMARK VINA RESULT:      -7.0      2.886      4.755
REMARK  Name = 
REMARK  9 active torsions:
REMARK  status: ('A' for Active; 'I' for Inactive)
REMARK    1  A    between atoms: C_1  and  O_2
REMARK    2  A    between atoms: O_2  and  C_3
REMARK    3  A    between atoms: C_11  and  C_12
REMARK    4  A    between atoms: N_14  and  C_15
REMARK    5  A    between atoms: C_15  and  C_16
REMARK    6  A    between atoms: C_16  and  N_17
REMARK    7  A    between atoms: N_17  and  C_18
REMARK    8  A    between atoms: N_17  and  C_19
REMARK    9  A    between atoms: N_27  and  C_28
REMARK                            x       y       z     vdW  Elec       q    Type
REMARK                         _______ _______ _______ _____ _____    ______ ____
ROOT
ATOM      1  C   UNL     1       4.890   5.983  16.341  0.00  0.00    +0.000 A 
ATOM      2  C   UNL     1       4.770   4.824  17.103  0.00  0.00    +0.000 A 
ATOM      3  C   UNL     1       3.977   4.791  18.256  0.00  0.00    +0.000 A 
ATOM      4  C   UNL     1       3.295   5.961  18.628  0.00  0.00    +0.000 A 
ATOM      5  C   UNL     1       3.398   7.123  17.882  0.00  0.00    +0.000 A 
ATOM      6  C   UNL     1       4.205   7.137  16.724  0.00  0.00    +0.000 A 
ATOM      7  C   UNL     1       2.598   8.108  18.522  0.00  0.00    +0.000 A 
ATOM      8  C   UNL     1       2.358   9.447  18.184  0.00  0.00    +0.000 A 
ATOM      9  C   UNL     1       1.518  10.250  18.964  0.00  0.00    +0.000 A 
ATOM     10  C   UNL     1       0.896   9.743  20.104  0.00  0.00    +0.000 A 
ATOM     11  N   UNL     1       0.086  10.541  20.846  0.00  0.00    +0.000 NA
ATOM     12  C   UNL     1      -0.522  10.058  21.945  0.00  0.00    +0.000 A 
ATOM     13  C   UNL     1      -0.364   8.768  22.381  0.00  0.00    +0.000 A 
ATOM     14  C   UNL     1       0.464   7.929  21.642  0.00  0.00    +0.000 A 
ATOM     15  C   UNL     1       1.124   8.381  20.477  0.00  0.00    +0.000 A 
ATOM     16  C   UNL     1       1.994   7.554  19.663  0.00  0.00    +0.000 A 
ATOM     17  N   UNL     1       2.444   6.234  19.697  0.00  0.00    +0.000 N 
ATOM     18  C   UNL     1       2.159   5.177  20.642  0.00  0.00    +0.000 C 
ENDROOT
BRANCH   9  19
ATOM     19  C   UNL     1       1.352  11.658  18.469  0.00  0.00    +0.000 C 
ATOM     20  O   UNL     1       2.329  12.285  18.061  0.00  0.00    +0.000 OA
ATOM     21  N   UNL     1       0.095  12.205  18.477  0.00  0.00    +0.000 N 
ATOM     22  H   UNL     1      -0.657  11.680  18.926  0.00  0.00    +0.000 HD
BRANCH  21  23
ATOM     23  C   UNL     1      -0.161  13.571  18.080  0.00  0.00    +0.000 C 
BRANCH  23  24
ATOM     24  C   UNL     1      -0.458  14.476  19.288  0.00  0.00    +0.000 C 
BRANCH  24  25
ATOM     25  N   UNL     1       0.197  15.804  19.258  0.00  0.00    +0.000 NA
ATOM     26  C   UNL     1       0.210  16.431  20.581  0.00  0.00    +0.000 C 
ATOM     27  C   UNL     1       1.570  15.661  18.766  0.00  0.00    +0.000 C 
ENDBRANCH  24  25
ENDBRANCH  23  24
ENDBRANCH  21  23
ENDBRANCH   9  19
BRANCH   1  29
ATOM     28  C   UNL     1       6.774   4.951  15.330  0.00  0.00    +0.000 C 
ATOM     29  O   UNL     1       5.697   5.878  15.237  0.00  0.00    +0.000 OA
ENDBRANCH   1  29
TORSDOF 5
ENDMDL
MODEL 3
REMARK VINA RESULT:      -6.9      3.575      9.637
REMARK  Name = 
REMARK  9 active torsions:
REMARK  status: ('A' for Active; 'I' for Inactive)
REMARK    1  A    between atoms: C_1  and  O_2
REMARK    2  A    between atoms: O_2  and  C_3
REMARK    3  A    between atoms: C_11  and  C_12
REMARK    4  A    between atoms: N_14  and  C_15
REMARK    5  A    between atoms: C_15  and  C_16
REMARK    6  A    between atoms: C_16  and  N_17
REMARK    7  A    between atoms: N_17  and  C_18
REMARK    8  A    between atoms: N_17  and  C_19
REMARK    9  A    between atoms: N_27  and  C_28
REMARK                            x       y       z     vdW  Elec       q    Type
REMARK                         _______ _______ _______ _____ _____    ______ ____
ROOT
ATOM      1  C   UNL     1       1.132  11.608  18.679  0.00  0.00    +0.000 A 
ATOM      2  C   UNL     1       0.396  11.404  19.842  0.00  0.00    +0.000 A 
ATOM      3  C   UNL     1       0.409  10.170  20.504  0.00  0.00    +0.000 A 
ATOM      4  C   UNL     1       1.192   9.135  19.967  0.00  0.00    +0.000 A 
ATOM      5  C   UNL     1       1.933   9.317  18.812  0.00  0.00    +0.000 A 
ATOM      6  C   UNL     1       1.905  10.568  18.158  0.00  0.00    +0.000 A 
ATOM      7  C   UNL     1       2.599   8.092  18.540  0.00  0.00    +0.000 A 
ATOM      8  C   UNL     1       3.466   7.739  17.497  0.00  0.00    +0.000 A 
ATOM      9  C   UNL     1       4.023   6.456  17.422  0.00  0.00    +0.000 A 
ATOM     10  C   UNL     1       3.729   5.490  18.383  0.00  0.00    +0.000 A 
ATOM     11  N   UNL     1       4.280   4.253  18.290  0.00  0.00    +0.000 NA
ATOM     12  C   UNL     1       4.007   3.315  19.215  0.00  0.00    +0.000 A 
ATOM     13  C   UNL     1       3.172   3.538  20.280  0.00  0.00    +0.000 A 
ATOM     14  C   UNL     1       2.590   4.796  20.399  0.00  0.00    +0.000 A 
ATOM     15  C   UNL     1       2.846   5.819  19.458  0.00  0.00    +0.000 A 
ATOM     16  C   UNL     1       2.274   7.151  19.530  0.00  0.00    +0.000 A 
ATOM     17  N   UNL     1       1.407   7.825  20.390  0.00  0.00    +0.000 N 
ATOM     18  C   UNL     1       0.744   7.368  21.591  0.00  0.00    +0.000 C 
ENDROOT
BRANCH   9  19
ATOM     19  C   UNL     1       4.938   6.233  16.252  0.00  0.00    +0.000 C 
ATOM     20  O   UNL     1       4.969   7.047  15.331  0.00  0.00    +0.000 OA
ATOM     21  N   UNL     1       5.731   5.115  16.255  0.00  0.00    +0.000 N 
ATOM     22  H   UNL     1       5.585   4.420  16.989  0.00  0.00    +0.000 HD
BRANCH  21  23
ATOM     23  C   UNL     1       6.600   4.776  15.150  0.00  0.00    +0.000 C 
BRANCH  23  24
ATOM     24  C   UNL     1       5.850   4.022  14.039  0.00  0.00    +0.000 C 
BRANCH  24  25
ATOM     25  N   UNL     1       6.687   3.584  12.897  0.00  0.00    +0.000 NA
ATOM     26  C   UNL     1       5.892   2.907  11.871  0.00  0.00    +0.000 C 
ATOM     27  C   UNL     1       7.360   4.747  12.312  0.00  0.00    +0.000 C 
ENDBRANCH  24  25
ENDBRANCH  23  24
ENDBRANCH  21  23
ENDBRANCH   9  19
BRANCH   1  29
ATOM     28  C   UNL     1      -0.221  13.519  18.293  0.00  0.00    +0.000 C 
ATOM     29  O   UNL     1       1.032  12.862  18.133  0.00  0.00    +0.000 OA
ENDBRANCH   1  29
TORSDOF 5
ENDMDL
MODEL 4
REMARK VINA RESULT:      -6.9      3.168      9.108
REMARK  Name = 
REMARK  9 active torsions:
REMARK  status: ('A' for Active; 'I' for Inactive)
REMARK    1  A    between atoms: C_1  and  O_2
REMARK    2  A    between atoms: O_2  and  C_3
REMARK    3  A    between atoms: C_11  and  C_12
REMARK    4  A    between atoms: N_14  and  C_15
REMARK    5  A    between atoms: C_15  and  C_16
REMARK    6  A    between atoms: C_16  and  N_17
REMARK    7  A    between atoms: N_17  and  C_18
REMARK    8  A    between atoms: N_17  and  C_19
REMARK    9  A    between atoms: N_27  and  C_28
REMARK                            x       y       z     vdW  Elec       q    Type
REMARK                         _______ _______ _______ _____ _____    ______ ____
ROOT
ATOM      1  C   UNL     1       0.765  12.363  18.745  0.00  0.00    +0.000 A 
ATOM      2  C   UNL     1      -0.171  12.213  19.763  0.00  0.00    +0.000 A 
ATOM      3  C   UNL     1      -0.322  10.996  20.439  0.00  0.00    +0.000 A 
ATOM      4  C   UNL     1       0.504   9.922  20.067  0.00  0.00    +0.000 A 
ATOM      5  C   UNL     1       1.444  10.051  19.059  0.00  0.00    +0.000 A 
ATOM      6  C   UNL     1       1.578  11.286  18.388  0.00  0.00    +0.000 A 
ATOM      7  C   UNL     1       2.101   8.798  18.932  0.00  0.00    +0.000 A 
ATOM      8  C   UNL     1       3.124   8.391  18.065  0.00  0.00    +0.000 A 
ATOM      9  C   UNL     1       3.637   7.089  18.113  0.00  0.00    +0.000 A 
ATOM     10  C   UNL     1       3.143   6.156  19.024  0.00  0.00    +0.000 A 
ATOM     11  N   UNL     1       3.655   4.900  19.052  0.00  0.00    +0.000 NA
ATOM     12  C   UNL     1       3.188   3.995  19.931  0.00  0.00    +0.000 A 
ATOM     13  C   UNL     1       2.187   4.271  20.827  0.00  0.00    +0.000 A 
ATOM     14  C   UNL     1       1.641   5.550  20.818  0.00  0.00    +0.000 A 
ATOM     15  C   UNL     1       2.097   6.541  19.919  0.00  0.00    +0.000 A 
ATOM     16  C   UNL     1       1.572   7.892  19.865  0.00  0.00    +0.000 A 
ATOM     17  N   UNL     1       0.592   8.616  20.546  0.00  0.00    +0.000 N 
ATOM     18  C   UNL     1      -0.289   8.211  21.618  0.00  0.00    +0.000 C 
ENDROOT
BRANCH   9  19
ATOM     19  C   UNL     1       4.736   6.806  17.128  0.00  0.00    +0.000 C 
ATOM     20  O   UNL     1       4.518   6.900  15.921  0.00  0.00    +0.000 OA
ATOM     21  N   UNL     1       5.969   6.457  17.615  0.00  0.00    +0.000 N 
ATOM     22  H   UNL     1       6.062   6.289  18.618  0.00  0.00    +0.000 HD
BRANCH  21  23
ATOM     23  C   UNL     1       7.074   6.106  16.752  0.00  0.00    +0.000 C 
BRANCH  23  24
ATOM     24  C   UNL     1       7.319   4.588  16.721  0.00  0.00    +0.000 C 
BRANCH  24  25
ATOM     25  N   UNL     1       6.791   3.887  15.528  0.00  0.00    +0.000 NA
ATOM     26  C   UNL     1       5.410   3.443  15.727  0.00  0.00    +0.000 C 
ATOM     27  C   UNL     1       6.860   4.779  14.367  0.00  0.00    +0.000 C 
ENDBRANCH  24  25
ENDBRANCH  23  24
ENDBRANCH  21  23
ENDBRANCH   9  19
BRANCH   1  29
ATOM     28  C   UNL     1       0.463  14.703  19.008  0.00  0.00    +0.000 C 
ATOM     29  O   UNL     1       0.810  13.607  18.168  0.00  0.00    +0.000 OA
ENDBRANCH   1  29
TORSDOF 5
ENDMDL
MODEL 5
REMARK VINA RESULT:      -6.6      2.079      7.786
REMARK  Name = 
REMARK  9 active torsions:
REMARK  status: ('A' for Active; 'I' for Inactive)
REMARK    1  A    between atoms: C_1  and  O_2
REMARK    2  A    between atoms: O_2  and  C_3
REMARK    3  A    between atoms: C_11  and  C_12
REMARK    4  A    between atoms: N_14  and  C_15
REMARK    5  A    between atoms: C_15  and  C_16
REMARK    6  A    between atoms: C_16  and  N_17
REMARK    7  A    between atoms: N_17  and  C_18
REMARK    8  A    between atoms: N_17  and  C_19
REMARK    9  A    between atoms: N_27  and  C_28
REMARK                            x       y       z     vdW  Elec       q    Type
REMARK                         _______ _______ _______ _____ _____    ______ ____
ROOT
ATOM      1  C   UNL     1      -1.088  11.071  22.444  0.00  0.00    +0.000 A 
ATOM      2  C   UNL     1      -0.801  12.161  21.628  0.00  0.00    +0.000 A 
ATOM      3  C   UNL     1       0.046  12.036  20.520  0.00  0.00    +0.000 A 
ATOM      4  C   UNL     1       0.600  10.775  20.245  0.00  0.00    +0.000 A 
ATOM      5  C   UNL     1       0.324   9.678  21.042  0.00  0.00    +0.000 A 
ATOM      6  C   UNL     1      -0.531   9.825  22.156  0.00  0.00    +0.000 A 
ATOM      7  C   UNL     1       1.033   8.573  20.499  0.00  0.00    +0.000 A 
ATOM      8  C   UNL     1       1.102   7.238  20.923  0.00  0.00    +0.000 A 
ATOM      9  C   UNL     1       1.871   6.298  20.226  0.00  0.00    +0.000 A 
ATOM     10  C   UNL     1       2.593   6.661  19.090  0.00  0.00    +0.000 A 
ATOM     11  N   UNL     1       3.331   5.732  18.432  0.00  0.00    +0.000 NA
ATOM     12  C   UNL     1       4.028   6.072  17.331  0.00  0.00    +0.000 A 
ATOM     13  C   UNL     1       4.043   7.345  16.821  0.00  0.00    +0.000 A 
ATOM     14  C   UNL     1       3.299   8.319  17.478  0.00  0.00    +0.000 A 
ATOM     15  C   UNL     1       2.545   8.016  18.636  0.00  0.00    +0.000 A 
ATOM     16  C   UNL     1       1.745   8.984  19.361  0.00  0.00    +0.000 A 
ATOM     17  N   UNL     1       1.457  10.344  19.234  0.00  0.00    +0.000 N 
ATOM     18  C   UNL     1       1.904  11.302  18.249  0.00  0.00    +0.000 C 
ENDROOT
BRANCH   9  19
ATOM     19  C   UNL     1       1.837   4.909  20.796  0.00  0.00    +0.000 C 
ATOM     20  O   UNL     1       2.412   4.665  21.856  0.00  0.00    +0.000 OA
ATOM     21  N   UNL     1       1.147   3.943  20.111  0.00  0.00    +0.000 N 
ATOM     22  H   UNL     1       0.782   4.175  19.185  0.00  0.00    +0.000 HD
BRANCH  21  23
ATOM     23  C   UNL     1       1.106   2.564  20.542  0.00  0.00    +0.000 C 
BRANCH  23  24
ATOM     24  C   UNL     1       1.920   1.646  19.614  0.00  0.00    +0.000 C 
BRANCH  24  25
ATOM     25  N   UNL     1       3.204   2.210  19.137  0.00  0.00    +0.000 NA
ATOM     26  C   UNL     1       4.230   2.180  20.182  0.00  0.00    +0.000 C 
ATOM     27  C   UNL     1       3.666   1.453  17.970  0.00  0.00    +0.000 C 
ENDBRANCH  24  25
ENDBRANCH  23  24
ENDBRANCH  21  23
ENDBRANCH   9  19
BRANCH   1  29
ATOM     28  C   UNL     1      -2.692  12.533  23.407  0.00  0.00    +0.000 C 
ATOM     29  O   UNL     1      -1.933  11.331  23.494  0.00  0.00    +0.000 OA
ENDBRANCH   1  29
TORSDOF 5
ENDMDL
MODEL 6
REMARK VINA RESULT:      -6.6      2.787      4.963
REMARK  Name = 
REMARK  9 active torsions:
REMARK  status: ('A' for Active; 'I' for Inactive)
REMARK    1  A    between atoms: C_1  and  O_2
REMARK    2  A    between atoms: O_2  and  C_3
REMARK    3  A    between atoms: C_11  and  C_12
REMARK    4  A    between atoms: N_14  and  C_15
REMARK    5  A    between atoms: C_15  and  C_16
REMARK    6  A    between atoms: C_16  and  N_17
REMARK    7  A    between atoms: N_17  and  C_18
REMARK    8  A    between atoms: N_17  and  C_19
REMARK    9  A    between atoms: N_27  and  C_28
REMARK                            x       y       z     vdW  Elec       q    Type
REMARK                         _______ _______ _______ _____ _____    ______ ____
ROOT
ATOM      1  C   UNL     1       4.737   6.151  16.406  0.00  0.00    +0.000 A 
ATOM      2  C   UNL     1       4.571   4.985  17.148  0.00  0.00    +0.000 A 
ATOM      3  C   UNL     1       3.764   4.961  18.293  0.00  0.00    +0.000 A 
ATOM      4  C   UNL     1       3.117   6.147  18.676  0.00  0.00    +0.000 A 
ATOM      5  C   UNL     1       3.266   7.316  17.949  0.00  0.00    +0.000 A 
ATOM      6  C   UNL     1       4.086   7.321  16.800  0.00  0.00    +0.000 A 
ATOM      7  C   UNL     1       2.493   8.317  18.596  0.00  0.00    +0.000 A 
ATOM      8  C   UNL     1       2.300   9.668  18.276  0.00  0.00    +0.000 A 
ATOM      9  C   UNL     1       1.479  10.487  19.060  0.00  0.00    +0.000 A 
ATOM     10  C   UNL     1       0.828   9.983  20.186  0.00  0.00    +0.000 A 
ATOM     11  N   UNL     1       0.038  10.796  20.931  0.00  0.00    +0.000 NA
ATOM     12  C   UNL     1      -0.598  10.317  22.017  0.00  0.00    +0.000 A 
ATOM     13  C   UNL     1      -0.487   9.016  22.434  0.00  0.00    +0.000 A 
ATOM     14  C   UNL     1       0.320   8.161  21.691  0.00  0.00    +0.000 A 
ATOM     15  C   UNL     1       1.008   8.610  20.540  0.00  0.00    +0.000 A 
ATOM     16  C   UNL     1       1.859   7.766  19.722  0.00  0.00    +0.000 A 
ATOM     17  N   UNL     1       2.265   6.432  19.741  0.00  0.00    +0.000 N 
ATOM     18  C   UNL     1       1.935   5.371  20.666  0.00  0.00    +0.000 C 
ENDROOT
BRANCH   9  19
ATOM     19  C   UNL     1       1.365  11.907  18.585  0.00  0.00    +0.000 C 
ATOM     20  O   UNL     1       0.276  12.349  18.223  0.00  0.00    +0.000 OA
ATOM     21  N   UNL     1       2.496  12.682  18.581  0.00  0.00    +0.000 N 
ATOM     22  H   UNL     1       3.390  12.233  18.787  0.00  0.00    +0.000 HD
BRANCH  21  23
ATOM     23  C   UNL     1       2.506  14.040  18.085  0.00  0.00    +0.000 C 
BRANCH  23  24
ATOM     24  C   UNL     1       2.884  15.050  19.181  0.00  0.00    +0.000 C 
BRANCH  24  25
ATOM     25  N   UNL     1       1.742  15.739  19.825  0.00  0.00    +0.000 NA
ATOM     26  C   UNL     1       0.578  15.804  18.939  0.00  0.00    +0.000 C 
ATOM     27  C   UNL     1       1.382  15.037  21.061  0.00  0.00    +0.000 C 
ENDBRANCH  24  25
ENDBRANCH  23  24
ENDBRANCH  21  23
ENDBRANCH   9  19
BRANCH   1  29
ATOM     28  C   UNL     1       5.629   4.744  14.715  0.00  0.00    +0.000 C 
ATOM     29  O   UNL     1       5.552   6.036  15.308  0.00  0.00    +0.000 OA
ENDBRANCH   1  29
TORSDOF 5
ENDMDL
MODEL 7
REMARK VINA RESULT:      -6.2      3.222      8.791
REMARK  Name = 
REMARK  9 active torsions:
REMARK  status: ('A' for Active; 'I' for Inactive)
REMARK    1  A    between atoms: C_1  and  O_2
REMARK    2  A    between atoms: O_2  and  C_3
REMARK    3  A    between atoms: C_11  and  C_12
REMARK    4  A    between atoms: N_14  and  C_15
REMARK    5  A    between atoms: C_15  and  C_16
REMARK    6  A    between atoms: C_16  and  N_17
REMARK    7  A    between atoms: N_17  and  C_18
REMARK    8  A    between atoms: N_17  and  C_19
REMARK    9  A    between atoms: N_27  and  C_28
REMARK                            x       y       z     vdW  Elec       q    Type
REMARK                         _______ _______ _______ _____ _____    ______ ____
ROOT
ATOM      1  C   UNL     1      -1.422  14.657  23.882  0.00  0.00    +0.000 A 
ATOM      2  C   UNL     1      -2.727  15.123  23.748  0.00  0.00    +0.000 A 
ATOM      3  C   UNL     1      -3.538  14.717  22.682  0.00  0.00    +0.000 A 
ATOM      4  C   UNL     1      -3.004  13.819  21.744  0.00  0.00    +0.000 A 
ATOM      5  C   UNL     1      -1.710  13.341  21.860  0.00  0.00    +0.000 A 
ATOM      6  C   UNL     1      -0.907  13.764  22.942  0.00  0.00    +0.000 A 
ATOM      7  C   UNL     1      -1.483  12.466  20.764  0.00  0.00    +0.000 A 
ATOM      8  C   UNL     1      -0.346  11.727  20.408  0.00  0.00    +0.000 A 
ATOM      9  C   UNL     1      -0.340  10.911  19.271  0.00  0.00    +0.000 A 
ATOM     10  C   UNL     1      -1.467  10.811  18.454  0.00  0.00    +0.000 A 
ATOM     11  N   UNL     1      -1.437  10.014  17.356  0.00  0.00    +0.000 NA
ATOM     12  C   UNL     1      -2.521   9.907  16.565  0.00  0.00    +0.000 A 
ATOM     13  C   UNL     1      -3.690  10.582  16.804  0.00  0.00    +0.000 A 
ATOM     14  C   UNL     1      -3.747  11.410  17.921  0.00  0.00    +0.000 A 
ATOM     15  C   UNL     1      -2.640  11.555  18.789  0.00  0.00    +0.000 A 
ATOM     16  C   UNL     1      -2.640  12.397  19.970  0.00  0.00    +0.000 A 
ATOM     17  N   UNL     1      -3.554  13.241  20.601  0.00  0.00    +0.000 N 
ATOM     18  C   UNL     1      -4.915  13.572  20.245  0.00  0.00    +0.000 C 
ENDROOT
BRANCH   9  19
ATOM     19  C   UNL     1       0.946  10.176  19.028  0.00  0.00    +0.000 C 
ATOM     20  O   UNL     1       1.854  10.717  18.398  0.00  0.00    +0.000 OA
ATOM     21  N   UNL     1       1.074   8.908  19.533  0.00  0.00    +0.000 N 
ATOM     22  H   UNL     1       0.252   8.470  19.952  0.00  0.00    +0.000 HD
BRANCH  21  23
ATOM     23  C   UNL     1       2.246   8.094  19.302  0.00  0.00    +0.000 C 
BRANCH  23  24
ATOM     24  C   UNL     1       2.155   7.316  17.978  0.00  0.00    +0.000 C 
BRANCH  24  25
ATOM     25  N   UNL     1       2.762   5.966  17.996  0.00  0.00    +0.000 NA
ATOM     26  C   UNL     1       4.166   5.998  17.581  0.00  0.00    +0.000 C 
ATOM     27  C   UNL     1       2.660   5.402  19.345  0.00  0.00    +0.000 C 
ENDBRANCH  24  25
ENDBRANCH  23  24
ENDBRANCH  21  23
ENDBRANCH   9  19
BRANCH   1  29
ATOM     28  C   UNL     1      -1.533  15.586  26.063  0.00  0.00    +0.000 C 
ATOM     29  O   UNL     1      -0.739  15.132  24.972  0.00  0.00    +0.000 OA
ENDBRANCH   1  29
TORSDOF 5
ENDMDL
MODEL 8
REMARK VINA RESULT:      -6.2      3.277      9.078
REMARK  Name = 
REMARK  9 active torsions:
REMARK  status: ('A' for Active; 'I' for Inactive)
REMARK    1  A    between atoms: C_1  and  O_2
REMARK    2  A    between atoms: O_2  and  C_3
REMARK    3  A    between atoms: C_11  and  C_12
REMARK    4  A    between atoms: N_14  and  C_15
REMARK    5  A    between atoms: C_15  and  C_16
REMARK    6  A    between atoms: C_16  and  N_17
REMARK    7  A    between atoms: N_17  and  C_18
REMARK    8  A    between atoms: N_17  and  C_19
REMARK    9  A    between atoms: N_27  and  C_28
REMARK                            x       y       z     vdW  Elec       q    Type
REMARK                         _______ _______ _______ _____ _____    ______ ____
ROOT
ATOM      1  C   UNL     1       1.571  16.361  18.530  0.00  0.00    +0.000 A 
ATOM      2  C   UNL     1       0.973  16.998  19.613  0.00  0.00    +0.000 A 
ATOM      3  C   UNL     1       0.410  16.267  20.667  0.00  0.00    +0.000 A 
ATOM      4  C   UNL     1       0.467  14.865  20.608  0.00  0.00    +0.000 A 
ATOM      5  C   UNL     1       1.059  14.212  19.542  0.00  0.00    +0.000 A 
ATOM      6  C   UNL     1       1.619  14.967  18.488  0.00  0.00    +0.000 A 
ATOM      7  C   UNL     1       0.948  12.817  19.787  0.00  0.00    +0.000 A 
ATOM      8  C   UNL     1       1.377  11.721  19.025  0.00  0.00    +0.000 A 
ATOM      9  C   UNL     1       1.165  10.408  19.462  0.00  0.00    +0.000 A 
ATOM     10  C   UNL     1       0.518  10.151  20.671  0.00  0.00    +0.000 A 
ATOM     11  N   UNL     1       0.323   8.870  21.074  0.00  0.00    +0.000 NA
ATOM     12  C   UNL     1      -0.296   8.611  22.241  0.00  0.00    +0.000 A 
ATOM     13  C   UNL     1      -0.765   9.596  23.072  0.00  0.00    +0.000 A 
ATOM     14  C   UNL     1      -0.583  10.918  22.681  0.00  0.00    +0.000 A 
ATOM     15  C   UNL     1       0.065  11.247  21.468  0.00  0.00    +0.000 A 
ATOM     16  C   UNL     1       0.290  12.605  21.009  0.00  0.00    +0.000 A 
ATOM     17  N   UNL     1       0.008  13.885  21.487  0.00  0.00    +0.000 N 
ATOM     18  C   UNL     1      -0.657  14.300  22.702  0.00  0.00    +0.000 C 
ENDROOT
BRANCH   9  19
ATOM     19  C   UNL     1       1.690   9.343  18.542  0.00  0.00    +0.000 C 
ATOM     20  O   UNL     1       1.748   9.552  17.332  0.00  0.00    +0.000 OA
ATOM     21  N   UNL     1       2.103   8.158  19.092  0.00  0.00    +0.000 N 
ATOM     22  H   UNL     1       1.930   8.000  20.086  0.00  0.00    +0.000 HD
BRANCH  21  23
ATOM     23  C   UNL     1       2.565   7.048  18.289  0.00  0.00    +0.000 C 
BRANCH  23  24
ATOM     24  C   UNL     1       2.435   5.707  19.031  0.00  0.00    +0.000 C 
BRANCH  24  25
ATOM     25  N   UNL     1       3.551   4.757  18.818  0.00  0.00    +0.000 NA
ATOM     26  C   UNL     1       3.403   4.021  17.560  0.00  0.00    +0.000 C 
ATOM     27  C   UNL     1       4.821   5.488  18.815  0.00  0.00    +0.000 C 
ENDBRANCH  24  25
ENDBRANCH  23  24
ENDBRANCH  21  23
ENDBRANCH   9  19
BRANCH   1  29
ATOM     28  C   UNL     1       1.187  18.161  17.031  0.00  0.00    +0.000 C 
ATOM     29  O   UNL     1       2.084  17.194  17.569  0.00  0.00    +0.000 OA
ENDBRANCH   1  29
TORSDOF 5
ENDMDL
MODEL 9
REMARK VINA RESULT:      -6.1      5.210      9.424
REMARK  Name = 
REMARK  9 active torsions:
REMARK  status: ('A' for Active; 'I' for Inactive)
REMARK    1  A    between atoms: C_1  and  O_2
REMARK    2  A    between atoms: O_2  and  C_3
REMARK    3  A    between atoms: C_11  and  C_12
REMARK    4  A    between atoms: N_14  and  C_15
REMARK    5  A    between atoms: C_15  and  C_16
REMARK    6  A    between atoms: C_16  and  N_17
REMARK    7  A    between atoms: N_17  and  C_18
REMARK    8  A    between atoms: N_17  and  C_19
REMARK    9  A    between atoms: N_27  and  C_28
REMARK                            x       y       z     vdW  Elec       q    Type
REMARK                         _______ _______ _______ _____ _____    ______ ____
ROOT
ATOM      1  C   UNL     1      -5.982  14.373  22.819  0.00  0.00    +0.000 A 
ATOM      2  C   UNL     1      -7.236  14.273  22.223  0.00  0.00    +0.000 A 
ATOM      3  C   UNL     1      -7.398  13.680  20.965  0.00  0.00    +0.000 A 
ATOM      4  C   UNL     1      -6.259  13.179  20.314  0.00  0.00    +0.000 A 
ATOM      5  C   UNL     1      -5.003  13.266  20.890  0.00  0.00    +0.000 A 
ATOM      6  C   UNL     1      -4.860  13.870  22.159  0.00  0.00    +0.000 A 
ATOM      7  C   UNL     1      -4.081  12.676  19.984  0.00  0.00    +0.000 A 
ATOM      8  C   UNL     1      -2.693  12.509  20.078  0.00  0.00    +0.000 A 
ATOM      9  C   UNL     1      -1.969  11.886  19.054  0.00  0.00    +0.000 A 
ATOM     10  C   UNL     1      -2.608  11.416  17.907  0.00  0.00    +0.000 A 
ATOM     11  N   UNL     1      -1.885  10.816  16.928  0.00  0.00    +0.000 NA
ATOM     12  C   UNL     1      -2.494  10.354  15.820  0.00  0.00    +0.000 A 
ATOM     13  C   UNL     1      -3.844  10.462  15.609  0.00  0.00    +0.000 A 
ATOM     14  C   UNL     1      -4.609  11.076  16.595  0.00  0.00    +0.000 A 
ATOM     15  C   UNL     1      -4.023  11.575  17.781  0.00  0.00    +0.000 A 
ATOM     16  C   UNL     1      -4.767  12.219  18.847  0.00  0.00    +0.000 A 
ATOM     17  N   UNL     1      -6.103  12.545  19.083  0.00  0.00    +0.000 N 
ATOM     18  C   UNL     1      -7.274  12.322  18.266  0.00  0.00    +0.000 C 
ENDROOT
BRANCH   9  19
ATOM     19  C   UNL     1      -0.492  11.773  19.304  0.00  0.00    +0.000 C 
ATOM     20  O   UNL     1      -0.081  11.167  20.292  0.00  0.00    +0.000 OA
ATOM     21  N   UNL     1       0.364  12.348  18.401  0.00  0.00    +0.000 N 
ATOM     22  H   UNL     1      -0.033  12.930  17.662  0.00  0.00    +0.000 HD
BRANCH  21  23
ATOM     23  C   UNL     1       1.799  12.349  18.583  0.00  0.00    +0.000 C 
BRANCH  23  24
ATOM     24  C   UNL     1       2.303  13.675  19.176  0.00  0.00    +0.000 C 
BRANCH  24  25
ATOM     25  N   UNL     1       2.859  14.635  18.195  0.00  0.00    +0.000 NA
ATOM     26  C   UNL     1       2.432  16.007  18.477  0.00  0.00    +0.000 C 
ATOM     27  C   UNL     1       4.323  14.560  18.215  0.00  0.00    +0.000 C 
ENDBRANCH  24  25
ENDBRANCH  23  24
ENDBRANCH  21  23
ENDBRANCH   9  19
BRANCH   1  29
ATOM     28  C   UNL     1      -5.478  16.311  24.093  0.00  0.00    +0.000 C 
ATOM     29  O   UNL     1      -5.965  14.974  24.052  0.00  0.00    +0.000 OA
ENDBRANCH   1  29
TORSDOF 5
ENDMDL
