MODEL 1
REMARK VINA RESULT:      -6.2      0.000      0.000
REMARK  Name = 
REMARK  8 active torsions:
REMARK  status: ('A' for Active; 'I' for Inactive)
REMARK    1  A    between atoms: C_1  and  C_2
REMARK    2  A    between atoms: C_4  and  C_5
REMARK    3  A    between atoms: C_8  and  N_9
REMARK    4  A    between atoms: C_12  and  O_13
REMARK    5  A    between atoms: C_12  and  C_14
REMARK    6  A    between atoms: C_14  and  N_15
REMARK    7  A    between atoms: N_15  and  C_16
REMARK    8  A    between atoms: N_15  and  C_17
REMARK                            x       y       z     vdW  Elec       q    Type
REMARK                         _______ _______ _______ _____ _____    ______ ____
ROOT
ATOM      1  N   UNL     1       5.213   4.726  17.950  0.00  0.00    +0.000 N 
ATOM      2  C   UNL     1       6.564   5.084  18.361  0.00  0.00    +0.000 C 
ATOM      3  C   UNL     1       6.969   6.031  17.236  0.00  0.00    +0.000 C 
ATOM      4  C   UNL     1       6.252   5.477  15.976  0.00  0.00    +0.000 C 
ATOM      5  C   UNL     1       5.310   4.364  16.523  0.00  0.00    +0.000 C 
ENDROOT
BRANCH   1  13
ATOM      6  C   UNL     1       4.998   1.225  21.226  0.00  0.00    +0.000 C 
ATOM      7  C   UNL     1       4.340   2.328  20.463  0.00  0.00    +0.000 A 
ATOM      8  N   UNL     1       3.084   2.642  20.811  0.00  0.00    +0.000 NA
ATOM      9  C   UNL     1       2.491   3.657  20.154  0.00  0.00    +0.000 A 
ATOM     10  C   UNL     1       1.127   4.039  20.656  0.00  0.00    +0.000 C 
ATOM     11  C   UNL     1       3.128   4.350  19.129  0.00  0.00    +0.000 A 
ATOM     12 BR   UNL     1       2.276   5.849  18.317  0.00  0.00    +0.000 Br
ATOM     13  C   UNL     1       4.446   3.973  18.827  0.00  0.00    +0.000 A 
ATOM     14  N   UNL     1       5.045   2.961  19.504  0.00  0.00    +0.000 NA
ENDBRANCH   1  13
BRANCH   4  15
ATOM     15  O   UNL     1       5.488   6.569  15.429  0.00  0.00    +0.000 OA
ATOM     16  H   UNL     1       5.933   7.386  15.722  0.00  0.00    +0.000 HD
ENDBRANCH   4  15
BRANCH   4  17
ATOM     17  C   UNL     1       7.287   4.975  14.938  0.00  0.00    +0.000 C 
BRANCH  17  18
ATOM     18  N   UNL     1       6.953   5.093  13.498  0.00  0.00    +0.000 NA
ATOM     19  C   UNL     1       8.129   5.451  12.696  0.00  0.00    +0.000 C 
ATOM     20  C   UNL     1       6.419   3.809  13.024  0.00  0.00    +0.000 C 
ENDBRANCH  17  18
ENDBRANCH   4  17
TORSDOF 4
ENDMDL
MODEL 2
REMARK VINA RESULT:      -6.2      2.297      6.404
REMARK  Name = 
REMARK  8 active torsions:
REMARK  status: ('A' for Active; 'I' for Inactive)
REMARK    1  A    between atoms: C_1  and  C_2
REMARK    2  A    between atoms: C_4  and  C_5
REMARK    3  A    between atoms: C_8  and  N_9
REMARK    4  A    between atoms: C_12  and  O_13
REMARK    5  A    between atoms: C_12  and  C_14
REMARK    6  A    between atoms: C_14  and  N_15
REMARK    7  A    between atoms: N_15  and  C_16
REMARK    8  A    between atoms: N_15  and  C_17
REMARK                            x       y       z     vdW  Elec       q    Type
REMARK                         _______ _______ _______ _____ _____    ______ ____
ROOT
ATOM      1  N   UNL     1       3.884   3.920  17.047  0.00  0.00    +0.000 N 
ATOM      2  C   UNL     1       3.851   2.568  17.588  0.00  0.00    +0.000 C 
ATOM      3  C   UNL     1       2.347   2.341  17.712  0.00  0.00    +0.000 C 
ATOM      4  C   UNL     1       1.764   3.739  18.054  0.00  0.00    +0.000 C 
ATOM      5  C   UNL     1       2.968   4.713  17.889  0.00  0.00    +0.000 C 
ENDROOT
BRANCH   1  13
ATOM      6  C   UNL     1       7.007   4.773  13.503  0.00  0.00    +0.000 C 
ATOM      7  C   UNL     1       6.602   4.911  14.935  0.00  0.00    +0.000 A 
ATOM      8  N   UNL     1       7.373   5.684  15.712  0.00  0.00    +0.000 NA
ATOM      9  C   UNL     1       7.000   5.843  16.996  0.00  0.00    +0.000 A 
ATOM     10  C   UNL     1       7.835   6.805  17.794  0.00  0.00    +0.000 C 
ATOM     11  C   UNL     1       5.876   5.216  17.527  0.00  0.00    +0.000 A 
ATOM     12 BR   UNL     1       5.340   5.573  19.320  0.00  0.00    +0.000 Br
ATOM     13  C   UNL     1       5.112   4.430  16.650  0.00  0.00    +0.000 A 
ATOM     14  N   UNL     1       5.482   4.287  15.352  0.00  0.00    +0.000 NA
ENDBRANCH   1  13
BRANCH   4  15
ATOM     15  O   UNL     1       0.751   4.010  17.067  0.00  0.00    +0.000 OA
ATOM     16  H   UNL     1       0.706   4.982  16.982  0.00  0.00    +0.000 HD
ENDBRANCH   4  15
BRANCH   4  17
ATOM     17  C   UNL     1       1.142   3.736  19.473  0.00  0.00    +0.000 C 
BRANCH  17  18
ATOM     18  N   UNL     1       2.051   3.619  20.639  0.00  0.00    +0.000 NA
ATOM     19  C   UNL     1       2.199   4.899  21.341  0.00  0.00    +0.000 C 
ATOM     20  C   UNL     1       1.510   2.619  21.569  0.00  0.00    +0.000 C 
ENDBRANCH  17  18
ENDBRANCH   4  17
TORSDOF 4
ENDMDL
MODEL 3
REMARK VINA RESULT:      -5.9      1.503      1.678
REMARK  Name = 
REMARK  8 active torsions:
REMARK  status: ('A' for Active; 'I' for Inactive)
REMARK    1  A    between atoms: C_1  and  C_2
REMARK    2  A    between atoms: C_4  and  C_5
REMARK    3  A    between atoms: C_8  and  N_9
REMARK    4  A    between atoms: C_12  and  O_13
REMARK    5  A    between atoms: C_12  and  C_14
REMARK    6  A    between atoms: C_14  and  N_15
REMARK    7  A    between atoms: N_15  and  C_16
REMARK    8  A    between atoms: N_15  and  C_17
REMARK                            x       y       z     vdW  Elec       q    Type
REMARK                         _______ _______ _______ _____ _____    ______ ____
ROOT
ATOM      1  N   UNL     1       4.669   5.114  17.866  0.00  0.00    +0.000 N 
ATOM      2  C   UNL     1       5.989   4.588  18.185  0.00  0.00    +0.000 C 
ATOM      3  C   UNL     1       6.789   5.058  16.974  0.00  0.00    +0.000 C 
ATOM      4  C   UNL     1       5.781   5.016  15.794  0.00  0.00    +0.000 C 
ATOM      5  C   UNL     1       4.407   4.724  16.467  0.00  0.00    +0.000 C 
ENDROOT
BRANCH   1  13
ATOM      6  C   UNL     1       2.717   2.619  21.473  0.00  0.00    +0.000 C 
ATOM      7  C   UNL     1       2.765   3.848  20.624  0.00  0.00    +0.000 A 
ATOM      8  N   UNL     1       1.958   4.860  20.973  0.00  0.00    +0.000 NA
ATOM      9  C   UNL     1       2.017   5.985  20.237  0.00  0.00    +0.000 A 
ATOM     10  C   UNL     1       1.173   7.125  20.735  0.00  0.00    +0.000 C 
ATOM     11  C   UNL     1       2.854   6.107  19.132  0.00  0.00    +0.000 A 
ATOM     12 BR   UNL     1       2.972   7.766  18.200  0.00  0.00    +0.000 Br
ATOM     13  C   UNL     1       3.678   5.012  18.833  0.00  0.00    +0.000 A 
ATOM     14  N   UNL     1       3.628   3.885  19.589  0.00  0.00    +0.000 NA
ENDBRANCH   1  13
BRANCH   4  15
ATOM     15  O   UNL     1       5.790   6.330  15.204  0.00  0.00    +0.000 OA
ATOM     16  H   UNL     1       5.932   6.957  15.938  0.00  0.00    +0.000 HD
ENDBRANCH   4  15
BRANCH   4  17
ATOM     17  C   UNL     1       6.211   3.957  14.749  0.00  0.00    +0.000 C 
BRANCH  17  18
ATOM     18  N   UNL     1       6.365   4.384  13.337  0.00  0.00    +0.000 NA
ATOM     19  C   UNL     1       7.717   4.889  13.069  0.00  0.00    +0.000 C 
ATOM     20  C   UNL     1       6.095   3.238  12.458  0.00  0.00    +0.000 C 
ENDBRANCH  17  18
ENDBRANCH   4  17
TORSDOF 4
ENDMDL
MODEL 4
REMARK VINA RESULT:      -5.9      1.860      2.539
REMARK  Name = 
REMARK  8 active torsions:
REMARK  status: ('A' for Active; 'I' for Inactive)
REMARK    1  A    between atoms: C_1  and  C_2
REMARK    2  A    between atoms: C_4  and  C_5
REMARK    3  A    between atoms: C_8  and  N_9
REMARK    4  A    between atoms: C_12  and  O_13
REMARK    5  A    between atoms: C_12  and  C_14
REMARK    6  A    between atoms: C_14  and  N_15
REMARK    7  A    between atoms: N_15  and  C_16
REMARK    8  A    between atoms: N_15  and  C_17
REMARK                            x       y       z     vdW  Elec       q    Type
REMARK                         _______ _______ _______ _____ _____    ______ ____
ROOT
ATOM      1  N   UNL     1       4.879   5.415  18.431  0.00  0.00    +0.000 N 
ATOM      2  C   UNL     1       6.080   4.754  18.924  0.00  0.00    +0.000 C 
ATOM      3  C   UNL     1       7.145   5.383  18.031  0.00  0.00    +0.000 C 
ATOM      4  C   UNL     1       6.431   5.622  16.673  0.00  0.00    +0.000 C 
ATOM      5  C   UNL     1       4.934   5.304  16.960  0.00  0.00    +0.000 C 
ENDROOT
BRANCH   1  13
ATOM      6  C   UNL     1       1.270   7.241  21.015  0.00  0.00    +0.000 C 
ATOM      7  C   UNL     1       1.906   6.086  20.312  0.00  0.00    +0.000 A 
ATOM      8  N   UNL     1       1.193   4.953  20.236  0.00  0.00    +0.000 NA
ATOM      9  C   UNL     1       1.740   3.916  19.575  0.00  0.00    +0.000 A 
ATOM     10  C   UNL     1       0.857   2.710  19.425  0.00  0.00    +0.000 C 
ATOM     11  C   UNL     1       3.010   3.983  19.009  0.00  0.00    +0.000 A 
ATOM     12 BR   UNL     1       3.681   2.518  17.991  0.00  0.00    +0.000 Br
ATOM     13  C   UNL     1       3.693   5.204  19.119  0.00  0.00    +0.000 A 
ATOM     14  N   UNL     1       3.129   6.253  19.771  0.00  0.00    +0.000 NA
ENDBRANCH   1  13
BRANCH   4  15
ATOM     15  O   UNL     1       6.605   7.019  16.362  0.00  0.00    +0.000 OA
ATOM     16  H   UNL     1       5.866   7.487  16.795  0.00  0.00    +0.000 HD
ENDBRANCH   4  15
BRANCH   4  17
ATOM     17  C   UNL     1       7.063   4.745  15.564  0.00  0.00    +0.000 C 
BRANCH  17  18
ATOM     18  N   UNL     1       6.702   5.026  14.153  0.00  0.00    +0.000 NA
ATOM     19  C   UNL     1       7.891   5.278  13.330  0.00  0.00    +0.000 C 
ATOM     20  C   UNL     1       5.973   3.874  13.607  0.00  0.00    +0.000 C 
ENDBRANCH  17  18
ENDBRANCH   4  17
TORSDOF 4
ENDMDL
MODEL 5
REMARK VINA RESULT:      -5.8      2.511      6.436
REMARK  Name = 
REMARK  8 active torsions:
REMARK  status: ('A' for Active; 'I' for Inactive)
REMARK    1  A    between atoms: C_1  and  C_2
REMARK    2  A    between atoms: C_4  and  C_5
REMARK    3  A    between atoms: C_8  and  N_9
REMARK    4  A    between atoms: C_12  and  O_13
REMARK    5  A    between atoms: C_12  and  C_14
REMARK    6  A    between atoms: C_14  and  N_15
REMARK    7  A    between atoms: N_15  and  C_16
REMARK    8  A    between atoms: N_15  and  C_17
REMARK                            x       y       z     vdW  Elec       q    Type
REMARK                         _______ _______ _______ _____ _____    ______ ____
ROOT
ATOM      1  N   UNL     1       3.978   4.381  16.992  0.00  0.00    +0.000 N 
ATOM      2  C   UNL     1       4.072   2.999  17.444  0.00  0.00    +0.000 C 
ATOM      3  C   UNL     1       2.596   2.630  17.558  0.00  0.00    +0.000 C 
ATOM      4  C   UNL     1       1.893   3.944  17.993  0.00  0.00    +0.000 C 
ATOM      5  C   UNL     1       3.003   5.032  17.888  0.00  0.00    +0.000 C 
ENDROOT
BRANCH   1  13
ATOM      6  C   UNL     1       7.832   6.922  18.309  0.00  0.00    +0.000 C 
ATOM      7  C   UNL     1       7.055   6.195  17.260  0.00  0.00    +0.000 A 
ATOM      8  N   UNL     1       7.638   6.056  16.060  0.00  0.00    +0.000 NA
ATOM      9  C   UNL     1       6.963   5.374  15.116  0.00  0.00    +0.000 A 
ATOM     10  C   UNL     1       7.705   5.152  13.828  0.00  0.00    +0.000 C 
ATOM     11  C   UNL     1       5.694   4.849  15.343  0.00  0.00    +0.000 A 
ATOM     12 BR   UNL     1       4.840   3.798  14.002  0.00  0.00    +0.000 Br
ATOM     13  C   UNL     1       5.152   5.025  16.626  0.00  0.00    +0.000 A 
ATOM     14  N   UNL     1       5.844   5.698  17.580  0.00  0.00    +0.000 NA
ENDBRANCH   1  13
BRANCH   4  15
ATOM     15  O   UNL     1       0.850   4.187  17.028  0.00  0.00    +0.000 OA
ATOM     16  H   UNL     1       1.204   3.897  16.166  0.00  0.00    +0.000 HD
ENDBRANCH   4  15
BRANCH   4  17
ATOM     17  C   UNL     1       1.287   3.794  19.410  0.00  0.00    +0.000 C 
BRANCH  17  18
ATOM     18  N   UNL     1       2.209   3.776  20.571  0.00  0.00    +0.000 NA
ATOM     19  C   UNL     1       2.242   5.073  21.258  0.00  0.00    +0.000 C 
ATOM     20  C   UNL     1       1.769   2.741  21.516  0.00  0.00    +0.000 C 
ENDBRANCH  17  18
ENDBRANCH   4  17
TORSDOF 4
ENDMDL
MODEL 6
REMARK VINA RESULT:      -5.8      2.494      3.552
REMARK  Name = 
REMARK  8 active torsions:
REMARK  status: ('A' for Active; 'I' for Inactive)
REMARK    1  A    between atoms: C_1  and  C_2
REMARK    2  A    between atoms: C_4  and  C_5
REMARK    3  A    between atoms: C_8  and  N_9
REMARK    4  A    between atoms: C_12  and  O_13
REMARK    5  A    between atoms: C_12  and  C_14
REMARK    6  A    between atoms: C_14  and  N_15
REMARK    7  A    between atoms: N_15  and  C_16
REMARK    8  A    between atoms: N_15  and  C_17
REMARK                            x       y       z     vdW  Elec       q    Type
REMARK                         _______ _______ _______ _____ _____    ______ ____
ROOT
ATOM      1  N   UNL     1       4.969   5.143  16.997  0.00  0.00    +0.000 N 
ATOM      2  C   UNL     1       4.496   3.898  16.409  0.00  0.00    +0.000 C 
ATOM      3  C   UNL     1       5.761   3.407  15.712  0.00  0.00    +0.000 C 
ATOM      4  C   UNL     1       6.487   4.700  15.254  0.00  0.00    +0.000 C 
ATOM      5  C   UNL     1       5.678   5.855  15.917  0.00  0.00    +0.000 C 
ENDROOT
BRANCH   1  13
ATOM      6  C   UNL     1       2.170   8.955  17.821  0.00  0.00    +0.000 C 
ATOM      7  C   UNL     1       2.705   7.625  18.241  0.00  0.00    +0.000 A 
ATOM      8  N   UNL     1       2.181   7.082  19.349  0.00  0.00    +0.000 NA
ATOM      9  C   UNL     1       2.630   5.868  19.720  0.00  0.00    +0.000 A 
ATOM     10  C   UNL     1       1.932   5.258  20.903  0.00  0.00    +0.000 C 
ATOM     11  C   UNL     1       3.622   5.195  19.013  0.00  0.00    +0.000 A 
ATOM     12 BR   UNL     1       4.132   3.432  19.526  0.00  0.00    +0.000 Br
ATOM     13  C   UNL     1       4.116   5.820  17.857  0.00  0.00    +0.000 A 
ATOM     14  N   UNL     1       3.647   7.036  17.478  0.00  0.00    +0.000 NA
ENDBRANCH   1  13
BRANCH   4  15
ATOM     15  O   UNL     1       7.819   4.634  15.797  0.00  0.00    +0.000 OA
ATOM     16  H   UNL     1       7.766   4.052  16.579  0.00  0.00    +0.000 HD
ENDBRANCH   4  15
BRANCH   4  17
ATOM     17  C   UNL     1       6.542   4.774  13.707  0.00  0.00    +0.000 C 
BRANCH  17  18
ATOM     18  N   UNL     1       6.197   3.558  12.932  0.00  0.00    +0.000 NA
ATOM     19  C   UNL     1       4.881   3.679  12.292  0.00  0.00    +0.000 C 
ATOM     20  C   UNL     1       7.218   3.343  11.898  0.00  0.00    +0.000 C 
ENDBRANCH  17  18
ENDBRANCH   4  17
TORSDOF 4
ENDMDL
MODEL 7
REMARK VINA RESULT:      -5.7      2.017      3.006
REMARK  Name = 
REMARK  8 active torsions:
REMARK  status: ('A' for Active; 'I' for Inactive)
REMARK    1  A    between atoms: C_1  and  C_2
REMARK    2  A    between atoms: C_4  and  C_5
REMARK    3  A    between atoms: C_8  and  N_9
REMARK    4  A    between atoms: C_12  and  O_13
REMARK    5  A    between atoms: C_12  and  C_14
REMARK    6  A    between atoms: C_14  and  N_15
REMARK    7  A    between atoms: N_15  and  C_16
REMARK    8  A    between atoms: N_15  and  C_17
REMARK                            x       y       z     vdW  Elec       q    Type
REMARK                         _______ _______ _______ _____ _____    ______ ____
ROOT
ATOM      1  N   UNL     1       4.883   4.613  17.821  0.00  0.00    +0.000 N 
ATOM      2  C   UNL     1       4.399   3.680  16.812  0.00  0.00    +0.000 C 
ATOM      3  C   UNL     1       5.681   3.405  16.032  0.00  0.00    +0.000 C 
ATOM      4  C   UNL     1       6.471   4.740  16.089  0.00  0.00    +0.000 C 
ATOM      5  C   UNL     1       5.669   5.625  17.089  0.00  0.00    +0.000 C 
ENDROOT
BRANCH   1  13
ATOM      6  C   UNL     1       1.871   7.883  19.632  0.00  0.00    +0.000 C 
ATOM      7  C   UNL     1       2.498   6.528  19.686  0.00  0.00    +0.000 A 
ATOM      8  N   UNL     1       2.036   5.681  20.617  0.00  0.00    +0.000 NA
ATOM      9  C   UNL     1       2.569   4.445  20.654  0.00  0.00    +0.000 A 
ATOM     10  C   UNL     1       1.940   3.503  21.641  0.00  0.00    +0.000 C 
ATOM     11  C   UNL     1       3.583   4.048  19.789  0.00  0.00    +0.000 A 
ATOM     12 BR   UNL     1       4.216   2.250  19.819  0.00  0.00    +0.000 Br
ATOM     13  C   UNL     1       4.010   4.984  18.834  0.00  0.00    +0.000 A 
ATOM     14  N   UNL     1       3.457   6.223  18.789  0.00  0.00    +0.000 NA
ENDBRANCH   1  13
BRANCH   4  15
ATOM     15  O   UNL     1       7.772   4.421  16.621  0.00  0.00    +0.000 OA
ATOM     16  H   UNL     1       7.854   4.921  17.455  0.00  0.00    +0.000 HD
ENDBRANCH   4  15
BRANCH   4  17
ATOM     17  C   UNL     1       6.608   5.352  14.672  0.00  0.00    +0.000 C 
BRANCH  17  18
ATOM     18  N   UNL     1       7.307   4.563  13.629  0.00  0.00    +0.000 NA
ATOM     19  C   UNL     1       6.362   3.819  12.788  0.00  0.00    +0.000 C 
ATOM     20  C   UNL     1       8.091   5.474  12.784  0.00  0.00    +0.000 C 
ENDBRANCH  17  18
ENDBRANCH   4  17
TORSDOF 4
ENDMDL
MODEL 8
REMARK VINA RESULT:      -5.7      2.406      6.468
REMARK  Name = 
REMARK  8 active torsions:
REMARK  status: ('A' for Active; 'I' for Inactive)
REMARK    1  A    between atoms: C_1  and  C_2
REMARK    2  A    between atoms: C_4  and  C_5
REMARK    3  A    between atoms: C_8  and  N_9
REMARK    4  A    between atoms: C_12  and  O_13
REMARK    5  A    between atoms: C_12  and  C_14
REMARK    6  A    between atoms: C_14  and  N_15
REMARK    7  A    between atoms: N_15  and  C_16
REMARK    8  A    between atoms: N_15  and  C_17
REMARK                            x       y       z     vdW  Elec       q    Type
REMARK                         _______ _______ _______ _____ _____    ______ ____
ROOT
ATOM      1  N   UNL     1       4.656   3.786  17.537  0.00  0.00    +0.000 N 
ATOM      2  C   UNL     1       4.980   3.171  18.817  0.00  0.00    +0.000 C 
ATOM      3  C   UNL     1       3.848   2.157  18.946  0.00  0.00    +0.000 C 
ATOM      4  C   UNL     1       2.630   2.836  18.263  0.00  0.00    +0.000 C 
ATOM      5  C   UNL     1       3.220   4.115  17.600  0.00  0.00    +0.000 C 
ENDROOT
BRANCH   1  13
ATOM      6  C   UNL     1       7.930   7.222  18.256  0.00  0.00    +0.000 C 
ATOM      7  C   UNL     1       7.206   6.295  17.336  0.00  0.00    +0.000 A 
ATOM      8  N   UNL     1       7.619   6.258  16.061  0.00  0.00    +0.000 NA
ATOM      9  C   UNL     1       6.997   5.402  15.229  0.00  0.00    +0.000 A 
ATOM     10  C   UNL     1       7.570   5.321  13.842  0.00  0.00    +0.000 C 
ATOM     11  C   UNL     1       5.942   4.596  15.646  0.00  0.00    +0.000 A 
ATOM     12 BR   UNL     1       5.179   3.325  14.448  0.00  0.00    +0.000 Br
ATOM     13  C   UNL     1       5.571   4.680  16.997  0.00  0.00    +0.000 A 
ATOM     14  N   UNL     1       6.213   5.533  17.836  0.00  0.00    +0.000 NA
ENDBRANCH   1  13
BRANCH   4  15
ATOM     15  O   UNL     1       2.158   1.914  17.261  0.00  0.00    +0.000 OA
ATOM     16  H   UNL     1       2.498   1.036  17.518  0.00  0.00    +0.000 HD
ENDBRANCH   4  15
BRANCH   4  17
ATOM     17  C   UNL     1       1.513   3.118  19.299  0.00  0.00    +0.000 C 
BRANCH  17  18
ATOM     18  N   UNL     1       1.900   3.686  20.614  0.00  0.00    +0.000 NA
ATOM     19  C   UNL     1       1.418   5.063  20.771  0.00  0.00    +0.000 C 
ATOM     20  C   UNL     1       1.333   2.851  21.681  0.00  0.00    +0.000 C 
ENDBRANCH  17  18
ENDBRANCH   4  17
TORSDOF 4
ENDMDL
MODEL 9
REMARK VINA RESULT:      -5.0      1.653      2.073
REMARK  Name = 
REMARK  8 active torsions:
REMARK  status: ('A' for Active; 'I' for Inactive)
REMARK    1  A    between atoms: C_1  and  C_2
REMARK    2  A    between atoms: C_4  and  C_5
REMARK    3  A    between atoms: C_8  and  N_9
REMARK    4  A    between atoms: C_12  and  O_13
REMARK    5  A    between atoms: C_12  and  C_14
REMARK    6  A    between atoms: C_14  and  N_15
REMARK    7  A    between atoms: N_15  and  C_16
REMARK    8  A    between atoms: N_15  and  C_17
REMARK                            x       y       z     vdW  Elec       q    Type
REMARK                         _______ _______ _______ _____ _____    ______ ____
ROOT
ATOM      1  N   UNL     1       4.583   5.134  18.021  0.00  0.00    +0.000 N 
ATOM      2  C   UNL     1       5.293   3.897  17.724  0.00  0.00    +0.000 C 
ATOM      3  C   UNL     1       6.404   4.411  16.815  0.00  0.00    +0.000 C 
ATOM      4  C   UNL     1       5.763   5.592  16.037  0.00  0.00    +0.000 C 
ATOM      5  C   UNL     1       4.380   5.803  16.722  0.00  0.00    +0.000 C 
ENDROOT
BRANCH   1  13
ATOM      6  C   UNL     1       2.439   2.776  21.611  0.00  0.00    +0.000 C 
ATOM      7  C   UNL     1       2.563   3.991  20.750  0.00  0.00    +0.000 A 
ATOM      8  N   UNL     1       1.797   5.043  21.070  0.00  0.00    +0.000 NA
ATOM      9  C   UNL     1       1.924   6.156  20.323  0.00  0.00    +0.000 A 
ATOM     10  C   UNL     1       1.124   7.339  20.790  0.00  0.00    +0.000 C 
ATOM     11  C   UNL     1       2.790   6.225  19.236  0.00  0.00    +0.000 A 
ATOM     12 BR   UNL     1       3.005   7.865  18.289  0.00  0.00    +0.000 Br
ATOM     13  C   UNL     1       3.568   5.089  18.967  0.00  0.00    +0.000 A 
ATOM     14  N   UNL     1       3.449   3.975  19.734  0.00  0.00    +0.000 NA
ENDBRANCH   1  13
BRANCH   4  15
ATOM     15  O   UNL     1       6.617   6.733  16.252  0.00  0.00    +0.000 OA
ATOM     16  H   UNL     1       6.673   7.196  15.395  0.00  0.00    +0.000 HD
ENDBRANCH   4  15
BRANCH   4  17
ATOM     17  C   UNL     1       5.677   5.265  14.525  0.00  0.00    +0.000 C 
BRANCH  17  18
ATOM     18  N   UNL     1       6.697   4.361  13.942  0.00  0.00    +0.000 NA
ATOM     19  C   UNL     1       6.125   3.499  12.901  0.00  0.00    +0.000 C 
ATOM     20  C   UNL     1       7.776   5.169  13.359  0.00  0.00    +0.000 C 
ENDBRANCH  17  18
ENDBRANCH   4  17
TORSDOF 4
ENDMDL
