MODEL 1
REMARK VINA RESULT:      -7.0      0.000      0.000
REMARK  Name = 
REMARK  8 active torsions:
REMARK  status: ('A' for Active; 'I' for Inactive)
REMARK    1  A    between atoms: C_1  and  C_2
REMARK    2  A    between atoms: C_7  and  C_8
REMARK    3  A    between atoms: N_10  and  C_11
REMARK    4  A    between atoms: C_11  and  C_12
REMARK    5  A    between atoms: C_12  and  C_13
REMARK    6  A    between atoms: C_13  and  C_14
REMARK    7  A    between atoms: C_14  and  N_15
REMARK    8  A    between atoms: C_17  and  C_18
REMARK                            x       y       z     vdW  Elec       q    Type
REMARK                         _______ _______ _______ _____ _____    ______ ____
ROOT
ATOM      1  C   UNL     1       1.685   1.038  19.189  0.00  0.00    +0.000 C 
ATOM      2  C   UNL     1       2.173   2.379  18.706  0.00  0.00    +0.000 A 
ATOM      3  C   UNL     1       3.075   2.421  17.636  0.00  0.00    +0.000 A 
ATOM      4  C   UNL     1       3.579   3.634  17.179  0.00  0.00    +0.000 A 
ATOM      5  C   UNL     1       3.193   4.836  17.782  0.00  0.00    +0.000 A 
ATOM      6  C   UNL     1       2.280   4.822  18.863  0.00  0.00    +0.000 A 
ATOM      7  C   UNL     1       1.754   3.583  19.320  0.00  0.00    +0.000 A 
ATOM      8  C   UNL     1       0.783   3.512  20.475  0.00  0.00    +0.000 C 
ATOM      9  C   UNL     1       1.850   6.130  19.507  0.00  0.00    +0.000 C 
ATOM     10  N   UNL     1       2.668   7.307  19.182  0.00  0.00    +0.000 NA
ATOM     11  C   UNL     1       2.964   7.354  17.745  0.00  0.00    +0.000 C 
ATOM     12  C   UNL     1       3.832   6.144  17.324  0.00  0.00    +0.000 C 
ENDROOT
BRANCH  12  13
ATOM     13  C   UNL     1       5.286   6.296  17.784  0.00  0.00    +0.000 A 
ATOM     14  C   UNL     1       5.806   5.542  18.849  0.00  0.00    +0.000 A 
ATOM     15  C   UNL     1       7.136   5.678  19.249  0.00  0.00    +0.000 A 
ATOM     16  C   UNL     1       7.966   6.586  18.600  0.00  0.00    +0.000 A 
ATOM     17  C   UNL     1       7.463   7.363  17.558  0.00  0.00    +0.000 A 
ATOM     18  C   UNL     1       6.133   7.221  17.153  0.00  0.00    +0.000 A 
ENDBRANCH  12  13
BRANCH  10  19
ATOM     19  C   UNL     1       2.063   8.548  19.669  0.00  0.00    +0.000 C 
BRANCH  19  20
ATOM     20  C   UNL     1       1.315   8.351  20.999  0.00  0.00    +0.000 C 
BRANCH  20  21
ATOM     21  C   UNL     1       0.233   9.405  21.285  0.00  0.00    +0.000 C 
BRANCH  21  22
ATOM     22  C   UNL     1      -0.491   9.157  22.606  0.00  0.00    +0.000 C 
BRANCH  22  23
ATOM     23  N   UNL     1       0.151   9.887  23.693  0.00  0.00    +0.000 NA
ATOM     24  H   UNL     1      -0.428   9.847  24.529  0.00  0.00    +0.000 HD
ATOM     25  H   UNL     1       0.232  10.869  23.434  0.00  0.00    +0.000 HD
ENDBRANCH  22  23
ENDBRANCH  21  22
ENDBRANCH  20  21
ENDBRANCH  19  20
ENDBRANCH  10  19
TORSDOF 6
ENDMDL
MODEL 2
REMARK VINA RESULT:      -6.9      0.478      1.112
REMARK  Name = 
REMARK  8 active torsions:
REMARK  status: ('A' for Active; 'I' for Inactive)
REMARK    1  A    between atoms: C_1  and  C_2
REMARK    2  A    between atoms: C_7  and  C_8
REMARK    3  A    between atoms: N_10  and  C_11
REMARK    4  A    between atoms: C_11  and  C_12
REMARK    5  A    between atoms: C_12  and  C_13
REMARK    6  A    between atoms: C_13  and  C_14
REMARK    7  A    between atoms: C_14  and  N_15
REMARK    8  A    between atoms: C_17  and  C_18
REMARK                            x       y       z     vdW  Elec       q    Type
REMARK                         _______ _______ _______ _____ _____    ______ ____
ROOT
ATOM      1  C   UNL     1       1.523   1.070  19.084  0.00  0.00    +0.000 C 
ATOM      2  C   UNL     1       2.020   2.426  18.652  0.00  0.00    +0.000 A 
ATOM      3  C   UNL     1       2.882   2.508  17.552  0.00  0.00    +0.000 A 
ATOM      4  C   UNL     1       3.393   3.734  17.140  0.00  0.00    +0.000 A 
ATOM      5  C   UNL     1       3.054   4.909  17.819  0.00  0.00    +0.000 A 
ATOM      6  C   UNL     1       2.182   4.854  18.933  0.00  0.00    +0.000 A 
ATOM      7  C   UNL     1       1.649   3.603  19.344  0.00  0.00    +0.000 A 
ATOM      8  C   UNL     1       0.720   3.488  20.531  0.00  0.00    +0.000 C 
ATOM      9  C   UNL     1       1.803   6.134  19.661  0.00  0.00    +0.000 C 
ATOM     10  N   UNL     1       2.632   7.311  19.366  0.00  0.00    +0.000 NA
ATOM     11  C   UNL     1       2.874   7.430  17.924  0.00  0.00    +0.000 C 
ATOM     12  C   UNL     1       3.701   6.227  17.407  0.00  0.00    +0.000 C 
ENDROOT
BRANCH  12  13
ATOM     13  C   UNL     1       5.174   6.329  17.817  0.00  0.00    +0.000 A 
ATOM     14  C   UNL     1       6.074   7.166  17.136  0.00  0.00    +0.000 A 
ATOM     15  C   UNL     1       7.410   7.262  17.528  0.00  0.00    +0.000 A 
ATOM     16  C   UNL     1       7.874   6.506  18.600  0.00  0.00    +0.000 A 
ATOM     17  C   UNL     1       7.005   5.650  19.273  0.00  0.00    +0.000 A 
ATOM     18  C   UNL     1       5.665   5.559  18.884  0.00  0.00    +0.000 A 
ENDBRANCH  12  13
BRANCH  10  19
ATOM     19  C   UNL     1       2.071   8.536  19.941  0.00  0.00    +0.000 C 
BRANCH  19  20
ATOM     20  C   UNL     1       1.094   8.246  21.093  0.00  0.00    +0.000 C 
BRANCH  20  21
ATOM     21  C   UNL     1       1.303   9.119  22.342  0.00  0.00    +0.000 C 
BRANCH  21  22
ATOM     22  C   UNL     1      -0.011   9.469  23.037  0.00  0.00    +0.000 C 
BRANCH  22  23
ATOM     23  N   UNL     1      -0.287  10.897  22.931  0.00  0.00    +0.000 NA
ATOM     24  H   UNL     1      -0.066  11.226  21.994  0.00  0.00    +0.000 HD
ATOM     25  H   UNL     1       0.320  11.404  23.574  0.00  0.00    +0.000 HD
ENDBRANCH  22  23
ENDBRANCH  21  22
ENDBRANCH  20  21
ENDBRANCH  19  20
ENDBRANCH  10  19
TORSDOF 6
ENDMDL
MODEL 3
REMARK VINA RESULT:      -6.7      1.713      2.145
REMARK  Name = 
REMARK  8 active torsions:
REMARK  status: ('A' for Active; 'I' for Inactive)
REMARK    1  A    between atoms: C_1  and  C_2
REMARK    2  A    between atoms: C_7  and  C_8
REMARK    3  A    between atoms: N_10  and  C_11
REMARK    4  A    between atoms: C_11  and  C_12
REMARK    5  A    between atoms: C_12  and  C_13
REMARK    6  A    between atoms: C_13  and  C_14
REMARK    7  A    between atoms: C_14  and  N_15
REMARK    8  A    between atoms: C_17  and  C_18
REMARK                            x       y       z     vdW  Elec       q    Type
REMARK                         _______ _______ _______ _____ _____    ______ ____
ROOT
ATOM      1  C   UNL     1       2.020   0.998  19.387  0.00  0.00    +0.000 C 
ATOM      2  C   UNL     1       2.484   2.315  18.822  0.00  0.00    +0.000 A 
ATOM      3  C   UNL     1       3.433   2.309  17.793  0.00  0.00    +0.000 A 
ATOM      4  C   UNL     1       3.916   3.502  17.264  0.00  0.00    +0.000 A 
ATOM      5  C   UNL     1       3.461   4.731  17.753  0.00  0.00    +0.000 A 
ATOM      6  C   UNL     1       2.499   4.765  18.791  0.00  0.00    +0.000 A 
ATOM      7  C   UNL     1       1.995   3.546  19.321  0.00  0.00    +0.000 A 
ATOM      8  C   UNL     1       0.974   3.527  20.434  0.00  0.00    +0.000 C 
ATOM      9  C   UNL     1       1.994   6.102  19.312  0.00  0.00    +0.000 C 
ATOM     10  N   UNL     1       2.786   7.280  18.931  0.00  0.00    +0.000 NA
ATOM     11  C   UNL     1       3.147   7.229  17.510  0.00  0.00    +0.000 C 
ATOM     12  C   UNL     1       4.075   6.023  17.223  0.00  0.00    +0.000 C 
ENDROOT
BRANCH  12  13
ATOM     13  C   UNL     1       5.499   6.265  17.733  0.00  0.00    +0.000 A 
ATOM     14  C   UNL     1       6.331   7.243  17.161  0.00  0.00    +0.000 A 
ATOM     15  C   UNL     1       7.622   7.465  17.643  0.00  0.00    +0.000 A 
ATOM     16  C   UNL     1       8.110   6.700  18.697  0.00  0.00    +0.000 A 
ATOM     17  C   UNL     1       7.311   5.707  19.261  0.00  0.00    +0.000 A 
ATOM     18  C   UNL     1       6.015   5.489  18.783  0.00  0.00    +0.000 A 
ENDBRANCH  12  13
BRANCH  10  19
ATOM     19  C   UNL     1       2.117   8.531  19.292  0.00  0.00    +0.000 C 
BRANCH  19  20
ATOM     20  C   UNL     1       1.766   9.384  18.060  0.00  0.00    +0.000 C 
BRANCH  20  21
ATOM     21  C   UNL     1       0.952  10.651  18.372  0.00  0.00    +0.000 C 
BRANCH  21  22
ATOM     22  C   UNL     1      -0.532  10.356  18.579  0.00  0.00    +0.000 C 
BRANCH  22  23
ATOM     23  N   UNL     1      -1.247  10.382  17.308  0.00  0.00    +0.000 NA
ATOM     24  H   UNL     1      -1.083  11.268  16.834  0.00  0.00    +0.000 HD
ATOM     25  H   UNL     1      -2.248  10.321  17.486  0.00  0.00    +0.000 HD
ENDBRANCH  22  23
ENDBRANCH  21  22
ENDBRANCH  20  21
ENDBRANCH  19  20
ENDBRANCH  10  19
TORSDOF 6
ENDMDL
MODEL 4
REMARK VINA RESULT:      -6.7      2.288      5.006
REMARK  Name = 
REMARK  8 active torsions:
REMARK  status: ('A' for Active; 'I' for Inactive)
REMARK    1  A    between atoms: C_1  and  C_2
REMARK    2  A    between atoms: C_7  and  C_8
REMARK    3  A    between atoms: N_10  and  C_11
REMARK    4  A    between atoms: C_11  and  C_12
REMARK    5  A    between atoms: C_12  and  C_13
REMARK    6  A    between atoms: C_13  and  C_14
REMARK    7  A    between atoms: C_14  and  N_15
REMARK    8  A    between atoms: C_17  and  C_18
REMARK                            x       y       z     vdW  Elec       q    Type
REMARK                         _______ _______ _______ _____ _____    ______ ____
ROOT
ATOM      1  C   UNL     1       7.385   4.836  15.495  0.00  0.00    +0.000 C 
ATOM      2  C   UNL     1       6.377   5.162  16.567  0.00  0.00    +0.000 A 
ATOM      3  C   UNL     1       6.454   4.487  17.791  0.00  0.00    +0.000 A 
ATOM      4  C   UNL     1       5.524   4.730  18.796  0.00  0.00    +0.000 A 
ATOM      5  C   UNL     1       4.492   5.654  18.601  0.00  0.00    +0.000 A 
ATOM      6  C   UNL     1       4.393   6.352  17.374  0.00  0.00    +0.000 A 
ATOM      7  C   UNL     1       5.353   6.114  16.353  0.00  0.00    +0.000 A 
ATOM      8  C   UNL     1       5.288   6.827  15.022  0.00  0.00    +0.000 C 
ATOM      9  C   UNL     1       3.281   7.368  17.168  0.00  0.00    +0.000 C 
ATOM     10  N   UNL     1       2.177   7.317  18.138  0.00  0.00    +0.000 NA
ATOM     11  C   UNL     1       2.691   7.181  19.506  0.00  0.00    +0.000 C 
ATOM     12  C   UNL     1       3.431   5.833  19.681  0.00  0.00    +0.000 C 
ENDROOT
BRANCH  12  13
ATOM     13  C   UNL     1       2.456   4.654  19.768  0.00  0.00    +0.000 A 
ATOM     14  C   UNL     1       1.871   4.094  18.619  0.00  0.00    +0.000 A 
ATOM     15  C   UNL     1       0.996   3.010  18.709  0.00  0.00    +0.000 A 
ATOM     16  C   UNL     1       0.677   2.478  19.954  0.00  0.00    +0.000 A 
ATOM     17  C   UNL     1       1.225   3.035  21.108  0.00  0.00    +0.000 A 
ATOM     18  C   UNL     1       2.107   4.116  21.017  0.00  0.00    +0.000 A 
ENDBRANCH  12  13
BRANCH  10  19
ATOM     19  C   UNL     1       1.267   8.455  17.994  0.00  0.00    +0.000 C 
BRANCH  19  20
ATOM     20  C   UNL     1       2.009   9.803  17.999  0.00  0.00    +0.000 C 
BRANCH  20  21
ATOM     21  C   UNL     1       1.265  10.939  18.718  0.00  0.00    +0.000 C 
BRANCH  21  22
ATOM     22  C   UNL     1      -0.251  10.754  18.691  0.00  0.00    +0.000 C 
BRANCH  22  23
ATOM     23  N   UNL     1      -0.883  11.781  17.871  0.00  0.00    +0.000 NA
ATOM     24  H   UNL     1      -0.744  12.697  18.292  0.00  0.00    +0.000 HD
ATOM     25  H   UNL     1      -1.888  11.616  17.844  0.00  0.00    +0.000 HD
ENDBRANCH  22  23
ENDBRANCH  21  22
ENDBRANCH  20  21
ENDBRANCH  19  20
ENDBRANCH  10  19
TORSDOF 6
ENDMDL
MODEL 5
REMARK VINA RESULT:      -6.7      1.459      1.561
REMARK  Name = 
REMARK  8 active torsions:
REMARK  status: ('A' for Active; 'I' for Inactive)
REMARK    1  A    between atoms: C_1  and  C_2
REMARK    2  A    between atoms: C_7  and  C_8
REMARK    3  A    between atoms: N_10  and  C_11
REMARK    4  A    between atoms: C_11  and  C_12
REMARK    5  A    between atoms: C_12  and  C_13
REMARK    6  A    between atoms: C_13  and  C_14
REMARK    7  A    between atoms: C_14  and  N_15
REMARK    8  A    between atoms: C_17  and  C_18
REMARK                            x       y       z     vdW  Elec       q    Type
REMARK                         _______ _______ _______ _____ _____    ______ ____
ROOT
ATOM      1  C   UNL     1       2.003   1.077  19.245  0.00  0.00    +0.000 C 
ATOM      2  C   UNL     1       2.490   2.389  18.687  0.00  0.00    +0.000 A 
ATOM      3  C   UNL     1       3.476   2.374  17.693  0.00  0.00    +0.000 A 
ATOM      4  C   UNL     1       3.980   3.562  17.174  0.00  0.00    +0.000 A 
ATOM      5  C   UNL     1       3.511   4.795  17.638  0.00  0.00    +0.000 A 
ATOM      6  C   UNL     1       2.513   4.839  18.640  0.00  0.00    +0.000 A 
ATOM      7  C   UNL     1       1.987   3.625  19.160  0.00  0.00    +0.000 A 
ATOM      8  C   UNL     1       0.926   3.616  20.236  0.00  0.00    +0.000 C 
ATOM      9  C   UNL     1       1.993   6.180  19.133  0.00  0.00    +0.000 C 
ATOM     10  N   UNL     1       2.800   7.354  18.772  0.00  0.00    +0.000 NA
ATOM     11  C   UNL     1       3.212   7.292  17.365  0.00  0.00    +0.000 C 
ATOM     12  C   UNL     1       4.147   6.082  17.121  0.00  0.00    +0.000 C 
ENDROOT
BRANCH  12  13
ATOM     13  C   UNL     1       5.553   6.325  17.680  0.00  0.00    +0.000 A 
ATOM     14  C   UNL     1       6.070   5.556  18.738  0.00  0.00    +0.000 A 
ATOM     15  C   UNL     1       7.357   5.777  19.228  0.00  0.00    +0.000 A 
ATOM     16  C   UNL     1       8.146   6.783  18.679  0.00  0.00    +0.000 A 
ATOM     17  C   UNL     1       7.643   7.573  17.648  0.00  0.00    +0.000 A 
ATOM     18  C   UNL     1       6.356   7.348  17.152  0.00  0.00    +0.000 A 
ENDBRANCH  12  13
BRANCH  10  19
ATOM     19  C   UNL     1       2.122   8.609  19.101  0.00  0.00    +0.000 C 
BRANCH  19  20
ATOM     20  C   UNL     1       1.374   9.203  17.894  0.00  0.00    +0.000 C 
BRANCH  20  21
ATOM     21  C   UNL     1       0.107   9.996  18.255  0.00  0.00    +0.000 C 
BRANCH  21  22
ATOM     22  C   UNL     1       0.424  11.367  18.848  0.00  0.00    +0.000 C 
BRANCH  22  23
ATOM     23  N   UNL     1       0.174  11.379  20.285  0.00  0.00    +0.000 NA
ATOM     24  H   UNL     1       0.768  12.071  20.736  0.00  0.00    +0.000 HD
ATOM     25  H   UNL     1       0.425  10.473  20.676  0.00  0.00    +0.000 HD
ENDBRANCH  22  23
ENDBRANCH  21  22
ENDBRANCH  20  21
ENDBRANCH  19  20
ENDBRANCH  10  19
TORSDOF 6
ENDMDL
MODEL 6
REMARK VINA RESULT:      -6.6      1.258      1.747
REMARK  Name = 
REMARK  8 active torsions:
REMARK  status: ('A' for Active; 'I' for Inactive)
REMARK    1  A    between atoms: C_1  and  C_2
REMARK    2  A    between atoms: C_7  and  C_8
REMARK    3  A    between atoms: N_10  and  C_11
REMARK    4  A    between atoms: C_11  and  C_12
REMARK    5  A    between atoms: C_12  and  C_13
REMARK    6  A    between atoms: C_13  and  C_14
REMARK    7  A    between atoms: C_14  and  N_15
REMARK    8  A    between atoms: C_17  and  C_18
REMARK                            x       y       z     vdW  Elec       q    Type
REMARK                         _______ _______ _______ _____ _____    ______ ____
ROOT
ATOM      1  C   UNL     1       1.732   1.692  19.502  0.00  0.00    +0.000 C 
ATOM      2  C   UNL     1       2.369   2.874  18.818  0.00  0.00    +0.000 A 
ATOM      3  C   UNL     1       3.433   2.648  17.936  0.00  0.00    +0.000 A 
ATOM      4  C   UNL     1       4.074   3.712  17.309  0.00  0.00    +0.000 A 
ATOM      5  C   UNL     1       3.666   5.028  17.549  0.00  0.00    +0.000 A 
ATOM      6  C   UNL     1       2.591   5.283  18.434  0.00  0.00    +0.000 A 
ATOM      7  C   UNL     1       1.927   4.195  19.063  0.00  0.00    +0.000 A 
ATOM      8  C   UNL     1       0.780   4.414  20.021  0.00  0.00    +0.000 C 
ATOM      9  C   UNL     1       2.139   6.713  18.682  0.00  0.00    +0.000 C 
ATOM     10  N   UNL     1       3.066   7.766  18.243  0.00  0.00    +0.000 NA
ATOM     11  C   UNL     1       3.593   7.472  16.906  0.00  0.00    +0.000 C 
ATOM     12  C   UNL     1       4.445   6.180  16.924  0.00  0.00    +0.000 C 
ENDROOT
BRANCH  12  13
ATOM     13  C   UNL     1       5.812   6.408  17.578  0.00  0.00    +0.000 A 
ATOM     14  C   UNL     1       6.661   7.452  17.172  0.00  0.00    +0.000 A 
ATOM     15  C   UNL     1       7.897   7.659  17.785  0.00  0.00    +0.000 A 
ATOM     16  C   UNL     1       8.315   6.811  18.806  0.00  0.00    +0.000 A 
ATOM     17  C   UNL     1       7.501   5.754  19.207  0.00  0.00    +0.000 A 
ATOM     18  C   UNL     1       6.259   5.551  18.597  0.00  0.00    +0.000 A 
ENDBRANCH  12  13
BRANCH  10  19
ATOM     19  C   UNL     1       2.464   9.098  18.327  0.00  0.00    +0.000 C 
BRANCH  19  20
ATOM     20  C   UNL     1       0.995   9.106  17.868  0.00  0.00    +0.000 C 
BRANCH  20  21
ATOM     21  C   UNL     1       0.090  10.077  18.643  0.00  0.00    +0.000 C 
BRANCH  21  22
ATOM     22  C   UNL     1       0.504  10.221  20.106  0.00  0.00    +0.000 C 
BRANCH  22  23
ATOM     23  N   UNL     1      -0.545  10.878  20.877  0.00  0.00    +0.000 NA
ATOM     24  H   UNL     1      -1.200  10.186  21.235  0.00  0.00    +0.000 HD
ATOM     25  H   UNL     1      -1.073  11.497  20.264  0.00  0.00    +0.000 HD
ENDBRANCH  22  23
ENDBRANCH  21  22
ENDBRANCH  20  21
ENDBRANCH  19  20
ENDBRANCH  10  19
TORSDOF 6
ENDMDL
MODEL 7
REMARK VINA RESULT:      -6.6      2.065      4.829
REMARK  Name = 
REMARK  8 active torsions:
REMARK  status: ('A' for Active; 'I' for Inactive)
REMARK    1  A    between atoms: C_1  and  C_2
REMARK    2  A    between atoms: C_7  and  C_8
REMARK    3  A    between atoms: N_10  and  C_11
REMARK    4  A    between atoms: C_11  and  C_12
REMARK    5  A    between atoms: C_12  and  C_13
REMARK    6  A    between atoms: C_13  and  C_14
REMARK    7  A    between atoms: C_14  and  N_15
REMARK    8  A    between atoms: C_17  and  C_18
REMARK                            x       y       z     vdW  Elec       q    Type
REMARK                         _______ _______ _______ _____ _____    ______ ____
ROOT
ATOM      1  C   UNL     1       7.120   4.776  15.071  0.00  0.00    +0.000 C 
ATOM      2  C   UNL     1       6.232   5.058  16.255  0.00  0.00    +0.000 A 
ATOM      3  C   UNL     1       6.350   4.250  17.392  0.00  0.00    +0.000 A 
ATOM      4  C   UNL     1       5.527   4.451  18.495  0.00  0.00    +0.000 A 
ATOM      5  C   UNL     1       4.566   5.467  18.488  0.00  0.00    +0.000 A 
ATOM      6  C   UNL     1       4.428   6.301  17.353  0.00  0.00    +0.000 A 
ATOM      7  C   UNL     1       5.279   6.104  16.231  0.00  0.00    +0.000 A 
ATOM      8  C   UNL     1       5.168   6.960  14.992  0.00  0.00    +0.000 C 
ATOM      9  C   UNL     1       3.393   7.414  17.352  0.00  0.00    +0.000 C 
ATOM     10  N   UNL     1       2.370   7.342  18.406  0.00  0.00    +0.000 NA
ATOM     11  C   UNL     1       2.979   7.019  19.701  0.00  0.00    +0.000 C 
ATOM     12  C   UNL     1       3.613   5.607  19.671  0.00  0.00    +0.000 C 
ENDROOT
BRANCH  12  13
ATOM     13  C   UNL     1       2.552   4.503  19.723  0.00  0.00    +0.000 A 
ATOM     14  C   UNL     1       2.079   3.990  20.944  0.00  0.00    +0.000 A 
ATOM     15  C   UNL     1       1.101   2.995  20.978  0.00  0.00    +0.000 A 
ATOM     16  C   UNL     1       0.590   2.482  19.790  0.00  0.00    +0.000 A 
ATOM     17  C   UNL     1       1.064   2.957  18.570  0.00  0.00    +0.000 A 
ATOM     18  C   UNL     1       2.039   3.960  18.534  0.00  0.00    +0.000 A 
ENDBRANCH  12  13
BRANCH  10  19
ATOM     19  C   UNL     1       1.551   8.554  18.460  0.00  0.00    +0.000 C 
BRANCH  19  20
ATOM     20  C   UNL     1       1.188   8.950  19.902  0.00  0.00    +0.000 C 
BRANCH  20  21
ATOM     21  C   UNL     1       0.592  10.360  20.045  0.00  0.00    +0.000 C 
BRANCH  21  22
ATOM     22  C   UNL     1       1.085  11.316  18.961  0.00  0.00    +0.000 C 
BRANCH  22  23
ATOM     23  N   UNL     1      -0.038  11.871  18.213  0.00  0.00    +0.000 NA
ATOM     24  H   UNL     1      -0.688  11.131  17.959  0.00  0.00    +0.000 HD
ATOM     25  H   UNL     1       0.307  12.274  17.343  0.00  0.00    +0.000 HD
ENDBRANCH  22  23
ENDBRANCH  21  22
ENDBRANCH  20  21
ENDBRANCH  19  20
ENDBRANCH  10  19
TORSDOF 6
ENDMDL
MODEL 8
REMARK VINA RESULT:      -6.6      1.715      4.758
REMARK  Name = 
REMARK  8 active torsions:
REMARK  status: ('A' for Active; 'I' for Inactive)
REMARK    1  A    between atoms: C_1  and  C_2
REMARK    2  A    between atoms: C_7  and  C_8
REMARK    3  A    between atoms: N_10  and  C_11
REMARK    4  A    between atoms: C_11  and  C_12
REMARK    5  A    between atoms: C_12  and  C_13
REMARK    6  A    between atoms: C_13  and  C_14
REMARK    7  A    between atoms: C_14  and  N_15
REMARK    8  A    between atoms: C_17  and  C_18
REMARK                            x       y       z     vdW  Elec       q    Type
REMARK                         _______ _______ _______ _____ _____    ______ ____
ROOT
ATOM      1  C   UNL     1       7.399   4.857  15.550  0.00  0.00    +0.000 C 
ATOM      2  C   UNL     1       6.391   5.168  16.625  0.00  0.00    +0.000 A 
ATOM      3  C   UNL     1       6.436   4.442  17.821  0.00  0.00    +0.000 A 
ATOM      4  C   UNL     1       5.503   4.671  18.827  0.00  0.00    +0.000 A 
ATOM      5  C   UNL     1       4.501   5.632  18.661  0.00  0.00    +0.000 A 
ATOM      6  C   UNL     1       4.434   6.382  17.463  0.00  0.00    +0.000 A 
ATOM      7  C   UNL     1       5.397   6.158  16.441  0.00  0.00    +0.000 A 
ATOM      8  C   UNL     1       5.365   6.926  15.140  0.00  0.00    +0.000 C 
ATOM      9  C   UNL     1       3.354   7.438  17.289  0.00  0.00    +0.000 C 
ATOM     10  N   UNL     1       2.240   7.380  18.247  0.00  0.00    +0.000 NA
ATOM     11  C   UNL     1       2.736   7.174  19.612  0.00  0.00    +0.000 C 
ATOM     12  C   UNL     1       3.434   5.798  19.739  0.00  0.00    +0.000 C 
ENDROOT
BRANCH  12  13
ATOM     13  C   UNL     1       2.425   4.646  19.769  0.00  0.00    +0.000 A 
ATOM     14  C   UNL     1       1.884   4.108  18.588  0.00  0.00    +0.000 A 
ATOM     15  C   UNL     1       0.977   3.048  18.627  0.00  0.00    +0.000 A 
ATOM     16  C   UNL     1       0.581   2.518  19.851  0.00  0.00    +0.000 A 
ATOM     17  C   UNL     1       1.085   3.054  21.034  0.00  0.00    +0.000 A 
ATOM     18  C   UNL     1       2.000   4.111  20.995  0.00  0.00    +0.000 A 
ENDBRANCH  12  13
BRANCH  10  19
ATOM     19  C   UNL     1       1.364   8.549  18.141  0.00  0.00    +0.000 C 
BRANCH  19  20
ATOM     20  C   UNL     1       1.074   9.188  19.510  0.00  0.00    +0.000 C 
BRANCH  20  21
ATOM     21  C   UNL     1       0.232  10.473  19.449  0.00  0.00    +0.000 C 
BRANCH  21  22
ATOM     22  C   UNL     1       0.176  11.200  20.791  0.00  0.00    +0.000 C 
BRANCH  22  23
ATOM     23  N   UNL     1       1.037  10.545  21.770  0.00  0.00    +0.000 NA
ATOM     24  H   UNL     1       1.069  11.093  22.627  0.00  0.00    +0.000 HD
ATOM     25  H   UNL     1       1.988  10.508  21.406  0.00  0.00    +0.000 HD
ENDBRANCH  22  23
ENDBRANCH  21  22
ENDBRANCH  20  21
ENDBRANCH  19  20
ENDBRANCH  10  19
TORSDOF 6
ENDMDL
MODEL 9
REMARK VINA RESULT:      -6.6      1.575      4.584
REMARK  Name = 
REMARK  8 active torsions:
REMARK  status: ('A' for Active; 'I' for Inactive)
REMARK    1  A    between atoms: C_1  and  C_2
REMARK    2  A    between atoms: C_7  and  C_8
REMARK    3  A    between atoms: N_10  and  C_11
REMARK    4  A    between atoms: C_11  and  C_12
REMARK    5  A    between atoms: C_12  and  C_13
REMARK    6  A    between atoms: C_13  and  C_14
REMARK    7  A    between atoms: C_14  and  N_15
REMARK    8  A    between atoms: C_17  and  C_18
REMARK                            x       y       z     vdW  Elec       q    Type
REMARK                         _______ _______ _______ _____ _____    ______ ____
ROOT
ATOM      1  C   UNL     1       7.035   4.811  15.019  0.00  0.00    +0.000 C 
ATOM      2  C   UNL     1       6.182   5.052  16.237  0.00  0.00    +0.000 A 
ATOM      3  C   UNL     1       6.310   4.187  17.330  0.00  0.00    +0.000 A 
ATOM      4  C   UNL     1       5.518   4.350  18.462  0.00  0.00    +0.000 A 
ATOM      5  C   UNL     1       4.577   5.383  18.528  0.00  0.00    +0.000 A 
ATOM      6  C   UNL     1       4.429   6.273  17.438  0.00  0.00    +0.000 A 
ATOM      7  C   UNL     1       5.249   6.115  16.287  0.00  0.00    +0.000 A 
ATOM      8  C   UNL     1       5.126   7.033  15.093  0.00  0.00    +0.000 C 
ATOM      9  C   UNL     1       3.417   7.404  17.516  0.00  0.00    +0.000 C 
ATOM     10  N   UNL     1       2.418   7.300  18.590  0.00  0.00    +0.000 NA
ATOM     11  C   UNL     1       3.051   6.903  19.853  0.00  0.00    +0.000 C 
ATOM     12  C   UNL     1       3.656   5.483  19.739  0.00  0.00    +0.000 C 
ENDROOT
BRANCH  12  13
ATOM     13  C   UNL     1       2.574   4.398  19.764  0.00  0.00    +0.000 A 
ATOM     14  C   UNL     1       2.105   3.850  20.971  0.00  0.00    +0.000 A 
ATOM     15  C   UNL     1       1.109   2.873  20.981  0.00  0.00    +0.000 A 
ATOM     16  C   UNL     1       0.575   2.413  19.781  0.00  0.00    +0.000 A 
ATOM     17  C   UNL     1       1.044   2.923  18.573  0.00  0.00    +0.000 A 
ATOM     18  C   UNL     1       2.038   3.907  18.562  0.00  0.00    +0.000 A 
ENDBRANCH  12  13
BRANCH  10  19
ATOM     19  C   UNL     1       1.625   8.523  18.723  0.00  0.00    +0.000 C 
BRANCH  19  20
ATOM     20  C   UNL     1       1.159   8.764  20.170  0.00  0.00    +0.000 C 
BRANCH  20  21
ATOM     21  C   UNL     1       0.749  10.214  20.475  0.00  0.00    +0.000 C 
BRANCH  21  22
ATOM     22  C   UNL     1       0.006  10.345  21.803  0.00  0.00    +0.000 C 
BRANCH  22  23
ATOM     23  N   UNL     1       0.833   9.868  22.906  0.00  0.00    +0.000 NA
ATOM     24  H   UNL     1       0.744   8.859  22.998  0.00  0.00    +0.000 HD
ATOM     25  H   UNL     1       0.496  10.276  23.777  0.00  0.00    +0.000 HD
ENDBRANCH  22  23
ENDBRANCH  21  22
ENDBRANCH  20  21
ENDBRANCH  19  20
ENDBRANCH  10  19
TORSDOF 6
ENDMDL
