MODEL 1
REMARK VINA RESULT:      -7.4      0.000      0.000
REMARK  Name = 
REMARK  6 active torsions:
REMARK  status: ('A' for Active; 'I' for Inactive)
REMARK    1  A    between atoms: C_1  and  C_2
REMARK    2  A    between atoms: C_2  and  N_3
REMARK    3  A    between atoms: C_8  and  C_9
REMARK    4  A    between atoms: C_9  and  O_10
REMARK    5  A    between atoms: O_10  and  C_11
REMARK    6  A    between atoms: C_17  and  C_18
REMARK                            x       y       z     vdW  Elec       q    Type
REMARK                         _______ _______ _______ _____ _____    ______ ____
ROOT
ATOM      1  N   UNL     1       6.622   4.535  13.904  0.00  0.00    +0.000 N 
ATOM      2  C   UNL     1       5.937   3.563  14.579  0.00  0.00    +0.000 A 
ATOM      3  C   UNL     1       5.395   4.188  15.676  0.00  0.00    +0.000 A 
ATOM      4  C   UNL     1       5.851   5.516  15.609  0.00  0.00    +0.000 A 
ATOM      5  N   UNL     1       6.576   5.740  14.512  0.00  0.00    +0.000 NA
ATOM      6  C   UNL     1       5.497   6.579  16.608  0.00  0.00    +0.000 C 
ATOM      7  C   UNL     1       4.583   6.018  17.749  0.00  0.00    +0.000 C 
ATOM      8  N   UNL     1       3.747   4.838  17.392  0.00  0.00    +0.000 N 
ATOM      9  C   UNL     1       3.055   4.326  18.524  0.00  0.00    +0.000 A 
ATOM     10  C   UNL     1       1.888   3.594  18.324  0.00  0.00    +0.000 A 
ATOM     11  C   UNL     1       1.227   3.030  19.411  0.00  0.00    +0.000 A 
ATOM     12  C   UNL     1       1.758   3.205  20.679  0.00  0.00    +0.000 A 
ATOM     13  C   UNL     1       1.120   2.607  21.892  0.00  0.00    +0.000 C 
ATOM     14  N   UNL     1       2.877   3.930  20.863  0.00  0.00    +0.000 NA
ATOM     15  N   UNL     1       3.519   4.496  19.781  0.00  0.00    +0.000 NA
ATOM     16  C   UNL     1       4.497   3.723  16.762  0.00  0.00    +0.000 C 
ENDROOT
BRANCH   1  18
ATOM     17  C   UNL     1       6.759   3.276  11.788  0.00  0.00    +0.000 C 
ATOM     18  C   UNL     1       7.312   4.406  12.637  0.00  0.00    +0.000 C 
ENDBRANCH   1  18
BRANCH   6  19
ATOM     19  C   UNL     1       6.751   7.177  17.281  0.00  0.00    +0.000 C 
BRANCH  19  20
ATOM     20  O   UNL     1       7.725   6.177  17.581  0.00  0.00    +0.000 OA
ATOM     21  C   UNL     1       7.883   5.987  18.979  0.00  0.00    +0.000 C 
ENDBRANCH  19  20
ENDBRANCH   6  19
TORSDOF 3
ENDMDL
MODEL 2
REMARK VINA RESULT:      -7.4      0.810      1.045
REMARK  Name = 
REMARK  6 active torsions:
REMARK  status: ('A' for Active; 'I' for Inactive)
REMARK    1  A    between atoms: C_1  and  C_2
REMARK    2  A    between atoms: C_2  and  N_3
REMARK    3  A    between atoms: C_8  and  C_9
REMARK    4  A    between atoms: C_9  and  O_10
REMARK    5  A    between atoms: O_10  and  C_11
REMARK    6  A    between atoms: C_17  and  C_18
REMARK                            x       y       z     vdW  Elec       q    Type
REMARK                         _______ _______ _______ _____ _____    ______ ____
ROOT
ATOM      1  N   UNL     1       6.717   4.587  13.897  0.00  0.00    +0.000 N 
ATOM      2  C   UNL     1       5.927   3.646  14.499  0.00  0.00    +0.000 A 
ATOM      3  C   UNL     1       5.475   4.231  15.657  0.00  0.00    +0.000 A 
ATOM      4  C   UNL     1       6.085   5.496  15.697  0.00  0.00    +0.000 A 
ATOM      5  N   UNL     1       6.821   5.729  14.609  0.00  0.00    +0.000 NA
ATOM      6  C   UNL     1       5.871   6.500  16.792  0.00  0.00    +0.000 C 
ATOM      7  C   UNL     1       4.908   5.952  17.897  0.00  0.00    +0.000 C 
ATOM      8  N   UNL     1       3.933   4.916  17.456  0.00  0.00    +0.000 N 
ATOM      9  C   UNL     1       3.196   4.391  18.553  0.00  0.00    +0.000 A 
ATOM     10  C   UNL     1       1.948   3.823  18.313  0.00  0.00    +0.000 A 
ATOM     11  C   UNL     1       1.235   3.247  19.361  0.00  0.00    +0.000 A 
ATOM     12  C   UNL     1       1.795   3.244  20.628  0.00  0.00    +0.000 A 
ATOM     13  C   UNL     1       1.102   2.620  21.796  0.00  0.00    +0.000 C 
ATOM     14  N   UNL     1       2.994   3.812  20.851  0.00  0.00    +0.000 NA
ATOM     15  N   UNL     1       3.689   4.392  19.810  0.00  0.00    +0.000 NA
ATOM     16  C   UNL     1       4.538   3.781  16.717  0.00  0.00    +0.000 C 
ENDROOT
BRANCH   1  18
ATOM     17  C   UNL     1       8.123   5.759  12.245  0.00  0.00    +0.000 C 
ATOM     18  C   UNL     1       7.374   4.490  12.610  0.00  0.00    +0.000 C 
ENDBRANCH   1  18
BRANCH   6  19
ATOM     19  C   UNL     1       7.194   6.883  17.488  0.00  0.00    +0.000 C 
BRANCH  19  20
ATOM     20  O   UNL     1       7.693   8.141  17.035  0.00  0.00    +0.000 OA
ATOM     21  C   UNL     1       8.251   8.908  18.091  0.00  0.00    +0.000 C 
ENDBRANCH  19  20
ENDBRANCH   6  19
TORSDOF 3
ENDMDL
MODEL 3
REMARK VINA RESULT:      -6.4      1.364      6.570
REMARK  Name = 
REMARK  6 active torsions:
REMARK  status: ('A' for Active; 'I' for Inactive)
REMARK    1  A    between atoms: C_1  and  C_2
REMARK    2  A    between atoms: C_2  and  N_3
REMARK    3  A    between atoms: C_8  and  C_9
REMARK    4  A    between atoms: C_9  and  O_10
REMARK    5  A    between atoms: O_10  and  C_11
REMARK    6  A    between atoms: C_17  and  C_18
REMARK                            x       y       z     vdW  Elec       q    Type
REMARK                         _______ _______ _______ _____ _____    ______ ____
ROOT
ATOM      1  N   UNL     1       3.201   4.936  19.664  0.00  0.00    +0.000 N 
ATOM      2  C   UNL     1       3.009   5.039  18.314  0.00  0.00    +0.000 A 
ATOM      3  C   UNL     1       4.260   4.939  17.755  0.00  0.00    +0.000 A 
ATOM      4  C   UNL     1       5.145   4.834  18.842  0.00  0.00    +0.000 A 
ATOM      5  N   UNL     1       4.499   4.802  20.009  0.00  0.00    +0.000 NA
ATOM      6  C   UNL     1       6.633   4.693  18.706  0.00  0.00    +0.000 C 
ATOM      7  C   UNL     1       7.080   4.706  17.205  0.00  0.00    +0.000 C 
ATOM      8  N   UNL     1       6.062   4.247  16.219  0.00  0.00    +0.000 N 
ATOM      9  C   UNL     1       6.515   4.418  14.882  0.00  0.00    +0.000 A 
ATOM     10  C   UNL     1       5.968   3.622  13.880  0.00  0.00    +0.000 A 
ATOM     11  C   UNL     1       6.350   3.814  12.555  0.00  0.00    +0.000 A 
ATOM     12  C   UNL     1       7.267   4.809  12.262  0.00  0.00    +0.000 A 
ATOM     13  C   UNL     1       7.705   5.092  10.861  0.00  0.00    +0.000 C 
ATOM     14  N   UNL     1       7.804   5.561  13.241  0.00  0.00    +0.000 NA
ATOM     15  N   UNL     1       7.429   5.356  14.553  0.00  0.00    +0.000 NA
ATOM     16  C   UNL     1       4.740   4.907  16.351  0.00  0.00    +0.000 C 
ENDROOT
BRANCH   1  18
ATOM     17  C   UNL     1       2.210   3.618  21.498  0.00  0.00    +0.000 C 
ATOM     18  C   UNL     1       2.186   4.907  20.697  0.00  0.00    +0.000 C 
ENDBRANCH   1  18
BRANCH   6  19
ATOM     19  C   UNL     1       7.387   5.837  19.416  0.00  0.00    +0.000 C 
BRANCH  19  20
ATOM     20  O   UNL     1       8.286   6.513  18.536  0.00  0.00    +0.000 OA
ATOM     21  C   UNL     1       7.695   7.663  17.950  0.00  0.00    +0.000 C 
ENDBRANCH  19  20
ENDBRANCH   6  19
TORSDOF 3
ENDMDL
MODEL 4
REMARK VINA RESULT:      -6.3      4.422      6.801
REMARK  Name = 
REMARK  6 active torsions:
REMARK  status: ('A' for Active; 'I' for Inactive)
REMARK    1  A    between atoms: C_1  and  C_2
REMARK    2  A    between atoms: C_2  and  N_3
REMARK    3  A    between atoms: C_8  and  C_9
REMARK    4  A    between atoms: C_9  and  O_10
REMARK    5  A    between atoms: O_10  and  C_11
REMARK    6  A    between atoms: C_17  and  C_18
REMARK                            x       y       z     vdW  Elec       q    Type
REMARK                         _______ _______ _______ _____ _____    ______ ____
ROOT
ATOM      1  N   UNL     1       2.809   4.350  20.168  0.00  0.00    +0.000 N 
ATOM      2  C   UNL     1       2.159   5.429  20.701  0.00  0.00    +0.000 A 
ATOM      3  C   UNL     1       2.316   6.442  19.787  0.00  0.00    +0.000 A 
ATOM      4  C   UNL     1       3.118   5.902  18.768  0.00  0.00    +0.000 A 
ATOM      5  N   UNL     1       3.397   4.615  18.982  0.00  0.00    +0.000 NA
ATOM      6  C   UNL     1       3.544   6.657  17.542  0.00  0.00    +0.000 C 
ATOM      7  C   UNL     1       3.009   8.128  17.555  0.00  0.00    +0.000 C 
ATOM      8  N   UNL     1       1.764   8.361  18.339  0.00  0.00    +0.000 N 
ATOM      9  C   UNL     1       1.433   9.743  18.396  0.00  0.00    +0.000 A 
ATOM     10  C   UNL     1       0.110  10.108  18.623  0.00  0.00    +0.000 A 
ATOM     11  C   UNL     1      -0.228  11.453  18.745  0.00  0.00    +0.000 A 
ATOM     12  C   UNL     1       0.774  12.405  18.647  0.00  0.00    +0.000 A 
ATOM     13  C   UNL     1       0.492  13.865  18.795  0.00  0.00    +0.000 C 
ATOM     14  N   UNL     1       2.047  12.041  18.410  0.00  0.00    +0.000 NA
ATOM     15  N   UNL     1       2.372  10.707  18.278  0.00  0.00    +0.000 NA
ATOM     16  C   UNL     1       1.806   7.835  19.726  0.00  0.00    +0.000 C 
ENDROOT
BRANCH   1  18
ATOM     17  C   UNL     1       1.690   2.681  21.598  0.00  0.00    +0.000 C 
ATOM     18  C   UNL     1       2.877   3.008  20.709  0.00  0.00    +0.000 C 
ENDBRANCH   1  18
BRANCH   6  19
ATOM     19  C   UNL     1       5.081   6.731  17.417  0.00  0.00    +0.000 C 
BRANCH  19  20
ATOM     20  O   UNL     1       5.541   6.217  16.167  0.00  0.00    +0.000 OA
ATOM     21  C   UNL     1       6.656   5.353  16.322  0.00  0.00    +0.000 C 
ENDBRANCH  19  20
ENDBRANCH   6  19
TORSDOF 3
ENDMDL
MODEL 5
REMARK VINA RESULT:      -6.2      1.481      6.572
REMARK  Name = 
REMARK  6 active torsions:
REMARK  status: ('A' for Active; 'I' for Inactive)
REMARK    1  A    between atoms: C_1  and  C_2
REMARK    2  A    between atoms: C_2  and  N_3
REMARK    3  A    between atoms: C_8  and  C_9
REMARK    4  A    between atoms: C_9  and  O_10
REMARK    5  A    between atoms: O_10  and  C_11
REMARK    6  A    between atoms: C_17  and  C_18
REMARK                            x       y       z     vdW  Elec       q    Type
REMARK                         _______ _______ _______ _____ _____    ______ ____
ROOT
ATOM      1  N   UNL     1       2.124   3.518  19.004  0.00  0.00    +0.000 N 
ATOM      2  C   UNL     1       2.139   3.707  17.649  0.00  0.00    +0.000 A 
ATOM      3  C   UNL     1       3.455   3.931  17.323  0.00  0.00    +0.000 A 
ATOM      4  C   UNL     1       4.148   3.914  18.545  0.00  0.00    +0.000 A 
ATOM      5  N   UNL     1       3.344   3.633  19.571  0.00  0.00    +0.000 NA
ATOM      6  C   UNL     1       5.631   4.109  18.674  0.00  0.00    +0.000 C 
ATOM      7  C   UNL     1       6.304   4.362  17.284  0.00  0.00    +0.000 C 
ATOM      8  N   UNL     1       5.594   3.792  16.104  0.00  0.00    +0.000 N 
ATOM      9  C   UNL     1       6.210   4.184  14.884  0.00  0.00    +0.000 A 
ATOM     10  C   UNL     1       6.032   3.390  13.755  0.00  0.00    +0.000 A 
ATOM     11  C   UNL     1       6.573   3.785  12.535  0.00  0.00    +0.000 A 
ATOM     12  C   UNL     1       7.275   4.978  12.471  0.00  0.00    +0.000 A 
ATOM     13  C   UNL     1       7.861   5.481  11.192  0.00  0.00    +0.000 C 
ATOM     14  N   UNL     1       7.457   5.729  13.573  0.00  0.00    +0.000 NA
ATOM     15  N   UNL     1       6.928   5.323  14.781  0.00  0.00    +0.000 NA
ATOM     16  C   UNL     1       4.153   4.138  16.030  0.00  0.00    +0.000 C 
ENDROOT
BRANCH   1  18
ATOM     17  C   UNL     1       1.337   3.121  21.307  0.00  0.00    +0.000 C 
ATOM     18  C   UNL     1       0.986   3.174  19.831  0.00  0.00    +0.000 C 
ENDBRANCH   1  18
BRANCH   6  19
ATOM     19  C   UNL     1       5.977   5.314  19.574  0.00  0.00    +0.000 C 
BRANCH  19  20
ATOM     20  O   UNL     1       7.328   5.269  20.032  0.00  0.00    +0.000 OA
ATOM     21  C   UNL     1       8.184   6.095  19.257  0.00  0.00    +0.000 C 
ENDBRANCH  19  20
ENDBRANCH   6  19
TORSDOF 3
ENDMDL
MODEL 6
REMARK VINA RESULT:      -5.8      5.568      8.252
REMARK  Name = 
REMARK  6 active torsions:
REMARK  status: ('A' for Active; 'I' for Inactive)
REMARK    1  A    between atoms: C_1  and  C_2
REMARK    2  A    between atoms: C_2  and  N_3
REMARK    3  A    between atoms: C_8  and  C_9
REMARK    4  A    between atoms: C_9  and  O_10
REMARK    5  A    between atoms: O_10  and  C_11
REMARK    6  A    between atoms: C_17  and  C_18
REMARK                            x       y       z     vdW  Elec       q    Type
REMARK                         _______ _______ _______ _____ _____    ______ ____
ROOT
ATOM      1  N   UNL     1      -0.399  10.228  22.138  0.00  0.00    +0.000 N 
ATOM      2  C   UNL     1      -0.205   8.880  22.262  0.00  0.00    +0.000 A 
ATOM      3  C   UNL     1       0.510   8.507  21.150  0.00  0.00    +0.000 A 
ATOM      4  C   UNL     1       0.652   9.679  20.389  0.00  0.00    +0.000 A 
ATOM      5  N   UNL     1       0.124  10.739  21.003  0.00  0.00    +0.000 NA
ATOM      6  C   UNL     1       1.382   9.749  19.079  0.00  0.00    +0.000 C 
ATOM      7  C   UNL     1       1.939   8.350  18.653  0.00  0.00    +0.000 C 
ATOM      8  N   UNL     1       2.219   7.395  19.762  0.00  0.00    +0.000 N 
ATOM      9  C   UNL     1       2.595   6.116  19.268  0.00  0.00    +0.000 A 
ATOM     10  C   UNL     1       3.357   5.280  20.079  0.00  0.00    +0.000 A 
ATOM     11  C   UNL     1       3.685   4.000  19.642  0.00  0.00    +0.000 A 
ATOM     12  C   UNL     1       3.232   3.581  18.401  0.00  0.00    +0.000 A 
ATOM     13  C   UNL     1       3.521   2.211  17.877  0.00  0.00    +0.000 C 
ATOM     14  N   UNL     1       2.512   4.404  17.618  0.00  0.00    +0.000 NA
ATOM     15  N   UNL     1       2.202   5.676  18.053  0.00  0.00    +0.000 NA
ATOM     16  C   UNL     1       1.094   7.214  20.713  0.00  0.00    +0.000 C 
ENDROOT
BRANCH   1  18
ATOM     17  C   UNL     1      -1.043  12.560  22.619  0.00  0.00    +0.000 C 
ATOM     18  C   UNL     1      -1.036  11.117  23.088  0.00  0.00    +0.000 C 
ENDBRANCH   1  18
BRANCH   6  19
ATOM     19  C   UNL     1       0.469  10.244  17.937  0.00  0.00    +0.000 C 
BRANCH  19  20
ATOM     20  O   UNL     1      -0.844   9.689  18.024  0.00  0.00    +0.000 OA
ATOM     21  C   UNL     1      -1.838  10.593  17.567  0.00  0.00    +0.000 C 
ENDBRANCH  19  20
ENDBRANCH   6  19
TORSDOF 3
ENDMDL
MODEL 7
REMARK VINA RESULT:      -5.8      4.773      6.372
REMARK  Name = 
REMARK  6 active torsions:
REMARK  status: ('A' for Active; 'I' for Inactive)
REMARK    1  A    between atoms: C_1  and  C_2
REMARK    2  A    between atoms: C_2  and  N_3
REMARK    3  A    between atoms: C_8  and  C_9
REMARK    4  A    between atoms: C_9  and  O_10
REMARK    5  A    between atoms: O_10  and  C_11
REMARK    6  A    between atoms: C_17  and  C_18
REMARK                            x       y       z     vdW  Elec       q    Type
REMARK                         _______ _______ _______ _____ _____    ______ ____
ROOT
ATOM      1  N   UNL     1       4.595   5.258  17.786  0.00  0.00    +0.000 N 
ATOM      2  C   UNL     1       4.051   6.368  17.201  0.00  0.00    +0.000 A 
ATOM      3  C   UNL     1       3.171   6.878  18.124  0.00  0.00    +0.000 A 
ATOM      4  C   UNL     1       3.209   5.983  19.207  0.00  0.00    +0.000 A 
ATOM      5  N   UNL     1       4.100   5.008  19.017  0.00  0.00    +0.000 NA
ATOM      6  C   UNL     1       2.404   6.147  20.463  0.00  0.00    +0.000 C 
ATOM      7  C   UNL     1       1.496   7.421  20.406  0.00  0.00    +0.000 C 
ATOM      8  N   UNL     1       1.973   8.520  19.520  0.00  0.00    +0.000 N 
ATOM      9  C   UNL     1       1.021   9.573  19.435  0.00  0.00    +0.000 A 
ATOM     10  C   UNL     1       1.459  10.850  19.099  0.00  0.00    +0.000 A 
ATOM     11  C   UNL     1       0.538  11.883  18.949  0.00  0.00    +0.000 A 
ATOM     12  C   UNL     1      -0.808  11.609  19.129  0.00  0.00    +0.000 A 
ATOM     13  C   UNL     1      -1.858  12.660  18.958  0.00  0.00    +0.000 C 
ATOM     14  N   UNL     1      -1.219  10.374  19.472  0.00  0.00    +0.000 NA
ATOM     15  N   UNL     1      -0.299   9.359  19.631  0.00  0.00    +0.000 NA
ATOM     16  C   UNL     1       2.317   8.092  18.142  0.00  0.00    +0.000 C 
ENDROOT
BRANCH   1  18
ATOM     17  C   UNL     1       5.673   4.412  15.736  0.00  0.00    +0.000 C 
ATOM     18  C   UNL     1       5.636   4.403  17.253  0.00  0.00    +0.000 C 
ENDBRANCH   1  18
BRANCH   6  19
ATOM     19  C   UNL     1       1.479   4.938  20.716  0.00  0.00    +0.000 C 
BRANCH  19  20
ATOM     20  O   UNL     1       2.084   3.971  21.574  0.00  0.00    +0.000 OA
ATOM     21  C   UNL     1       1.462   2.700  21.471  0.00  0.00    +0.000 C 
ENDBRANCH  19  20
ENDBRANCH   6  19
TORSDOF 3
ENDMDL
MODEL 8
REMARK VINA RESULT:      -5.8     10.725     11.779
REMARK  Name = 
REMARK  6 active torsions:
REMARK  status: ('A' for Active; 'I' for Inactive)
REMARK    1  A    between atoms: C_1  and  C_2
REMARK    2  A    between atoms: C_2  and  N_3
REMARK    3  A    between atoms: C_8  and  C_9
REMARK    4  A    between atoms: C_9  and  O_10
REMARK    5  A    between atoms: O_10  and  C_11
REMARK    6  A    between atoms: C_17  and  C_18
REMARK                            x       y       z     vdW  Elec       q    Type
REMARK                         _______ _______ _______ _____ _____    ______ ____
ROOT
ATOM      1  N   UNL     1      -3.118  10.667  15.996  0.00  0.00    +0.000 N 
ATOM      2  C   UNL     1      -4.329  10.789  16.619  0.00  0.00    +0.000 A 
ATOM      3  C   UNL     1      -4.059  11.338  17.848  0.00  0.00    +0.000 A 
ATOM      4  C   UNL     1      -2.660  11.460  17.901  0.00  0.00    +0.000 A 
ATOM      5  N   UNL     1      -2.083  11.079  16.760  0.00  0.00    +0.000 NA
ATOM      6  C   UNL     1      -1.907  12.028  19.069  0.00  0.00    +0.000 C 
ATOM      7  C   UNL     1      -2.871  12.439  20.232  0.00  0.00    +0.000 C 
ATOM      8  N   UNL     1      -4.262  12.791  19.831  0.00  0.00    +0.000 N 
ATOM      9  C   UNL     1      -5.090  13.023  20.964  0.00  0.00    +0.000 A 
ATOM     10  C   UNL     1      -6.219  13.822  20.819  0.00  0.00    +0.000 A 
ATOM     11  C   UNL     1      -7.078  14.013  21.898  0.00  0.00    +0.000 A 
ATOM     12  C   UNL     1      -6.790  13.387  23.100  0.00  0.00    +0.000 A 
ATOM     13  C   UNL     1      -7.680  13.522  24.293  0.00  0.00    +0.000 C 
ATOM     14  N   UNL     1      -5.685  12.630  23.234  0.00  0.00    +0.000 NA
ATOM     15  N   UNL     1      -4.833  12.457  22.163  0.00  0.00    +0.000 NA
ATOM     16  C   UNL     1      -4.925  11.781  18.969  0.00  0.00    +0.000 C 
ENDROOT
BRANCH   1  18
ATOM     17  C   UNL     1      -4.140  10.060  13.835  0.00  0.00    +0.000 C 
ATOM     18  C   UNL     1      -2.865  10.208  14.646  0.00  0.00    +0.000 C 
ENDBRANCH   1  18
BRANCH   6  19
ATOM     19  C   UNL     1      -0.897  11.016  19.650  0.00  0.00    +0.000 C 
BRANCH  19  20
ATOM     20  O   UNL     1       0.438  11.291  19.227  0.00  0.00    +0.000 OA
ATOM     21  C   UNL     1       0.870  12.583  19.625  0.00  0.00    +0.000 C 
ENDBRANCH  19  20
ENDBRANCH   6  19
TORSDOF 3
ENDMDL
MODEL 9
REMARK VINA RESULT:      -5.7      4.105      5.347
REMARK  Name = 
REMARK  6 active torsions:
REMARK  status: ('A' for Active; 'I' for Inactive)
REMARK    1  A    between atoms: C_1  and  C_2
REMARK    2  A    between atoms: C_2  and  N_3
REMARK    3  A    between atoms: C_8  and  C_9
REMARK    4  A    between atoms: C_9  and  O_10
REMARK    5  A    between atoms: O_10  and  C_11
REMARK    6  A    between atoms: C_17  and  C_18
REMARK                            x       y       z     vdW  Elec       q    Type
REMARK                         _______ _______ _______ _____ _____    ______ ____
ROOT
ATOM      1  N   UNL     1       4.626   5.835  16.587  0.00  0.00    +0.000 N 
ATOM      2  C   UNL     1       4.206   7.047  17.062  0.00  0.00    +0.000 A 
ATOM      3  C   UNL     1       3.326   6.760  18.077  0.00  0.00    +0.000 A 
ATOM      4  C   UNL     1       3.237   5.358  18.105  0.00  0.00    +0.000 A 
ATOM      5  N   UNL     1       4.052   4.788  17.216  0.00  0.00    +0.000 NA
ATOM      6  C   UNL     1       2.387   4.587  19.074  0.00  0.00    +0.000 C 
ATOM      7  C   UNL     1       1.592   5.539  20.029  0.00  0.00    +0.000 C 
ATOM      8  N   UNL     1       2.202   6.877  20.269  0.00  0.00    +0.000 N 
ATOM      9  C   UNL     1       1.345   7.711  21.040  0.00  0.00    +0.000 A 
ATOM     10  C   UNL     1       1.904   8.752  21.774  0.00  0.00    +0.000 A 
ATOM     11  C   UNL     1       1.080   9.619  22.487  0.00  0.00    +0.000 A 
ATOM     12  C   UNL     1      -0.291   9.428  22.439  0.00  0.00    +0.000 A 
ATOM     13  C   UNL     1      -1.240  10.335  23.155  0.00  0.00    +0.000 C 
ATOM     14  N   UNL     1      -0.819   8.407  21.740  0.00  0.00    +0.000 NA
ATOM     15  N   UNL     1       0.005   7.545  21.047  0.00  0.00    +0.000 NA
ATOM     16  C   UNL     1       2.576   7.610  19.035  0.00  0.00    +0.000 C 
ENDROOT
BRANCH   1  18
ATOM     17  C   UNL     1       5.690   4.126  15.162  0.00  0.00    +0.000 C 
ATOM     18  C   UNL     1       5.617   5.590  15.559  0.00  0.00    +0.000 C 
ENDBRANCH   1  18
BRANCH   6  19
ATOM     19  C   UNL     1       1.353   3.698  18.352  0.00  0.00    +0.000 C 
BRANCH  19  20
ATOM     20  O   UNL     1       1.456   2.330  18.747  0.00  0.00    +0.000 OA
ATOM     21  C   UNL     1       2.746   2.013  19.247  0.00  0.00    +0.000 C 
ENDBRANCH  19  20
ENDBRANCH   6  19
TORSDOF 3
ENDMDL
