MODEL 1
REMARK VINA RESULT:      -6.6      0.000      0.000
REMARK  Name = 
REMARK  16 active torsions:
REMARK  status: ('A' for Active; 'I' for Inactive)
REMARK    1  A    between atoms: C_1  and  O_2
REMARK    2  A    between atoms: O_2  and  C_3
REMARK    3  A    between atoms: C_3  and  C_4
REMARK    4  A    between atoms: C_3  and  C_5
REMARK    5  A    between atoms: C_3  and  C_6
REMARK    6  A    between atoms: C_6  and  C_7
REMARK    7  A    between atoms: C_7  and  N_8
REMARK    8  A    between atoms: C_13  and  C_14
REMARK    9  A    between atoms: C_13  and  C_16
REMARK   10  A    between atoms: C_14  and  O_15
REMARK   11  A    between atoms: C_16  and  N_17
REMARK   12  A    between atoms: C_18  and  O_20
REMARK   13  A    between atoms: O_20  and  C_21
REMARK   14  A    between atoms: C_21  and  C_22
REMARK   15  A    between atoms: C_21  and  C_23
REMARK   16  A    between atoms: C_21  and  C_24
REMARK                            x       y       z     vdW  Elec       q    Type
REMARK                         _______ _______ _______ _____ _____    ______ ____
ROOT
ATOM      1  N   UNL     1       5.606   6.144  17.736  0.00  0.00    +0.000 NA
ATOM      2  C   UNL     1       5.510   6.052  16.233  0.00  0.00    +0.000 C 
ATOM      3  C   UNL     1       6.177   4.795  15.628  0.00  0.00    +0.000 C 
ATOM      4  O   UNL     1       7.541   4.667  16.042  0.00  0.00    +0.000 OA
ATOM      5  C   UNL     1       7.647   4.659  17.469  0.00  0.00    +0.000 C 
ATOM      6  C   UNL     1       7.072   5.954  18.108  0.00  0.00    +0.000 C 
ENDROOT
BRANCH   1   7
ATOM      7  C   UNL     1       4.637   5.149  18.271  0.00  0.00    +0.000 C 
BRANCH   7   8
ATOM      8  C   UNL     1       3.795   5.528  19.497  0.00  0.00    +0.000 C 
BRANCH   8   9
ATOM      9  C   UNL     1       2.542   4.642  19.701  0.00  0.00    +0.000 C 
ATOM     10  C   UNL     1       1.839   4.529  18.336  0.00  0.00    +0.000 C 
ATOM     11  C   UNL     1       1.575   5.281  20.714  0.00  0.00    +0.000 C 
BRANCH   9  13
ATOM     12  C   UNL     1       2.696   2.236  19.403  0.00  0.00    +0.000 C 
ATOM     13  O   UNL     1       3.042   3.382  20.160  0.00  0.00    +0.000 OA
ENDBRANCH   9  13
ENDBRANCH   8   9
ENDBRANCH   7   8
ENDBRANCH   1   7
BRANCH   6  14
ATOM     14  C   UNL     1       7.360   5.894  19.633  0.00  0.00    +0.000 C 
BRANCH  14  15
ATOM     15  O   UNL     1       8.599   5.229  19.900  0.00  0.00    +0.000 OA
ATOM     16  H   UNL     1       8.353   4.323  20.187  0.00  0.00    +0.000 HD
ENDBRANCH  14  15
ENDBRANCH   6  14
BRANCH   6  17
ATOM     17  C   UNL     1       7.925   7.174  17.596  0.00  0.00    +0.000 C 
BRANCH  17  18
ATOM     18  N   UNL     1       8.459   8.021  18.654  0.00  0.00    +0.000 N 
ATOM     19  C   UNL     1       8.510   9.370  18.497  0.00  0.00    +0.000 C 
ATOM     20  O   UNL     1       7.884   9.988  17.642  0.00  0.00    +0.000 OA
ATOM     21  H   UNL     1       9.147   7.633  19.293  0.00  0.00    +0.000 HD
BRANCH  19  22
ATOM     22  O   UNL     1       9.398   9.904  19.374  0.00  0.00    +0.000 OA
BRANCH  22  23
ATOM     23  C   UNL     1       9.953  11.217  19.097  0.00  0.00    +0.000 C 
ATOM     24  C   UNL     1       8.868  12.299  19.171  0.00  0.00    +0.000 C 
ATOM     25  C   UNL     1      10.984  11.491  20.206  0.00  0.00    +0.000 C 
ATOM     26  C   UNL     1      10.702  11.227  17.755  0.00  0.00    +0.000 C 
ENDBRANCH  22  23
ENDBRANCH  19  22
ENDBRANCH  17  18
ENDBRANCH   6  17
TORSDOF 10
ENDMDL
MODEL 2
REMARK VINA RESULT:      -6.4      0.928      1.501
REMARK  Name = 
REMARK  16 active torsions:
REMARK  status: ('A' for Active; 'I' for Inactive)
REMARK    1  A    between atoms: C_1  and  O_2
REMARK    2  A    between atoms: O_2  and  C_3
REMARK    3  A    between atoms: C_3  and  C_4
REMARK    4  A    between atoms: C_3  and  C_5
REMARK    5  A    between atoms: C_3  and  C_6
REMARK    6  A    between atoms: C_6  and  C_7
REMARK    7  A    between atoms: C_7  and  N_8
REMARK    8  A    between atoms: C_13  and  C_14
REMARK    9  A    between atoms: C_13  and  C_16
REMARK   10  A    between atoms: C_14  and  O_15
REMARK   11  A    between atoms: C_16  and  N_17
REMARK   12  A    between atoms: C_18  and  O_20
REMARK   13  A    between atoms: O_20  and  C_21
REMARK   14  A    between atoms: C_21  and  C_22
REMARK   15  A    between atoms: C_21  and  C_23
REMARK   16  A    between atoms: C_21  and  C_24
REMARK                            x       y       z     vdW  Elec       q    Type
REMARK                         _______ _______ _______ _____ _____    ______ ____
ROOT
ATOM      1  N   UNL     1       5.501   5.750  18.044  0.00  0.00    +0.000 NA
ATOM      2  C   UNL     1       5.293   5.610  16.556  0.00  0.00    +0.000 C 
ATOM      3  C   UNL     1       6.102   4.465  15.906  0.00  0.00    +0.000 C 
ATOM      4  O   UNL     1       7.499   4.568  16.199  0.00  0.00    +0.000 OA
ATOM      5  C   UNL     1       7.727   4.610  17.611  0.00  0.00    +0.000 C 
ATOM      6  C   UNL     1       7.005   5.809  18.287  0.00  0.00    +0.000 C 
ENDROOT
BRANCH   1   7
ATOM      7  C   UNL     1       4.757   4.624  18.671  0.00  0.00    +0.000 C 
BRANCH   7   8
ATOM      8  C   UNL     1       3.242   4.526  18.445  0.00  0.00    +0.000 C 
BRANCH   8   9
ATOM      9  C   UNL     1       2.629   3.164  18.851  0.00  0.00    +0.000 C 
ATOM     10  C   UNL     1       3.513   2.585  19.970  0.00  0.00    +0.000 C 
ATOM     11  C   UNL     1       2.620   2.188  17.660  0.00  0.00    +0.000 C 
BRANCH   9  13
ATOM     12  C   UNL     1       1.150   3.770  20.680  0.00  0.00    +0.000 C 
ATOM     13  O   UNL     1       1.306   3.466  19.305  0.00  0.00    +0.000 OA
ENDBRANCH   9  13
ENDBRANCH   8   9
ENDBRANCH   7   8
ENDBRANCH   1   7
BRANCH   6  14
ATOM     14  C   UNL     1       7.428   5.830  19.782  0.00  0.00    +0.000 C 
BRANCH  14  15
ATOM     15  O   UNL     1       8.675   5.153  19.977  0.00  0.00    +0.000 OA
ATOM     16  H   UNL     1       8.743   4.514  19.235  0.00  0.00    +0.000 HD
ENDBRANCH  14  15
ENDBRANCH   6  14
BRANCH   6  17
ATOM     17  C   UNL     1       7.600   7.138  17.693  0.00  0.00    +0.000 C 
BRANCH  17  18
ATOM     18  N   UNL     1       8.397   7.915  18.633  0.00  0.00    +0.000 N 
ATOM     19  C   UNL     1       8.539   9.257  18.472  0.00  0.00    +0.000 C 
ATOM     20  O   UNL     1       7.823   9.944  17.751  0.00  0.00    +0.000 OA
ATOM     21  H   UNL     1       9.154   7.456  19.130  0.00  0.00    +0.000 HD
BRANCH  19  22
ATOM     22  O   UNL     1       9.620   9.694  19.167  0.00  0.00    +0.000 OA
BRANCH  22  23
ATOM     23  C   UNL     1       9.834  11.124  19.305  0.00  0.00    +0.000 C 
ATOM     24  C   UNL     1       9.118  11.896  18.190  0.00  0.00    +0.000 C 
ATOM     25  C   UNL     1       9.205  11.525  20.650  0.00  0.00    +0.000 C 
ATOM     26  C   UNL     1      11.333  11.452  19.378  0.00  0.00    +0.000 C 
ENDBRANCH  22  23
ENDBRANCH  19  22
ENDBRANCH  17  18
ENDBRANCH   6  17
TORSDOF 10
ENDMDL
MODEL 3
REMARK VINA RESULT:      -6.4      0.877      1.257
REMARK  Name = 
REMARK  16 active torsions:
REMARK  status: ('A' for Active; 'I' for Inactive)
REMARK    1  A    between atoms: C_1  and  O_2
REMARK    2  A    between atoms: O_2  and  C_3
REMARK    3  A    between atoms: C_3  and  C_4
REMARK    4  A    between atoms: C_3  and  C_5
REMARK    5  A    between atoms: C_3  and  C_6
REMARK    6  A    between atoms: C_6  and  C_7
REMARK    7  A    between atoms: C_7  and  N_8
REMARK    8  A    between atoms: C_13  and  C_14
REMARK    9  A    between atoms: C_13  and  C_16
REMARK   10  A    between atoms: C_14  and  O_15
REMARK   11  A    between atoms: C_16  and  N_17
REMARK   12  A    between atoms: C_18  and  O_20
REMARK   13  A    between atoms: O_20  and  C_21
REMARK   14  A    between atoms: C_21  and  C_22
REMARK   15  A    between atoms: C_21  and  C_23
REMARK   16  A    between atoms: C_21  and  C_24
REMARK                            x       y       z     vdW  Elec       q    Type
REMARK                         _______ _______ _______ _____ _____    ______ ____
ROOT
ATOM      1  N   UNL     1       5.721   6.329  18.293  0.00  0.00    +0.000 NA
ATOM      2  C   UNL     1       4.916   6.726  17.080  0.00  0.00    +0.000 C 
ATOM      3  C   UNL     1       5.096   5.792  15.862  0.00  0.00    +0.000 C 
ATOM      4  O   UNL     1       6.475   5.641  15.509  0.00  0.00    +0.000 OA
ATOM      5  C   UNL     1       7.244   5.175  16.622  0.00  0.00    +0.000 C 
ATOM      6  C   UNL     1       7.164   6.142  17.836  0.00  0.00    +0.000 C 
ENDROOT
BRANCH   1   7
ATOM      7  C   UNL     1       5.034   5.142  18.871  0.00  0.00    +0.000 C 
BRANCH   7   8
ATOM      8  C   UNL     1       3.526   5.225  19.143  0.00  0.00    +0.000 C 
BRANCH   8   9
ATOM      9  C   UNL     1       2.733   3.973  18.697  0.00  0.00    +0.000 C 
ATOM     10  C   UNL     1       3.740   3.010  18.042  0.00  0.00    +0.000 C 
ATOM     11  C   UNL     1       1.650   4.345  17.669  0.00  0.00    +0.000 C 
BRANCH   9  13
ATOM     12  C   UNL     1       1.183   4.212  20.551  0.00  0.00    +0.000 C 
ATOM     13  O   UNL     1       2.170   3.435  19.897  0.00  0.00    +0.000 OA
ENDBRANCH   9  13
ENDBRANCH   8   9
ENDBRANCH   7   8
ENDBRANCH   1   7
BRANCH   6  14
ATOM     14  C   UNL     1       8.133   5.608  18.927  0.00  0.00    +0.000 C 
BRANCH  14  15
ATOM     15  O   UNL     1       7.691   5.976  20.238  0.00  0.00    +0.000 OA
ATOM     16  H   UNL     1       8.114   6.842  20.422  0.00  0.00    +0.000 HD
ENDBRANCH  14  15
ENDBRANCH   6  14
BRANCH   6  17
ATOM     17  C   UNL     1       7.781   7.523  17.405  0.00  0.00    +0.000 C 
BRANCH  17  18
ATOM     18  N   UNL     1       8.398   8.272  18.491  0.00  0.00    +0.000 N 
ATOM     19  C   UNL     1       8.535   9.622  18.407  0.00  0.00    +0.000 C 
ATOM     20  O   UNL     1       7.930  10.327  17.606  0.00  0.00    +0.000 OA
ATOM     21  H   UNL     1       9.075   7.805  19.087  0.00  0.00    +0.000 HD
BRANCH  19  22
ATOM     22  O   UNL     1       9.480  10.046  19.284  0.00  0.00    +0.000 OA
BRANCH  22  23
ATOM     23  C   UNL     1      10.046  11.373  19.119  0.00  0.00    +0.000 C 
ATOM     24  C   UNL     1       8.992  12.456  19.384  0.00  0.00    +0.000 C 
ATOM     25  C   UNL     1      11.152  11.505  20.179  0.00  0.00    +0.000 C 
ATOM     26  C   UNL     1      10.705  11.522  17.739  0.00  0.00    +0.000 C 
ENDBRANCH  22  23
ENDBRANCH  19  22
ENDBRANCH  17  18
ENDBRANCH   6  17
TORSDOF 10
ENDMDL
MODEL 4
REMARK VINA RESULT:      -6.4      0.828      1.249
REMARK  Name = 
REMARK  16 active torsions:
REMARK  status: ('A' for Active; 'I' for Inactive)
REMARK    1  A    between atoms: C_1  and  O_2
REMARK    2  A    between atoms: O_2  and  C_3
REMARK    3  A    between atoms: C_3  and  C_4
REMARK    4  A    between atoms: C_3  and  C_5
REMARK    5  A    between atoms: C_3  and  C_6
REMARK    6  A    between atoms: C_6  and  C_7
REMARK    7  A    between atoms: C_7  and  N_8
REMARK    8  A    between atoms: C_13  and  C_14
REMARK    9  A    between atoms: C_13  and  C_16
REMARK   10  A    between atoms: C_14  and  O_15
REMARK   11  A    between atoms: C_16  and  N_17
REMARK   12  A    between atoms: C_18  and  O_20
REMARK   13  A    between atoms: O_20  and  C_21
REMARK   14  A    between atoms: C_21  and  C_22
REMARK   15  A    between atoms: C_21  and  C_23
REMARK   16  A    between atoms: C_21  and  C_24
REMARK                            x       y       z     vdW  Elec       q    Type
REMARK                         _______ _______ _______ _____ _____    ______ ____
ROOT
ATOM      1  N   UNL     1       5.538   6.044  17.901  0.00  0.00    +0.000 NA
ATOM      2  C   UNL     1       5.354   5.960  16.406  0.00  0.00    +0.000 C 
ATOM      3  C   UNL     1       6.040   4.741  15.748  0.00  0.00    +0.000 C 
ATOM      4  O   UNL     1       7.431   4.674  16.076  0.00  0.00    +0.000 OA
ATOM      5  C   UNL     1       7.626   4.660  17.494  0.00  0.00    +0.000 C 
ATOM      6  C   UNL     1       7.031   5.921  18.181  0.00  0.00    +0.000 C 
ENDROOT
BRANCH   1   7
ATOM      7  C   UNL     1       4.651   5.000  18.484  0.00  0.00    +0.000 C 
BRANCH   7   8
ATOM      8  C   UNL     1       3.132   5.158  18.334  0.00  0.00    +0.000 C 
BRANCH   8   9
ATOM      9  C   UNL     1       2.306   4.266  19.292  0.00  0.00    +0.000 C 
ATOM     10  C   UNL     1       1.802   5.169  20.432  0.00  0.00    +0.000 C 
ATOM     11  C   UNL     1       3.177   3.144  19.887  0.00  0.00    +0.000 C 
BRANCH   9  13
ATOM     12  C   UNL     1       0.809   2.425  18.772  0.00  0.00    +0.000 C 
ATOM     13  O   UNL     1       1.236   3.748  18.497  0.00  0.00    +0.000 OA
ENDBRANCH   9  13
ENDBRANCH   8   9
ENDBRANCH   7   8
ENDBRANCH   1   7
BRANCH   6  14
ATOM     14  C   UNL     1       7.415   5.862  19.685  0.00  0.00    +0.000 C 
BRANCH  14  15
ATOM     15  O   UNL     1       8.648   5.160  19.878  0.00  0.00    +0.000 OA
ATOM     16  H   UNL     1       8.465   4.499  20.579  0.00  0.00    +0.000 HD
ENDBRANCH  14  15
ENDBRANCH   6  14
BRANCH   6  17
ATOM     17  C   UNL     1       7.793   7.183  17.632  0.00  0.00    +0.000 C 
BRANCH  17  18
ATOM     18  N   UNL     1       8.420   8.002  18.660  0.00  0.00    +0.000 N 
ATOM     19  C   UNL     1       8.585   9.339  18.471  0.00  0.00    +0.000 C 
ATOM     20  O   UNL     1       7.998   9.991  17.614  0.00  0.00    +0.000 OA
ATOM     21  H   UNL     1       9.085   7.570  19.294  0.00  0.00    +0.000 HD
BRANCH  19  22
ATOM     22  O   UNL     1       9.534   9.811  19.319  0.00  0.00    +0.000 OA
BRANCH  22  23
ATOM     23  C   UNL     1       9.887  11.219  19.263  0.00  0.00    +0.000 C 
ATOM     24  C   UNL     1      10.153  11.774  20.668  0.00  0.00    +0.000 C 
ATOM     25  C   UNL     1      11.193  11.304  18.455  0.00  0.00    +0.000 C 
ATOM     26  C   UNL     1       8.820  12.024  18.506  0.00  0.00    +0.000 C 
ENDBRANCH  22  23
ENDBRANCH  19  22
ENDBRANCH  17  18
ENDBRANCH   6  17
TORSDOF 10
ENDMDL
MODEL 5
REMARK VINA RESULT:      -6.3      1.224      1.947
REMARK  Name = 
REMARK  16 active torsions:
REMARK  status: ('A' for Active; 'I' for Inactive)
REMARK    1  A    between atoms: C_1  and  O_2
REMARK    2  A    between atoms: O_2  and  C_3
REMARK    3  A    between atoms: C_3  and  C_4
REMARK    4  A    between atoms: C_3  and  C_5
REMARK    5  A    between atoms: C_3  and  C_6
REMARK    6  A    between atoms: C_6  and  C_7
REMARK    7  A    between atoms: C_7  and  N_8
REMARK    8  A    between atoms: C_13  and  C_14
REMARK    9  A    between atoms: C_13  and  C_16
REMARK   10  A    between atoms: C_14  and  O_15
REMARK   11  A    between atoms: C_16  and  N_17
REMARK   12  A    between atoms: C_18  and  O_20
REMARK   13  A    between atoms: O_20  and  C_21
REMARK   14  A    between atoms: C_21  and  C_22
REMARK   15  A    between atoms: C_21  and  C_23
REMARK   16  A    between atoms: C_21  and  C_24
REMARK                            x       y       z     vdW  Elec       q    Type
REMARK                         _______ _______ _______ _____ _____    ______ ____
ROOT
ATOM      1  N   UNL     1       5.527   6.447  17.745  0.00  0.00    +0.000 NA
ATOM      2  C   UNL     1       5.086   6.645  16.315  0.00  0.00    +0.000 C 
ATOM      3  C   UNL     1       5.689   5.632  15.317  0.00  0.00    +0.000 C 
ATOM      4  O   UNL     1       7.118   5.601  15.390  0.00  0.00    +0.000 OA
ATOM      5  C   UNL     1       7.559   5.322  16.722  0.00  0.00    +0.000 C 
ATOM      6  C   UNL     1       7.050   6.378  17.743  0.00  0.00    +0.000 C 
ENDROOT
BRANCH   1   7
ATOM      7  C   UNL     1       4.795   5.248  18.238  0.00  0.00    +0.000 C 
BRANCH   7   8
ATOM      8  C   UNL     1       4.005   5.357  19.550  0.00  0.00    +0.000 C 
BRANCH   8   9
ATOM      9  C   UNL     1       2.525   5.770  19.363  0.00  0.00    +0.000 C 
ATOM     10  C   UNL     1       1.730   5.144  20.523  0.00  0.00    +0.000 C 
ATOM     11  C   UNL     1       1.969   5.240  18.029  0.00  0.00    +0.000 C 
BRANCH   9  13
ATOM     12  C   UNL     1       2.162   7.886  18.228  0.00  0.00    +0.000 C 
ATOM     13  O   UNL     1       2.523   7.200  19.413  0.00  0.00    +0.000 OA
ENDBRANCH   9  13
ENDBRANCH   8   9
ENDBRANCH   7   8
ENDBRANCH   1   7
BRANCH   6  14
ATOM     14  C   UNL     1       7.694   6.051  19.118  0.00  0.00    +0.000 C 
BRANCH  14  15
ATOM     15  O   UNL     1       8.321   4.764  19.104  0.00  0.00    +0.000 OA
ATOM     16  H   UNL     1       8.286   4.468  18.169  0.00  0.00    +0.000 HD
ENDBRANCH  14  15
ENDBRANCH   6  14
BRANCH   6  17
ATOM     17  C   UNL     1       7.657   7.774  17.347  0.00  0.00    +0.000 C 
BRANCH  17  18
ATOM     18  N   UNL     1       8.346   8.461  18.432  0.00  0.00    +0.000 N 
ATOM     19  C   UNL     1       8.571   9.800  18.367  0.00  0.00    +0.000 C 
ATOM     20  O   UNL     1       7.997  10.558  17.592  0.00  0.00    +0.000 OA
ATOM     21  H   UNL     1       9.002   7.938  19.004  0.00  0.00    +0.000 HD
BRANCH  19  22
ATOM     22  O   UNL     1       9.560  10.144  19.231  0.00  0.00    +0.000 OA
BRANCH  22  23
ATOM     23  C   UNL     1      10.161  11.461  19.120  0.00  0.00    +0.000 C 
ATOM     24  C   UNL     1      11.340  11.610  20.090  0.00  0.00    +0.000 C 
ATOM     25  C   UNL     1      10.701  11.569  17.684  0.00  0.00    +0.000 C 
ATOM     26  C   UNL     1       9.107  12.565  19.304  0.00  0.00    +0.000 C 
ENDBRANCH  22  23
ENDBRANCH  19  22
ENDBRANCH  17  18
ENDBRANCH   6  17
TORSDOF 10
ENDMDL
MODEL 6
REMARK VINA RESULT:      -6.3      0.679      1.601
REMARK  Name = 
REMARK  16 active torsions:
REMARK  status: ('A' for Active; 'I' for Inactive)
REMARK    1  A    between atoms: C_1  and  O_2
REMARK    2  A    between atoms: O_2  and  C_3
REMARK    3  A    between atoms: C_3  and  C_4
REMARK    4  A    between atoms: C_3  and  C_5
REMARK    5  A    between atoms: C_3  and  C_6
REMARK    6  A    between atoms: C_6  and  C_7
REMARK    7  A    between atoms: C_7  and  N_8
REMARK    8  A    between atoms: C_13  and  C_14
REMARK    9  A    between atoms: C_13  and  C_16
REMARK   10  A    between atoms: C_14  and  O_15
REMARK   11  A    between atoms: C_16  and  N_17
REMARK   12  A    between atoms: C_18  and  O_20
REMARK   13  A    between atoms: O_20  and  C_21
REMARK   14  A    between atoms: C_21  and  C_22
REMARK   15  A    between atoms: C_21  and  C_23
REMARK   16  A    between atoms: C_21  and  C_24
REMARK                            x       y       z     vdW  Elec       q    Type
REMARK                         _______ _______ _______ _____ _____    ______ ____
ROOT
ATOM      1  N   UNL     1       5.548   6.146  17.796  0.00  0.00    +0.000 NA
ATOM      2  C   UNL     1       5.405   6.074  16.295  0.00  0.00    +0.000 C 
ATOM      3  C   UNL     1       6.080   4.843  15.650  0.00  0.00    +0.000 C 
ATOM      4  O   UNL     1       7.459   4.740  16.017  0.00  0.00    +0.000 OA
ATOM      5  C   UNL     1       7.612   4.713  17.440  0.00  0.00    +0.000 C 
ATOM      6  C   UNL     1       7.030   5.985  18.117  0.00  0.00    +0.000 C 
ENDROOT
BRANCH   1   7
ATOM      7  C   UNL     1       4.620   5.121  18.346  0.00  0.00    +0.000 C 
BRANCH   7   8
ATOM      8  C   UNL     1       3.711   5.507  19.521  0.00  0.00    +0.000 C 
BRANCH   8   9
ATOM      9  C   UNL     1       2.433   4.643  19.642  0.00  0.00    +0.000 C 
ATOM     10  C   UNL     1       2.842   3.318  20.310  0.00  0.00    +0.000 C 
ATOM     11  C   UNL     1       1.837   4.344  18.254  0.00  0.00    +0.000 C 
BRANCH   9  13
ATOM     12  C   UNL     1       1.771   6.800  20.542  0.00  0.00    +0.000 C 
ATOM     13  O   UNL     1       1.536   5.406  20.455  0.00  0.00    +0.000 OA
ENDBRANCH   9  13
ENDBRANCH   8   9
ENDBRANCH   7   8
ENDBRANCH   1   7
BRANCH   6  14
ATOM     14  C   UNL     1       7.368   5.908  19.632  0.00  0.00    +0.000 C 
BRANCH  14  15
ATOM     15  O   UNL     1       8.594   5.202  19.853  0.00  0.00    +0.000 OA
ATOM     16  H   UNL     1       8.706   4.621  19.069  0.00  0.00    +0.000 HD
ENDBRANCH  14  15
ENDBRANCH   6  14
BRANCH   6  17
ATOM     17  C   UNL     1       7.838   7.231  17.598  0.00  0.00    +0.000 C 
BRANCH  17  18
ATOM     18  N   UNL     1       8.440   8.039  18.649  0.00  0.00    +0.000 N 
ATOM     19  C   UNL     1       8.559   9.385  18.502  0.00  0.00    +0.000 C 
ATOM     20  O   UNL     1       7.949  10.043  17.665  0.00  0.00    +0.000 OA
ATOM     21  H   UNL     1       9.120   7.609  19.270  0.00  0.00    +0.000 HD
BRANCH  19  22
ATOM     22  O   UNL     1       9.494   9.863  19.362  0.00  0.00    +0.000 OA
BRANCH  22  23
ATOM     23  C   UNL     1      10.036  11.192  19.142  0.00  0.00    +0.000 C 
ATOM     24  C   UNL     1      10.646  11.311  17.739  0.00  0.00    +0.000 C 
ATOM     25  C   UNL     1       8.846  12.163  19.234  0.00  0.00    +0.000 C 
ATOM     26  C   UNL     1      11.031  11.572  20.249  0.00  0.00    +0.000 C 
ENDBRANCH  22  23
ENDBRANCH  19  22
ENDBRANCH  17  18
ENDBRANCH   6  17
TORSDOF 10
ENDMDL
MODEL 7
REMARK VINA RESULT:      -6.3      3.638      6.989
REMARK  Name = 
REMARK  16 active torsions:
REMARK  status: ('A' for Active; 'I' for Inactive)
REMARK    1  A    between atoms: C_1  and  O_2
REMARK    2  A    between atoms: O_2  and  C_3
REMARK    3  A    between atoms: C_3  and  C_4
REMARK    4  A    between atoms: C_3  and  C_5
REMARK    5  A    between atoms: C_3  and  C_6
REMARK    6  A    between atoms: C_6  and  C_7
REMARK    7  A    between atoms: C_7  and  N_8
REMARK    8  A    between atoms: C_13  and  C_14
REMARK    9  A    between atoms: C_13  and  C_16
REMARK   10  A    between atoms: C_14  and  O_15
REMARK   11  A    between atoms: C_16  and  N_17
REMARK   12  A    between atoms: C_18  and  O_20
REMARK   13  A    between atoms: O_20  and  C_21
REMARK   14  A    between atoms: C_21  and  C_22
REMARK   15  A    between atoms: C_21  and  C_23
REMARK   16  A    between atoms: C_21  and  C_24
REMARK                            x       y       z     vdW  Elec       q    Type
REMARK                         _______ _______ _______ _____ _____    ______ ____
ROOT
ATOM      1  N   UNL     1       3.907   5.157  19.421  0.00  0.00    +0.000 NA
ATOM      2  C   UNL     1       3.406   3.830  19.938  0.00  0.00    +0.000 C 
ATOM      3  C   UNL     1       2.453   3.090  18.973  0.00  0.00    +0.000 C 
ATOM      4  O   UNL     1       1.350   3.912  18.580  0.00  0.00    +0.000 OA
ATOM      5  C   UNL     1       1.803   5.139  18.001  0.00  0.00    +0.000 C 
ATOM      6  C   UNL     1       2.689   5.960  18.980  0.00  0.00    +0.000 C 
ENDROOT
BRANCH   1   7
ATOM      7  C   UNL     1       4.920   4.835  18.378  0.00  0.00    +0.000 C 
BRANCH   7   8
ATOM      8  C   UNL     1       6.034   5.852  18.095  0.00  0.00    +0.000 C 
BRANCH   8   9
ATOM      9  C   UNL     1       6.572   5.812  16.645  0.00  0.00    +0.000 C 
ATOM     10  C   UNL     1       5.367   6.013  15.708  0.00  0.00    +0.000 C 
ATOM     11  C   UNL     1       7.227   4.454  16.337  0.00  0.00    +0.000 C 
BRANCH   9  13
ATOM     12  C   UNL     1       7.758   7.623  17.747  0.00  0.00    +0.000 C 
ATOM     13  O   UNL     1       7.510   6.890  16.560  0.00  0.00    +0.000 OA
ENDBRANCH   9  13
ENDBRANCH   8   9
ENDBRANCH   7   8
ENDBRANCH   1   7
BRANCH   6  14
ATOM     14  C   UNL     1       3.009   7.318  18.298  0.00  0.00    +0.000 C 
BRANCH  14  15
ATOM     15  O   UNL     1       1.827   7.917  17.756  0.00  0.00    +0.000 OA
ATOM     16  H   UNL     1       2.060   8.165  16.835  0.00  0.00    +0.000 HD
ENDBRANCH  14  15
ENDBRANCH   6  14
BRANCH   6  17
ATOM     17  C   UNL     1       1.812   6.345  20.228  0.00  0.00    +0.000 C 
BRANCH  17  18
ATOM     18  N   UNL     1       2.031   7.697  20.724  0.00  0.00    +0.000 N 
ATOM     19  C   UNL     1       0.997   8.422  21.229  0.00  0.00    +0.000 C 
ATOM     20  O   UNL     1      -0.079   7.942  21.570  0.00  0.00    +0.000 OA
ATOM     21  H   UNL     1       2.795   8.243  20.338  0.00  0.00    +0.000 HD
BRANCH  19  22
ATOM     22  O   UNL     1       1.316   9.741  21.229  0.00  0.00    +0.000 OA
BRANCH  22  23
ATOM     23  C   UNL     1       0.351  10.696  20.712  0.00  0.00    +0.000 C 
ATOM     24  C   UNL     1      -0.681  11.067  21.785  0.00  0.00    +0.000 C 
ATOM     25  C   UNL     1       1.148  11.961  20.351  0.00  0.00    +0.000 C 
ATOM     26  C   UNL     1      -0.303  10.175  19.423  0.00  0.00    +0.000 C 
ENDBRANCH  22  23
ENDBRANCH  19  22
ENDBRANCH  17  18
ENDBRANCH   6  17
TORSDOF 10
ENDMDL
MODEL 8
REMARK VINA RESULT:      -6.3      0.778      1.234
REMARK  Name = 
REMARK  16 active torsions:
REMARK  status: ('A' for Active; 'I' for Inactive)
REMARK    1  A    between atoms: C_1  and  O_2
REMARK    2  A    between atoms: O_2  and  C_3
REMARK    3  A    between atoms: C_3  and  C_4
REMARK    4  A    between atoms: C_3  and  C_5
REMARK    5  A    between atoms: C_3  and  C_6
REMARK    6  A    between atoms: C_6  and  C_7
REMARK    7  A    between atoms: C_7  and  N_8
REMARK    8  A    between atoms: C_13  and  C_14
REMARK    9  A    between atoms: C_13  and  C_16
REMARK   10  A    between atoms: C_14  and  O_15
REMARK   11  A    between atoms: C_16  and  N_17
REMARK   12  A    between atoms: C_18  and  O_20
REMARK   13  A    between atoms: O_20  and  C_21
REMARK   14  A    between atoms: C_21  and  C_22
REMARK   15  A    between atoms: C_21  and  C_23
REMARK   16  A    between atoms: C_21  and  C_24
REMARK                            x       y       z     vdW  Elec       q    Type
REMARK                         _______ _______ _______ _____ _____    ______ ____
ROOT
ATOM      1  N   UNL     1       5.749   6.317  18.343  0.00  0.00    +0.000 NA
ATOM      2  C   UNL     1       4.958   6.731  17.127  0.00  0.00    +0.000 C 
ATOM      3  C   UNL     1       5.145   5.808  15.901  0.00  0.00    +0.000 C 
ATOM      4  O   UNL     1       6.526   5.653  15.560  0.00  0.00    +0.000 OA
ATOM      5  C   UNL     1       7.282   5.172  16.675  0.00  0.00    +0.000 C 
ATOM      6  C   UNL     1       7.195   6.127  17.899  0.00  0.00    +0.000 C 
ENDROOT
BRANCH   1   7
ATOM      7  C   UNL     1       5.050   5.128  18.903  0.00  0.00    +0.000 C 
BRANCH   7   8
ATOM      8  C   UNL     1       3.715   5.335  19.631  0.00  0.00    +0.000 C 
BRANCH   8   9
ATOM      9  C   UNL     1       2.633   4.286  19.276  0.00  0.00    +0.000 C 
ATOM     10  C   UNL     1       2.074   4.662  17.892  0.00  0.00    +0.000 C 
ATOM     11  C   UNL     1       1.488   4.307  20.305  0.00  0.00    +0.000 C 
BRANCH   9  13
ATOM     12  C   UNL     1       2.970   2.118  18.234  0.00  0.00    +0.000 C 
ATOM     13  O   UNL     1       3.316   3.029  19.262  0.00  0.00    +0.000 OA
ENDBRANCH   9  13
ENDBRANCH   8   9
ENDBRANCH   7   8
ENDBRANCH   1   7
BRANCH   6  14
ATOM     14  C   UNL     1       8.151   5.577  18.993  0.00  0.00    +0.000 C 
BRANCH  14  15
ATOM     15  O   UNL     1       7.624   5.807  20.304  0.00  0.00    +0.000 OA
ATOM     16  H   UNL     1       8.394   5.747  20.909  0.00  0.00    +0.000 HD
ENDBRANCH  14  15
ENDBRANCH   6  14
BRANCH   6  17
ATOM     17  C   UNL     1       7.824   7.509  17.487  0.00  0.00    +0.000 C 
BRANCH  17  18
ATOM     18  N   UNL     1       8.423   8.250  18.589  0.00  0.00    +0.000 N 
ATOM     19  C   UNL     1       8.585   9.597  18.507  0.00  0.00    +0.000 C 
ATOM     20  O   UNL     1       8.015  10.311  17.688  0.00  0.00    +0.000 OA
ATOM     21  H   UNL     1       9.075   7.772  19.204  0.00  0.00    +0.000 HD
BRANCH  19  22
ATOM     22  O   UNL     1       9.512  10.007  19.410  0.00  0.00    +0.000 OA
BRANCH  22  23
ATOM     23  C   UNL     1      10.116  11.318  19.249  0.00  0.00    +0.000 C 
ATOM     24  C   UNL     1      11.042  11.349  18.027  0.00  0.00    +0.000 C 
ATOM     25  C   UNL     1       8.957  12.299  19.003  0.00  0.00    +0.000 C 
ATOM     26  C   UNL     1      10.830  11.757  20.538  0.00  0.00    +0.000 C 
ENDBRANCH  22  23
ENDBRANCH  19  22
ENDBRANCH  17  18
ENDBRANCH   6  17
TORSDOF 10
ENDMDL
MODEL 9
REMARK VINA RESULT:      -6.0      1.022      1.480
REMARK  Name = 
REMARK  16 active torsions:
REMARK  status: ('A' for Active; 'I' for Inactive)
REMARK    1  A    between atoms: C_1  and  O_2
REMARK    2  A    between atoms: O_2  and  C_3
REMARK    3  A    between atoms: C_3  and  C_4
REMARK    4  A    between atoms: C_3  and  C_5
REMARK    5  A    between atoms: C_3  and  C_6
REMARK    6  A    between atoms: C_6  and  C_7
REMARK    7  A    between atoms: C_7  and  N_8
REMARK    8  A    between atoms: C_13  and  C_14
REMARK    9  A    between atoms: C_13  and  C_16
REMARK   10  A    between atoms: C_14  and  O_15
REMARK   11  A    between atoms: C_16  and  N_17
REMARK   12  A    between atoms: C_18  and  O_20
REMARK   13  A    between atoms: O_20  and  C_21
REMARK   14  A    between atoms: C_21  and  C_22
REMARK   15  A    between atoms: C_21  and  C_23
REMARK   16  A    between atoms: C_21  and  C_24
REMARK                            x       y       z     vdW  Elec       q    Type
REMARK                         _______ _______ _______ _____ _____    ______ ____
ROOT
ATOM      1  N   UNL     1       5.745   6.180  18.380  0.00  0.00    +0.000 NA
ATOM      2  C   UNL     1       4.930   6.558  17.167  0.00  0.00    +0.000 C 
ATOM      3  C   UNL     1       5.157   5.646  15.940  0.00  0.00    +0.000 C 
ATOM      4  O   UNL     1       6.542   5.557  15.593  0.00  0.00    +0.000 OA
ATOM      5  C   UNL     1       7.324   5.111  16.705  0.00  0.00    +0.000 C 
ATOM      6  C   UNL     1       7.197   6.059  17.930  0.00  0.00    +0.000 C 
ENDROOT
BRANCH   1   7
ATOM      7  C   UNL     1       5.105   4.959  18.941  0.00  0.00    +0.000 C 
BRANCH   7   8
ATOM      8  C   UNL     1       3.581   4.943  19.121  0.00  0.00    +0.000 C 
BRANCH   8   9
ATOM      9  C   UNL     1       3.026   3.617  19.694  0.00  0.00    +0.000 C 
ATOM     10  C   UNL     1       2.380   3.945  21.052  0.00  0.00    +0.000 C 
ATOM     11  C   UNL     1       4.156   2.594  19.908  0.00  0.00    +0.000 C 
BRANCH   9  13
ATOM     12  C   UNL     1       2.535   2.293  17.718  0.00  0.00    +0.000 C 
ATOM     13  O   UNL     1       2.068   3.163  18.734  0.00  0.00    +0.000 OA
ENDBRANCH   9  13
ENDBRANCH   8   9
ENDBRANCH   7   8
ENDBRANCH   1   7
BRANCH   6  14
ATOM     14  C   UNL     1       8.181   5.553  19.020  0.00  0.00    +0.000 C 
BRANCH  14  15
ATOM     15  O   UNL     1       7.633   5.723  20.332  0.00  0.00    +0.000 OA
ATOM     16  H   UNL     1       8.060   5.033  20.884  0.00  0.00    +0.000 HD
ENDBRANCH  14  15
ENDBRANCH   6  14
BRANCH   6  17
ATOM     17  C   UNL     1       7.758   7.470  17.519  0.00  0.00    +0.000 C 
BRANCH  17  18
ATOM     18  N   UNL     1       8.442   8.181  18.590  0.00  0.00    +0.000 N 
ATOM     19  C   UNL     1       8.595   9.531  18.534  0.00  0.00    +0.000 C 
ATOM     20  O   UNL     1       7.960  10.265  17.784  0.00  0.00    +0.000 OA
ATOM     21  H   UNL     1       9.142   7.689  19.137  0.00  0.00    +0.000 HD
BRANCH  19  22
ATOM     22  O   UNL     1       9.591   9.919  19.371  0.00  0.00    +0.000 OA
BRANCH  22  23
ATOM     23  C   UNL     1      10.066  11.289  19.309  0.00  0.00    +0.000 C 
ATOM     24  C   UNL     1       9.957  11.843  17.882  0.00  0.00    +0.000 C 
ATOM     25  C   UNL     1       9.135  12.110  20.217  0.00  0.00    +0.000 C 
ATOM     26  C   UNL     1      11.489  11.406  19.876  0.00  0.00    +0.000 C 
ENDBRANCH  22  23
ENDBRANCH  19  22
ENDBRANCH  17  18
ENDBRANCH   6  17
TORSDOF 10
ENDMDL
