MODEL 1
REMARK VINA RESULT:      -7.3      0.000      0.000
REMARK  Name = 
REMARK  5 active torsions:
REMARK  status: ('A' for Active; 'I' for Inactive)
REMARK    1  A    between atoms: C_1  and  O_2
REMARK    2  A    between atoms: O_2  and  C_3
REMARK    3  A    between atoms: C_3  and  C_4
REMARK    4  A    between atoms: C_4  and  N_5
REMARK    5  A    between atoms: C_10  and  C_11
REMARK                            x       y       z     vdW  Elec       q    Type
REMARK                         _______ _______ _______ _____ _____    ______ ____
ROOT
ATOM      1  N   UNL     1       6.270   4.387  16.672  0.00  0.00    +0.000 N 
ATOM      2  C   UNL     1       7.340   4.753  17.452  0.00  0.00    +0.000 A 
ATOM      3  C   UNL     1       6.852   5.250  18.635  0.00  0.00    +0.000 A 
ATOM      4  C   UNL     1       5.431   5.180  18.579  0.00  0.00    +0.000 A 
ATOM      5  C   UNL     1       4.406   5.539  19.479  0.00  0.00    +0.000 A 
ATOM      6  C   UNL     1       3.043   5.406  19.123  0.00  0.00    +0.000 A 
ATOM      7  C   UNL     1       2.728   4.936  17.850  0.00  0.00    +0.000 A 
ATOM      8  C   UNL     1       3.733   4.544  16.944  0.00  0.00    +0.000 A 
ATOM      9  C   UNL     1       5.086   4.667  17.324  0.00  0.00    +0.000 A 
ENDROOT
BRANCH   6  10
ATOM     10  C   UNL     1       2.047   6.005  20.047  0.00  0.00    +0.000 C 
ATOM     11  O   UNL     1       1.434   5.219  20.784  0.00  0.00    +0.000 OA
ATOM     12  N   UNL     1       1.847   7.388  20.171  0.00  0.00    +0.000 N 
ATOM     13  C   UNL     1       1.103   7.819  21.399  0.00  0.00    +0.000 C 
ATOM     14  C   UNL     1       1.389   9.283  21.775  0.00  0.00    +0.000 C 
ATOM     15  C   UNL     1       0.861  10.041  20.620  0.00  0.00    +0.000 A 
ATOM     16  N   UNL     1      -0.179  10.907  20.682  0.00  0.00    +0.000 NA
ATOM     17  C   UNL     1      -0.728  10.838  19.493  0.00  0.00    +0.000 A 
ATOM     18  N   UNL     1      -0.033  10.003  18.655  0.00  0.00    +0.000 N 
ATOM     19  C   UNL     1       1.033   9.513  19.358  0.00  0.00    +0.000 A 
ATOM     20  C   UNL     1       1.949   8.367  19.053  0.00  0.00    +0.000 C 
ATOM     21  H   UNL     1      -0.375   9.669  17.756  0.00  0.00    +0.000 HD
ENDBRANCH   6  10
BRANCH   1  22
ATOM     22  C   UNL     1       6.416   3.715  15.383  0.00  0.00    +0.000 C 
BRANCH  22  23
ATOM     23  C   UNL     1       6.423   4.666  14.192  0.00  0.00    +0.000 C 
BRANCH  23  25
ATOM     24  C   UNL     1       5.823   3.272  12.391  0.00  0.00    +0.000 C 
ATOM     25  O   UNL     1       6.886   3.969  13.033  0.00  0.00    +0.000 OA
ENDBRANCH  23  25
ENDBRANCH  22  23
ENDBRANCH   1  22
TORSDOF 4
ENDMDL
MODEL 2
REMARK VINA RESULT:      -7.2      1.755      2.702
REMARK  Name = 
REMARK  5 active torsions:
REMARK  status: ('A' for Active; 'I' for Inactive)
REMARK    1  A    between atoms: C_1  and  O_2
REMARK    2  A    between atoms: O_2  and  C_3
REMARK    3  A    between atoms: C_3  and  C_4
REMARK    4  A    between atoms: C_4  and  N_5
REMARK    5  A    between atoms: C_10  and  C_11
REMARK                            x       y       z     vdW  Elec       q    Type
REMARK                         _______ _______ _______ _____ _____    ______ ____
ROOT
ATOM      1  N   UNL     1       4.754   4.478  16.606  0.00  0.00    +0.000 N 
ATOM      2  C   UNL     1       4.328   3.288  17.145  0.00  0.00    +0.000 A 
ATOM      3  C   UNL     1       3.374   3.569  18.091  0.00  0.00    +0.000 A 
ATOM      4  C   UNL     1       3.205   4.983  18.127  0.00  0.00    +0.000 A 
ATOM      5  C   UNL     1       2.383   5.842  18.886  0.00  0.00    +0.000 A 
ATOM      6  C   UNL     1       2.472   7.247  18.747  0.00  0.00    +0.000 A 
ATOM      7  C   UNL     1       3.411   7.773  17.861  0.00  0.00    +0.000 A 
ATOM      8  C   UNL     1       4.224   6.934  17.072  0.00  0.00    +0.000 A 
ATOM      9  C   UNL     1       4.107   5.535  17.212  0.00  0.00    +0.000 A 
ENDROOT
BRANCH   6  10
ATOM     10  C   UNL     1       1.725   8.068  19.732  0.00  0.00    +0.000 C 
ATOM     11  O   UNL     1       1.679   7.635  20.893  0.00  0.00    +0.000 OA
ATOM     12  N   UNL     1       1.163   9.316  19.425  0.00  0.00    +0.000 N 
ATOM     13  C   UNL     1       0.795  10.161  20.607  0.00  0.00    +0.000 C 
ATOM     14  C   UNL     1       0.726  11.658  20.260  0.00  0.00    +0.000 C 
ATOM     15  C   UNL     1      -0.376  11.729  19.275  0.00  0.00    +0.000 A 
ATOM     16  N   UNL     1      -1.544  12.385  19.477  0.00  0.00    +0.000 NA
ATOM     17  C   UNL     1      -2.420  11.710  18.773  0.00  0.00    +0.000 A 
ATOM     18  N   UNL     1      -1.837  10.682  18.078  0.00  0.00    +0.000 N 
ATOM     19  C   UNL     1      -0.498  10.709  18.355  0.00  0.00    +0.000 A 
ATOM     20  C   UNL     1       0.563   9.679  18.110  0.00  0.00    +0.000 C 
ATOM     21  H   UNL     1      -2.347   9.932  17.614  0.00  0.00    +0.000 HD
ENDBRANCH   6  10
BRANCH   1  22
ATOM     22  C   UNL     1       5.693   4.555  15.489  0.00  0.00    +0.000 C 
BRANCH  22  23
ATOM     23  C   UNL     1       7.022   5.210  15.847  0.00  0.00    +0.000 C 
BRANCH  23  25
ATOM     24  C   UNL     1       7.728   4.880  18.070  0.00  0.00    +0.000 C 
ATOM     25  O   UNL     1       7.741   4.360  16.744  0.00  0.00    +0.000 OA
ENDBRANCH  23  25
ENDBRANCH  22  23
ENDBRANCH   1  22
TORSDOF 4
ENDMDL
MODEL 3
REMARK VINA RESULT:      -7.1      2.461      8.089
REMARK  Name = 
REMARK  5 active torsions:
REMARK  status: ('A' for Active; 'I' for Inactive)
REMARK    1  A    between atoms: C_1  and  O_2
REMARK    2  A    between atoms: O_2  and  C_3
REMARK    3  A    between atoms: C_3  and  C_4
REMARK    4  A    between atoms: C_4  and  N_5
REMARK    5  A    between atoms: C_10  and  C_11
REMARK                            x       y       z     vdW  Elec       q    Type
REMARK                         _______ _______ _______ _____ _____    ______ ____
ROOT
ATOM      1  N   UNL     1       0.342  10.534  20.582  0.00  0.00    +0.000 N 
ATOM      2  C   UNL     1       0.268  10.033  21.858  0.00  0.00    +0.000 A 
ATOM      3  C   UNL     1       0.876   8.803  21.867  0.00  0.00    +0.000 A 
ATOM      4  C   UNL     1       1.346   8.544  20.548  0.00  0.00    +0.000 A 
ATOM      5  C   UNL     1       2.033   7.462  19.958  0.00  0.00    +0.000 A 
ATOM      6  C   UNL     1       2.327   7.454  18.574  0.00  0.00    +0.000 A 
ATOM      7  C   UNL     1       1.900   8.526  17.793  0.00  0.00    +0.000 A 
ATOM      8  C   UNL     1       1.237   9.630  18.365  0.00  0.00    +0.000 A 
ATOM      9  C   UNL     1       0.969   9.629  19.750  0.00  0.00    +0.000 A 
ENDROOT
BRANCH   6  10
ATOM     10  C   UNL     1       2.859   6.188  18.010  0.00  0.00    +0.000 C 
ATOM     11  O   UNL     1       2.063   5.242  17.924  0.00  0.00    +0.000 OA
ATOM     12  N   UNL     1       4.163   6.059  17.507  0.00  0.00    +0.000 N 
ATOM     13  C   UNL     1       4.398   4.858  16.640  0.00  0.00    +0.000 C 
ATOM     14  C   UNL     1       5.596   5.043  15.694  0.00  0.00    +0.000 C 
ATOM     15  C   UNL     1       6.742   5.182  16.619  0.00  0.00    +0.000 A 
ATOM     16  N   UNL     1       7.772   4.305  16.701  0.00  0.00    +0.000 NA
ATOM     17  C   UNL     1       8.159   4.379  17.952  0.00  0.00    +0.000 A 
ATOM     18  N   UNL     1       7.451   5.321  18.654  0.00  0.00    +0.000 N 
ATOM     19  C   UNL     1       6.557   5.888  17.788  0.00  0.00    +0.000 A 
ATOM     20  C   UNL     1       5.361   6.751  18.059  0.00  0.00    +0.000 C 
ATOM     21  H   UNL     1       7.464   5.420  19.667  0.00  0.00    +0.000 HD
ENDBRANCH   6  10
BRANCH   1  22
ATOM     22  C   UNL     1      -0.110  11.877  20.225  0.00  0.00    +0.000 C 
BRANCH  22  23
ATOM     23  C   UNL     1       0.965  12.947  20.373  0.00  0.00    +0.000 C 
BRANCH  23  25
ATOM     24  C   UNL     1       2.128  13.200  18.341  0.00  0.00    +0.000 C 
ATOM     25  O   UNL     1       1.066  13.687  19.155  0.00  0.00    +0.000 OA
ENDBRANCH  23  25
ENDBRANCH  22  23
ENDBRANCH   1  22
TORSDOF 4
ENDMDL
MODEL 4
REMARK VINA RESULT:      -7.1      2.402      8.185
REMARK  Name = 
REMARK  5 active torsions:
REMARK  status: ('A' for Active; 'I' for Inactive)
REMARK    1  A    between atoms: C_1  and  O_2
REMARK    2  A    between atoms: O_2  and  C_3
REMARK    3  A    between atoms: C_3  and  C_4
REMARK    4  A    between atoms: C_4  and  N_5
REMARK    5  A    between atoms: C_10  and  C_11
REMARK                            x       y       z     vdW  Elec       q    Type
REMARK                         _______ _______ _______ _____ _____    ______ ____
ROOT
ATOM      1  N   UNL     1      -0.279  11.022  19.742  0.00  0.00    +0.000 N 
ATOM      2  C   UNL     1      -0.608  10.908  21.070  0.00  0.00    +0.000 A 
ATOM      3  C   UNL     1       0.030   9.800  21.571  0.00  0.00    +0.000 A 
ATOM      4  C   UNL     1       0.781   9.218  20.510  0.00  0.00    +0.000 A 
ATOM      5  C   UNL     1       1.619   8.086  20.422  0.00  0.00    +0.000 A 
ATOM      6  C   UNL     1       2.203   7.706  19.191  0.00  0.00    +0.000 A 
ATOM      7  C   UNL     1       1.914   8.458  18.054  0.00  0.00    +0.000 A 
ATOM      8  C   UNL     1       1.104   9.609  18.122  0.00  0.00    +0.000 A 
ATOM      9  C   UNL     1       0.545   9.982  19.363  0.00  0.00    +0.000 A 
ENDROOT
BRANCH   6  10
ATOM     10  C   UNL     1       2.890   6.391  19.153  0.00  0.00    +0.000 C 
ATOM     11  O   UNL     1       2.796   5.687  20.169  0.00  0.00    +0.000 OA
ATOM     12  N   UNL     1       3.545   5.899  18.014  0.00  0.00    +0.000 N 
ATOM     13  C   UNL     1       3.837   4.428  18.028  0.00  0.00    +0.000 C 
ATOM     14  C   UNL     1       4.019   3.851  16.614  0.00  0.00    +0.000 C 
ATOM     15  C   UNL     1       5.216   4.559  16.110  0.00  0.00    +0.000 A 
ATOM     16  N   UNL     1       6.391   3.957  15.804  0.00  0.00    +0.000 NA
ATOM     17  C   UNL     1       7.297   4.874  16.046  0.00  0.00    +0.000 A 
ATOM     18  N   UNL     1       6.732   6.062  16.435  0.00  0.00    +0.000 N 
ATOM     19  C   UNL     1       5.375   5.889  16.435  0.00  0.00    +0.000 A 
ATOM     20  C   UNL     1       4.291   6.735  17.032  0.00  0.00    +0.000 C 
ATOM     21  H   UNL     1       7.246   6.844  16.837  0.00  0.00    +0.000 HD
ENDBRANCH   6  10
BRANCH   1  22
ATOM     22  C   UNL     1      -0.692  12.153  18.913  0.00  0.00    +0.000 C 
BRANCH  22  23
ATOM     23  C   UNL     1      -1.690  11.783  17.822  0.00  0.00    +0.000 C 
BRANCH  23  25
ATOM     24  C   UNL     1      -3.935  11.647  18.520  0.00  0.00    +0.000 C 
ATOM     25  O   UNL     1      -2.705  10.943  18.375  0.00  0.00    +0.000 OA
ENDBRANCH  23  25
ENDBRANCH  22  23
ENDBRANCH   1  22
TORSDOF 4
ENDMDL
MODEL 5
REMARK VINA RESULT:      -7.1      2.482      8.473
REMARK  Name = 
REMARK  5 active torsions:
REMARK  status: ('A' for Active; 'I' for Inactive)
REMARK    1  A    between atoms: C_1  and  O_2
REMARK    2  A    between atoms: O_2  and  C_3
REMARK    3  A    between atoms: C_3  and  C_4
REMARK    4  A    between atoms: C_4  and  N_5
REMARK    5  A    between atoms: C_10  and  C_11
REMARK                            x       y       z     vdW  Elec       q    Type
REMARK                         _______ _______ _______ _____ _____    ______ ____
ROOT
ATOM      1  N   UNL     1       0.338  10.565  20.544  0.00  0.00    +0.000 N 
ATOM      2  C   UNL     1       0.192  10.054  21.811  0.00  0.00    +0.000 A 
ATOM      3  C   UNL     1       0.768   8.809  21.835  0.00  0.00    +0.000 A 
ATOM      4  C   UNL     1       1.291   8.550  20.536  0.00  0.00    +0.000 A 
ATOM      5  C   UNL     1       1.977   7.456  19.967  0.00  0.00    +0.000 A 
ATOM      6  C   UNL     1       2.333   7.452  18.599  0.00  0.00    +0.000 A 
ATOM      7  C   UNL     1       1.970   8.542  17.810  0.00  0.00    +0.000 A 
ATOM      8  C   UNL     1       1.310   9.658  18.362  0.00  0.00    +0.000 A 
ATOM      9  C   UNL     1       0.979   9.651  19.733  0.00  0.00    +0.000 A 
ENDROOT
BRANCH   6  10
ATOM     10  C   UNL     1       2.859   6.179  18.046  0.00  0.00    +0.000 C 
ATOM     11  O   UNL     1       2.063   5.230  17.988  0.00  0.00    +0.000 OA
ATOM     12  N   UNL     1       4.154   6.043  17.524  0.00  0.00    +0.000 N 
ATOM     13  C   UNL     1       4.378   4.829  16.673  0.00  0.00    +0.000 C 
ATOM     14  C   UNL     1       5.561   5.000  15.706  0.00  0.00    +0.000 C 
ATOM     15  C   UNL     1       6.721   5.156  16.610  0.00  0.00    +0.000 A 
ATOM     16  N   UNL     1       7.753   4.282  16.690  0.00  0.00    +0.000 NA
ATOM     17  C   UNL     1       8.160   4.376  17.933  0.00  0.00    +0.000 A 
ATOM     18  N   UNL     1       7.462   5.328  18.631  0.00  0.00    +0.000 N 
ATOM     19  C   UNL     1       6.553   5.880  17.771  0.00  0.00    +0.000 A 
ATOM     20  C   UNL     1       5.360   6.745  18.046  0.00  0.00    +0.000 C 
ATOM     21  H   UNL     1       7.490   5.443  19.642  0.00  0.00    +0.000 HD
ENDBRANCH   6  10
BRANCH   1  22
ATOM     22  C   UNL     1      -0.063  11.922  20.181  0.00  0.00    +0.000 C 
BRANCH  22  23
ATOM     23  C   UNL     1       0.961  12.986  20.556  0.00  0.00    +0.000 C 
BRANCH  23  25
ATOM     24  C   UNL     1       0.128  14.803  21.801  0.00  0.00    +0.000 C 
ATOM     25  O   UNL     1       0.667  13.486  21.862  0.00  0.00    +0.000 OA
ENDBRANCH  23  25
ENDBRANCH  22  23
ENDBRANCH   1  22
TORSDOF 4
ENDMDL
MODEL 6
REMARK VINA RESULT:      -7.0      2.420      8.495
REMARK  Name = 
REMARK  5 active torsions:
REMARK  status: ('A' for Active; 'I' for Inactive)
REMARK    1  A    between atoms: C_1  and  O_2
REMARK    2  A    between atoms: O_2  and  C_3
REMARK    3  A    between atoms: C_3  and  C_4
REMARK    4  A    between atoms: C_4  and  N_5
REMARK    5  A    between atoms: C_10  and  C_11
REMARK                            x       y       z     vdW  Elec       q    Type
REMARK                         _______ _______ _______ _____ _____    ______ ____
ROOT
ATOM      1  N   UNL     1       0.294  10.639  20.632  0.00  0.00    +0.000 N 
ATOM      2  C   UNL     1       0.150  10.135  21.902  0.00  0.00    +0.000 A 
ATOM      3  C   UNL     1       0.730   8.891  21.933  0.00  0.00    +0.000 A 
ATOM      4  C   UNL     1       1.254   8.627  20.635  0.00  0.00    +0.000 A 
ATOM      5  C   UNL     1       1.944   7.533  20.072  0.00  0.00    +0.000 A 
ATOM      6  C   UNL     1       2.300   7.523  18.703  0.00  0.00    +0.000 A 
ATOM      7  C   UNL     1       1.933   8.607  17.909  0.00  0.00    +0.000 A 
ATOM      8  C   UNL     1       1.269   9.724  18.454  0.00  0.00    +0.000 A 
ATOM      9  C   UNL     1       0.938   9.723  19.826  0.00  0.00    +0.000 A 
ENDROOT
BRANCH   6  10
ATOM     10  C   UNL     1       2.830   6.248  18.158  0.00  0.00    +0.000 C 
ATOM     11  O   UNL     1       2.051   5.283  18.147  0.00  0.00    +0.000 OA
ATOM     12  N   UNL     1       4.108   6.125  17.593  0.00  0.00    +0.000 N 
ATOM     13  C   UNL     1       4.325   4.899  16.758  0.00  0.00    +0.000 C 
ATOM     14  C   UNL     1       5.469   5.072  15.746  0.00  0.00    +0.000 C 
ATOM     15  C   UNL     1       6.658   5.268  16.605  0.00  0.00    +0.000 A 
ATOM     16  N   UNL     1       7.709   4.414  16.665  0.00  0.00    +0.000 NA
ATOM     17  C   UNL     1       8.158   4.542  17.890  0.00  0.00    +0.000 A 
ATOM     18  N   UNL     1       7.466   5.495  18.594  0.00  0.00    +0.000 N 
ATOM     19  C   UNL     1       6.517   6.013  17.756  0.00  0.00    +0.000 A 
ATOM     20  C   UNL     1       5.318   6.861  18.057  0.00  0.00    +0.000 C 
ATOM     21  H   UNL     1       7.529   5.631  19.601  0.00  0.00    +0.000 HD
ENDBRANCH   6  10
BRANCH   1  22
ATOM     22  C   UNL     1      -0.112  11.993  20.262  0.00  0.00    +0.000 C 
BRANCH  22  23
ATOM     23  C   UNL     1      -1.496  12.068  19.629  0.00  0.00    +0.000 C 
BRANCH  23  25
ATOM     24  C   UNL     1      -3.549  12.889  20.439  0.00  0.00    +0.000 C 
ATOM     25  O   UNL     1      -2.191  13.205  20.146  0.00  0.00    +0.000 OA
ENDBRANCH  23  25
ENDBRANCH  22  23
ENDBRANCH   1  22
TORSDOF 4
ENDMDL
MODEL 7
REMARK VINA RESULT:      -7.0      3.125      9.166
REMARK  Name = 
REMARK  5 active torsions:
REMARK  status: ('A' for Active; 'I' for Inactive)
REMARK    1  A    between atoms: C_1  and  O_2
REMARK    2  A    between atoms: O_2  and  C_3
REMARK    3  A    between atoms: C_3  and  C_4
REMARK    4  A    between atoms: C_4  and  N_5
REMARK    5  A    between atoms: C_10  and  C_11
REMARK                            x       y       z     vdW  Elec       q    Type
REMARK                         _______ _______ _______ _____ _____    ______ ____
ROOT
ATOM      1  N   UNL     1      -0.655  11.158  21.633  0.00  0.00    +0.000 N 
ATOM      2  C   UNL     1      -0.896  12.073  20.637  0.00  0.00    +0.000 A 
ATOM      3  C   UNL     1      -0.300  11.616  19.488  0.00  0.00    +0.000 A 
ATOM      4  C   UNL     1       0.324  10.372  19.791  0.00  0.00    +0.000 A 
ATOM      5  C   UNL     1       1.075   9.453  19.028  0.00  0.00    +0.000 A 
ATOM      6  C   UNL     1       1.635   8.298  19.623  0.00  0.00    +0.000 A 
ATOM      7  C   UNL     1       1.453   8.096  20.990  0.00  0.00    +0.000 A 
ATOM      8  C   UNL     1       0.684   8.985  21.767  0.00  0.00    +0.000 A 
ATOM      9  C   UNL     1       0.118  10.121  21.151  0.00  0.00    +0.000 A 
ENDROOT
BRANCH   6  10
ATOM     10  C   UNL     1       2.579   7.508  18.795  0.00  0.00    +0.000 C 
ATOM     11  O   UNL     1       3.152   8.113  17.877  0.00  0.00    +0.000 OA
ATOM     12  N   UNL     1       2.901   6.168  19.061  0.00  0.00    +0.000 N 
ATOM     13  C   UNL     1       4.135   5.658  18.380  0.00  0.00    +0.000 C 
ATOM     14  C   UNL     1       4.745   4.444  19.101  0.00  0.00    +0.000 C 
ATOM     15  C   UNL     1       3.689   3.414  18.987  0.00  0.00    +0.000 A 
ATOM     16  N   UNL     1       3.822   2.254  18.300  0.00  0.00    +0.000 NA
ATOM     17  C   UNL     1       2.606   1.981  17.890  0.00  0.00    +0.000 A 
ATOM     18  N   UNL     1       1.693   2.896  18.347  0.00  0.00    +0.000 N 
ATOM     19  C   UNL     1       2.374   3.810  19.104  0.00  0.00    +0.000 A 
ATOM     20  C   UNL     1       1.952   5.157  19.607  0.00  0.00    +0.000 C 
ATOM     21  H   UNL     1       0.735   2.978  18.011  0.00  0.00    +0.000 HD
ENDBRANCH   6  10
BRANCH   1  22
ATOM     22  C   UNL     1      -1.233  11.265  22.971  0.00  0.00    +0.000 C 
BRANCH  22  23
ATOM     23  C   UNL     1      -2.307  12.338  23.092  0.00  0.00    +0.000 C 
BRANCH  23  25
ATOM     24  C   UNL     1      -4.152  12.734  24.501  0.00  0.00    +0.000 C 
ATOM     25  O   UNL     1      -3.473  11.774  23.696  0.00  0.00    +0.000 OA
ENDBRANCH  23  25
ENDBRANCH  22  23
ENDBRANCH   1  22
TORSDOF 4
ENDMDL
MODEL 8
REMARK VINA RESULT:      -7.0      1.690      2.603
REMARK  Name = 
REMARK  5 active torsions:
REMARK  status: ('A' for Active; 'I' for Inactive)
REMARK    1  A    between atoms: C_1  and  O_2
REMARK    2  A    between atoms: O_2  and  C_3
REMARK    3  A    between atoms: C_3  and  C_4
REMARK    4  A    between atoms: C_4  and  N_5
REMARK    5  A    between atoms: C_10  and  C_11
REMARK                            x       y       z     vdW  Elec       q    Type
REMARK                         _______ _______ _______ _____ _____    ______ ____
ROOT
ATOM      1  N   UNL     1       4.551   4.677  17.291  0.00  0.00    +0.000 N 
ATOM      2  C   UNL     1       4.310   3.572  18.070  0.00  0.00    +0.000 A 
ATOM      3  C   UNL     1       3.430   3.935  19.059  0.00  0.00    +0.000 A 
ATOM      4  C   UNL     1       3.117   5.312  18.874  0.00  0.00    +0.000 A 
ATOM      5  C   UNL     1       2.289   6.220  19.567  0.00  0.00    +0.000 A 
ATOM      6  C   UNL     1       2.215   7.579  19.182  0.00  0.00    +0.000 A 
ATOM      7  C   UNL     1       2.999   8.016  18.116  0.00  0.00    +0.000 A 
ATOM      8  C   UNL     1       3.813   7.122  17.391  0.00  0.00    +0.000 A 
ATOM      9  C   UNL     1       3.859   5.767  17.779  0.00  0.00    +0.000 A 
ENDROOT
BRANCH   6  10
ATOM     10  C   UNL     1       1.487   8.496  20.094  0.00  0.00    +0.000 C 
ATOM     11  O   UNL     1       1.514   8.214  21.301  0.00  0.00    +0.000 OA
ATOM     12  N   UNL     1       0.865   9.678  19.662  0.00  0.00    +0.000 N 
ATOM     13  C   UNL     1       0.526  10.656  20.747  0.00  0.00    +0.000 C 
ATOM     14  C   UNL     1       0.385  12.093  20.218  0.00  0.00    +0.000 C 
ATOM     15  C   UNL     1      -0.766  12.004  19.292  0.00  0.00    +0.000 A 
ATOM     16  N   UNL     1      -1.945  12.647  19.472  0.00  0.00    +0.000 NA
ATOM     17  C   UNL     1      -2.830  11.861  18.906  0.00  0.00    +0.000 A 
ATOM     18  N   UNL     1      -2.244  10.770  18.316  0.00  0.00    +0.000 N 
ATOM     19  C   UNL     1      -0.895  10.873  18.516  0.00  0.00    +0.000 A 
ATOM     20  C   UNL     1       0.190   9.852  18.346  0.00  0.00    +0.000 C 
ATOM     21  H   UNL     1      -2.749   9.953  17.978  0.00  0.00    +0.000 HD
ENDBRANCH   6  10
BRANCH   1  22
ATOM     22  C   UNL     1       5.360   4.633  16.074  0.00  0.00    +0.000 C 
BRANCH  22  23
ATOM     23  C   UNL     1       6.749   5.238  16.237  0.00  0.00    +0.000 C 
BRANCH  23  25
ATOM     24  C   UNL     1       6.762   4.500  14.001  0.00  0.00    +0.000 C 
ATOM     25  O   UNL     1       7.561   4.865  15.122  0.00  0.00    +0.000 OA
ENDBRANCH  23  25
ENDBRANCH  22  23
ENDBRANCH   1  22
TORSDOF 4
ENDMDL
MODEL 9
REMARK VINA RESULT:      -6.9      1.554      2.167
REMARK  Name = 
REMARK  5 active torsions:
REMARK  status: ('A' for Active; 'I' for Inactive)
REMARK    1  A    between atoms: C_1  and  O_2
REMARK    2  A    between atoms: O_2  and  C_3
REMARK    3  A    between atoms: C_3  and  C_4
REMARK    4  A    between atoms: C_4  and  N_5
REMARK    5  A    between atoms: C_10  and  C_11
REMARK                            x       y       z     vdW  Elec       q    Type
REMARK                         _______ _______ _______ _____ _____    ______ ____
ROOT
ATOM      1  N   UNL     1       4.928   4.547  16.568  0.00  0.00    +0.000 N 
ATOM      2  C   UNL     1       4.481   3.330  17.022  0.00  0.00    +0.000 A 
ATOM      3  C   UNL     1       3.479   3.560  17.932  0.00  0.00    +0.000 A 
ATOM      4  C   UNL     1       3.303   4.969  18.033  0.00  0.00    +0.000 A 
ATOM      5  C   UNL     1       2.440   5.787  18.794  0.00  0.00    +0.000 A 
ATOM      6  C   UNL     1       2.531   7.197  18.732  0.00  0.00    +0.000 A 
ATOM      7  C   UNL     1       3.510   7.770  17.923  0.00  0.00    +0.000 A 
ATOM      8  C   UNL     1       4.365   6.975  17.133  0.00  0.00    +0.000 A 
ATOM      9  C   UNL     1       4.247   5.570  17.194  0.00  0.00    +0.000 A 
ENDROOT
BRANCH   6  10
ATOM     10  C   UNL     1       1.732   7.964  19.720  0.00  0.00    +0.000 C 
ATOM     11  O   UNL     1       1.633   7.473  20.855  0.00  0.00    +0.000 OA
ATOM     12  N   UNL     1       1.177   9.224  19.449  0.00  0.00    +0.000 N 
ATOM     13  C   UNL     1       0.748  10.007  20.654  0.00  0.00    +0.000 C 
ATOM     14  C   UNL     1       0.686  11.519  20.379  0.00  0.00    +0.000 C 
ATOM     15  C   UNL     1      -0.368  11.635  19.348  0.00  0.00    +0.000 A 
ATOM     16  N   UNL     1      -1.548  12.276  19.526  0.00  0.00    +0.000 NA
ATOM     17  C   UNL     1      -2.386  11.634  18.747  0.00  0.00    +0.000 A 
ATOM     18  N   UNL     1      -1.763  10.645  18.030  0.00  0.00    +0.000 N 
ATOM     19  C   UNL     1      -0.439  10.663  18.373  0.00  0.00    +0.000 A 
ATOM     20  C   UNL     1       0.639   9.651  18.127  0.00  0.00    +0.000 C 
ATOM     21  H   UNL     1      -2.246   9.917  17.505  0.00  0.00    +0.000 HD
ENDBRANCH   6  10
BRANCH   1  22
ATOM     22  C   UNL     1       5.921   4.684  15.504  0.00  0.00    +0.000 C 
BRANCH  22  23
ATOM     23  C   UNL     1       5.406   4.287  14.127  0.00  0.00    +0.000 C 
BRANCH  23  25
ATOM     24  C   UNL     1       6.094   3.189  12.161  0.00  0.00    +0.000 C 
ATOM     25  O   UNL     1       6.512   3.958  13.284  0.00  0.00    +0.000 OA
ENDBRANCH  23  25
ENDBRANCH  22  23
ENDBRANCH   1  22
TORSDOF 4
ENDMDL
