MODEL 1
REMARK VINA RESULT:      -8.8      0.000      0.000
REMARK  Name = 
REMARK  6 active torsions:
REMARK  status: ('A' for Active; 'I' for Inactive)
REMARK    1  A    between atoms: C_1  and  O_2
REMARK    2  A    between atoms: O_2  and  C_3
REMARK    3  A    between atoms: C_8  and  N_9
REMARK    4  A    between atoms: C_13  and  C_15
REMARK    5  A    between atoms: C_19  and  S_20
REMARK    6  A    between atoms: S_20  and  N_23
REMARK                            x       y       z     vdW  Elec       q    Type
REMARK                         _______ _______ _______ _____ _____    ______ ____
ROOT
ATOM      1  N   UNL     1      -0.292  11.090  21.077  0.00  0.00    +0.000 N 
ATOM      2  C   UNL     1      -0.222  11.177  19.609  0.00  0.00    +0.000 C 
ATOM      3  C   UNL     1       1.068  10.485  19.110  0.00  0.00    +0.000 C 
ATOM      4  N   UNL     1       1.236   9.128  19.653  0.00  0.00    +0.000 N 
ATOM      5  C   UNL     1       1.917   8.197  18.868  0.00  0.00    +0.000 C 
ATOM      6  O   UNL     1       2.407   8.473  17.774  0.00  0.00    +0.000 OA
ATOM      7  C   UNL     1       1.110   9.074  21.125  0.00  0.00    +0.000 C 
ATOM      8  C   UNL     1      -0.211   9.712  21.598  0.00  0.00    +0.000 C 
ENDROOT
BRANCH   1  14
ATOM      9  C   UNL     1      -0.195  13.345  22.149  0.00  0.00    +0.000 A 
ATOM     10  C   UNL     1      -0.797  14.256  23.037  0.00  0.00    +0.000 A 
ATOM     11  C   UNL     1      -2.029  13.981  23.628  0.00  0.00    +0.000 A 
ATOM     12  C   UNL     1      -2.669  12.786  23.350  0.00  0.00    +0.000 A 
ATOM     13  C   UNL     1      -2.066  11.865  22.491  0.00  0.00    +0.000 A 
ATOM     14  C   UNL     1      -0.821  12.103  21.868  0.00  0.00    +0.000 A 
BRANCH   9  16
ATOM     15  C   UNL     1       1.634  14.850  21.859  0.00  0.00    +0.000 C 
ATOM     16  O   UNL     1       1.002  13.619  21.525  0.00  0.00    +0.000 OA
ENDBRANCH   9  16
ENDBRANCH   1  14
BRANCH   5  17
ATOM     17  C   UNL     1       2.035   6.789  19.330  0.00  0.00    +0.000 A 
ATOM     18  C   UNL     1       1.660   6.465  20.640  0.00  0.00    +0.000 A 
ATOM     19  C   UNL     1       1.734   5.144  21.091  0.00  0.00    +0.000 A 
ATOM     20  C   UNL     1       2.170   4.138  20.228  0.00  0.00    +0.000 A 
ATOM     21  C   UNL     1       2.600   4.473  18.941  0.00  0.00    +0.000 A 
ATOM     22  C   UNL     1       2.564   5.798  18.500  0.00  0.00    +0.000 A 
BRANCH  21  23
ATOM     23  S   UNL     1       3.063   3.202  17.779  0.00  0.00    +0.000 S 
ATOM     24  O   UNL     1       3.147   1.956  18.514  0.00  0.00    +0.000 OA
ATOM     25  O   UNL     1       2.182   3.336  16.638  0.00  0.00    +0.000 OA
BRANCH  23  26
ATOM     26  N   UNL     1       4.642   3.667  17.320  0.00  0.00    +0.000 NA
ATOM     27  C   UNL     1       4.783   4.310  15.996  0.00  0.00    +0.000 C 
ATOM     28  C   UNL     1       6.080   3.895  15.305  0.00  0.00    +0.000 C 
ATOM     29  C   UNL     1       7.294   4.722  15.712  0.00  0.00    +0.000 C 
ATOM     30  C   UNL     1       7.668   4.603  17.183  0.00  0.00    +0.000 C 
ATOM     31  C   UNL     1       6.583   5.126  18.116  0.00  0.00    +0.000 C 
ATOM     32  C   UNL     1       5.512   4.097  18.441  0.00  0.00    +0.000 C 
ENDBRANCH  23  26
ENDBRANCH  21  23
ENDBRANCH   5  17
TORSDOF 5
ENDMDL
MODEL 2
REMARK VINA RESULT:      -8.5      1.339      1.799
REMARK  Name = 
REMARK  6 active torsions:
REMARK  status: ('A' for Active; 'I' for Inactive)
REMARK    1  A    between atoms: C_1  and  O_2
REMARK    2  A    between atoms: O_2  and  C_3
REMARK    3  A    between atoms: C_8  and  N_9
REMARK    4  A    between atoms: C_13  and  C_15
REMARK    5  A    between atoms: C_19  and  S_20
REMARK    6  A    between atoms: S_20  and  N_23
REMARK                            x       y       z     vdW  Elec       q    Type
REMARK                         _______ _______ _______ _____ _____    ______ ____
ROOT
ATOM      1  N   UNL     1      -0.271  11.002  21.084  0.00  0.00    +0.000 N 
ATOM      2  C   UNL     1      -0.356  10.991  19.614  0.00  0.00    +0.000 C 
ATOM      3  C   UNL     1       0.948  10.402  19.024  0.00  0.00    +0.000 C 
ATOM      4  N   UNL     1       1.316   9.112  19.627  0.00  0.00    +0.000 N 
ATOM      5  C   UNL     1       2.015   8.202  18.832  0.00  0.00    +0.000 C 
ATOM      6  O   UNL     1       2.361   8.449  17.678  0.00  0.00    +0.000 OA
ATOM      7  C   UNL     1       1.342   9.150  21.105  0.00  0.00    +0.000 C 
ATOM      8  C   UNL     1       0.012   9.681  21.676  0.00  0.00    +0.000 C 
ENDROOT
BRANCH   1  14
ATOM      9  C   UNL     1      -0.210  13.247  22.180  0.00  0.00    +0.000 A 
ATOM     10  C   UNL     1      -0.843  14.152  23.053  0.00  0.00    +0.000 A 
ATOM     11  C   UNL     1      -2.097  13.873  23.595  0.00  0.00    +0.000 A 
ATOM     12  C   UNL     1      -2.728  12.682  23.282  0.00  0.00    +0.000 A 
ATOM     13  C   UNL     1      -2.095  11.768  22.439  0.00  0.00    +0.000 A 
ATOM     14  C   UNL     1      -0.827  12.009  21.864  0.00  0.00    +0.000 A 
BRANCH   9  16
ATOM     15  C   UNL     1       1.007  14.398  20.480  0.00  0.00    +0.000 C 
ATOM     16  O   UNL     1       1.010  13.525  21.604  0.00  0.00    +0.000 OA
ENDBRANCH   9  16
ENDBRANCH   1  14
BRANCH   5  17
ATOM     17  C   UNL     1       2.331   6.850  19.363  0.00  0.00    +0.000 A 
ATOM     18  C   UNL     1       1.331   6.123  20.022  0.00  0.00    +0.000 A 
ATOM     19  C   UNL     1       1.594   4.838  20.505  0.00  0.00    +0.000 A 
ATOM     20  C   UNL     1       2.854   4.269  20.319  0.00  0.00    +0.000 A 
ATOM     21  C   UNL     1       3.866   5.019  19.715  0.00  0.00    +0.000 A 
ATOM     22  C   UNL     1       3.618   6.318  19.266  0.00  0.00    +0.000 A 
BRANCH  21  23
ATOM     23  S   UNL     1       5.455   4.288  19.367  0.00  0.00    +0.000 S 
ATOM     24  O   UNL     1       6.456   5.091  20.043  0.00  0.00    +0.000 OA
ATOM     25  O   UNL     1       5.332   2.871  19.635  0.00  0.00    +0.000 OA
BRANCH  23  26
ATOM     26  N   UNL     1       5.619   4.524  17.684  0.00  0.00    +0.000 NA
ATOM     27  C   UNL     1       6.990   4.753  17.178  0.00  0.00    +0.000 C 
ATOM     28  C   UNL     1       7.005   5.761  16.031  0.00  0.00    +0.000 C 
ATOM     29  C   UNL     1       6.722   5.151  14.664  0.00  0.00    +0.000 C 
ATOM     30  C   UNL     1       5.336   4.538  14.526  0.00  0.00    +0.000 C 
ATOM     31  C   UNL     1       5.110   3.361  15.466  0.00  0.00    +0.000 C 
ATOM     32  C   UNL     1       4.648   3.771  16.854  0.00  0.00    +0.000 C 
ENDBRANCH  23  26
ENDBRANCH  21  23
ENDBRANCH   5  17
TORSDOF 5
ENDMDL
MODEL 3
REMARK VINA RESULT:      -8.5      1.267      1.756
REMARK  Name = 
REMARK  6 active torsions:
REMARK  status: ('A' for Active; 'I' for Inactive)
REMARK    1  A    between atoms: C_1  and  O_2
REMARK    2  A    between atoms: O_2  and  C_3
REMARK    3  A    between atoms: C_8  and  N_9
REMARK    4  A    between atoms: C_13  and  C_15
REMARK    5  A    between atoms: C_19  and  S_20
REMARK    6  A    between atoms: S_20  and  N_23
REMARK                            x       y       z     vdW  Elec       q    Type
REMARK                         _______ _______ _______ _____ _____    ______ ____
ROOT
ATOM      1  N   UNL     1      -0.488  11.199  20.404  0.00  0.00    +0.000 N 
ATOM      2  C   UNL     1      -0.174  11.238  18.967  0.00  0.00    +0.000 C 
ATOM      3  C   UNL     1       1.188  10.549  18.715  0.00  0.00    +0.000 C 
ATOM      4  N   UNL     1       1.273   9.213  19.324  0.00  0.00    +0.000 N 
ATOM      5  C   UNL     1       2.084   8.266  18.697  0.00  0.00    +0.000 C 
ATOM      6  O   UNL     1       2.749   8.513  17.691  0.00  0.00    +0.000 OA
ATOM      7  C   UNL     1       0.903   9.205  20.756  0.00  0.00    +0.000 C 
ATOM      8  C   UNL     1      -0.484   9.840  20.979  0.00  0.00    +0.000 C 
ENDROOT
BRANCH   1  14
ATOM      9  C   UNL     1      -2.420  12.754  20.706  0.00  0.00    +0.000 A 
ATOM     10  C   UNL     1      -2.948  13.859  21.400  0.00  0.00    +0.000 A 
ATOM     11  C   UNL     1      -2.261  14.437  22.466  0.00  0.00    +0.000 A 
ATOM     12  C   UNL     1      -1.032  13.927  22.844  0.00  0.00    +0.000 A 
ATOM     13  C   UNL     1      -0.489  12.848  22.144  0.00  0.00    +0.000 A 
ATOM     14  C   UNL     1      -1.150  12.229  21.061  0.00  0.00    +0.000 A 
BRANCH   9  16
ATOM     15  C   UNL     1      -4.505  12.386  19.606  0.00  0.00    +0.000 C 
ATOM     16  O   UNL     1      -3.105  12.145  19.677  0.00  0.00    +0.000 OA
ENDBRANCH   9  16
ENDBRANCH   1  14
BRANCH   5  17
ATOM     17  C   UNL     1       2.135   6.875  19.220  0.00  0.00    +0.000 A 
ATOM     18  C   UNL     1       1.706   6.621  20.529  0.00  0.00    +0.000 A 
ATOM     19  C   UNL     1       1.715   5.319  21.036  0.00  0.00    +0.000 A 
ATOM     20  C   UNL     1       2.141   4.262  20.231  0.00  0.00    +0.000 A 
ATOM     21  C   UNL     1       2.626   4.526  18.946  0.00  0.00    +0.000 A 
ATOM     22  C   UNL     1       2.653   5.832  18.451  0.00  0.00    +0.000 A 
BRANCH  21  23
ATOM     23  S   UNL     1       3.079   3.192  17.854  0.00  0.00    +0.000 S 
ATOM     24  O   UNL     1       3.190   1.993  18.661  0.00  0.00    +0.000 OA
ATOM     25  O   UNL     1       2.175   3.249  16.725  0.00  0.00    +0.000 OA
BRANCH  23  26
ATOM     26  N   UNL     1       4.643   3.642  17.336  0.00  0.00    +0.000 NA
ATOM     27  C   UNL     1       4.742   4.278  16.005  0.00  0.00    +0.000 C 
ATOM     28  C   UNL     1       6.010   3.850  15.270  0.00  0.00    +0.000 C 
ATOM     29  C   UNL     1       7.244   4.669  15.630  0.00  0.00    +0.000 C 
ATOM     30  C   UNL     1       7.670   4.553  17.086  0.00  0.00    +0.000 C 
ATOM     31  C   UNL     1       6.624   5.088  18.056  0.00  0.00    +0.000 C 
ATOM     32  C   UNL     1       5.557   4.070  18.423  0.00  0.00    +0.000 C 
ENDBRANCH  23  26
ENDBRANCH  21  23
ENDBRANCH   5  17
TORSDOF 5
ENDMDL
MODEL 4
REMARK VINA RESULT:      -8.5      3.673     10.386
REMARK  Name = 
REMARK  6 active torsions:
REMARK  status: ('A' for Active; 'I' for Inactive)
REMARK    1  A    between atoms: C_1  and  O_2
REMARK    2  A    between atoms: O_2  and  C_3
REMARK    3  A    between atoms: C_8  and  N_9
REMARK    4  A    between atoms: C_13  and  C_15
REMARK    5  A    between atoms: C_19  and  S_20
REMARK    6  A    between atoms: S_20  and  N_23
REMARK                            x       y       z     vdW  Elec       q    Type
REMARK                         _______ _______ _______ _____ _____    ______ ____
ROOT
ATOM      1  N   UNL     1       3.117   6.639  18.139  0.00  0.00    +0.000 N 
ATOM      2  C   UNL     1       2.474   6.215  19.393  0.00  0.00    +0.000 C 
ATOM      3  C   UNL     1       2.242   7.448  20.299  0.00  0.00    +0.000 C 
ATOM      4  N   UNL     1       1.559   8.548  19.602  0.00  0.00    +0.000 N 
ATOM      5  C   UNL     1       0.747   9.391  20.362  0.00  0.00    +0.000 C 
ATOM      6  O   UNL     1       0.611   9.272  21.579  0.00  0.00    +0.000 OA
ATOM      7  C   UNL     1       2.206   8.913  18.323  0.00  0.00    +0.000 C 
ATOM      8  C   UNL     1       2.372   7.682  17.409  0.00  0.00    +0.000 C 
ENDROOT
BRANCH   1  14
ATOM      9  C   UNL     1       3.900   4.500  17.113  0.00  0.00    +0.000 A 
ATOM     10  C   UNL     1       4.963   3.797  16.515  0.00  0.00    +0.000 A 
ATOM     11  C   UNL     1       6.175   4.426  16.232  0.00  0.00    +0.000 A 
ATOM     12  C   UNL     1       6.343   5.761  16.554  0.00  0.00    +0.000 A 
ATOM     13  C   UNL     1       5.303   6.458  17.171  0.00  0.00    +0.000 A 
ATOM     14  C   UNL     1       4.058   5.863  17.474  0.00  0.00    +0.000 A 
BRANCH   9  16
ATOM     15  C   UNL     1       2.709   2.610  17.954  0.00  0.00    +0.000 C 
ATOM     16  O   UNL     1       2.683   3.904  17.362  0.00  0.00    +0.000 OA
ENDBRANCH   9  16
ENDBRANCH   1  14
BRANCH   5  17
ATOM     17  C   UNL     1      -0.036  10.462  19.692  0.00  0.00    +0.000 A 
ATOM     18  C   UNL     1       0.496  11.756  19.623  0.00  0.00    +0.000 A 
ATOM     19  C   UNL     1      -0.207  12.775  18.973  0.00  0.00    +0.000 A 
ATOM     20  C   UNL     1      -1.438  12.501  18.379  0.00  0.00    +0.000 A 
ATOM     21  C   UNL     1      -1.994  11.225  18.502  0.00  0.00    +0.000 A 
ATOM     22  C   UNL     1      -1.313  10.214  19.183  0.00  0.00    +0.000 A 
BRANCH  21  23
ATOM     23  S   UNL     1      -3.515  10.811  17.666  0.00  0.00    +0.000 S 
ATOM     24  O   UNL     1      -3.648  11.716  16.542  0.00  0.00    +0.000 OA
ATOM     25  O   UNL     1      -3.508   9.377  17.471  0.00  0.00    +0.000 OA
BRANCH  23  26
ATOM     26  N   UNL     1      -4.704  11.209  18.826  0.00  0.00    +0.000 NA
ATOM     27  C   UNL     1      -4.586  12.537  19.465  0.00  0.00    +0.000 C 
ATOM     28  C   UNL     1      -4.993  12.491  20.936  0.00  0.00    +0.000 C 
ATOM     29  C   UNL     1      -6.492  12.634  21.172  0.00  0.00    +0.000 C 
ATOM     30  C   UNL     1      -7.329  11.511  20.577  0.00  0.00    +0.000 C 
ATOM     31  C   UNL     1      -7.239  11.441  19.059  0.00  0.00    +0.000 C 
ATOM     32  C   UNL     1      -6.047  10.641  18.556  0.00  0.00    +0.000 C 
ENDBRANCH  23  26
ENDBRANCH  21  23
ENDBRANCH   5  17
TORSDOF 5
ENDMDL
MODEL 5
REMARK VINA RESULT:      -8.4      3.762     10.354
REMARK  Name = 
REMARK  6 active torsions:
REMARK  status: ('A' for Active; 'I' for Inactive)
REMARK    1  A    between atoms: C_1  and  O_2
REMARK    2  A    between atoms: O_2  and  C_3
REMARK    3  A    between atoms: C_8  and  N_9
REMARK    4  A    between atoms: C_13  and  C_15
REMARK    5  A    between atoms: C_19  and  S_20
REMARK    6  A    between atoms: S_20  and  N_23
REMARK                            x       y       z     vdW  Elec       q    Type
REMARK                         _______ _______ _______ _____ _____    ______ ____
ROOT
ATOM      1  N   UNL     1       3.154   6.616  18.177  0.00  0.00    +0.000 N 
ATOM      2  C   UNL     1       2.422   6.173  19.374  0.00  0.00    +0.000 C 
ATOM      3  C   UNL     1       2.146   7.387  20.293  0.00  0.00    +0.000 C 
ATOM      4  N   UNL     1       1.529   8.515  19.579  0.00  0.00    +0.000 N 
ATOM      5  C   UNL     1       0.679   9.352  20.304  0.00  0.00    +0.000 C 
ATOM      6  O   UNL     1       0.460   9.206  21.506  0.00  0.00    +0.000 OA
ATOM      7  C   UNL     1       2.265   8.899  18.356  0.00  0.00    +0.000 C 
ATOM      8  C   UNL     1       2.474   7.688  17.425  0.00  0.00    +0.000 C 
ENDROOT
BRANCH   1  14
ATOM      9  C   UNL     1       3.976   4.487  17.162  0.00  0.00    +0.000 A 
ATOM     10  C   UNL     1       5.068   3.782  16.618  0.00  0.00    +0.000 A 
ATOM     11  C   UNL     1       6.301   4.402  16.423  0.00  0.00    +0.000 A 
ATOM     12  C   UNL     1       6.463   5.729  16.781  0.00  0.00    +0.000 A 
ATOM     13  C   UNL     1       5.394   6.427  17.344  0.00  0.00    +0.000 A 
ATOM     14  C   UNL     1       4.127   5.841  17.557  0.00  0.00    +0.000 A 
BRANCH   9  16
ATOM     15  C   UNL     1       2.722   2.527  17.693  0.00  0.00    +0.000 C 
ATOM     16  O   UNL     1       2.740   3.901  17.323  0.00  0.00    +0.000 OA
ENDBRANCH   9  16
ENDBRANCH   1  14
BRANCH   5  17
ATOM     17  C   UNL     1      -0.042  10.451  19.610  0.00  0.00    +0.000 A 
ATOM     18  C   UNL     1       0.490  11.747  19.646  0.00  0.00    +0.000 A 
ATOM     19  C   UNL     1      -0.152  12.793  18.977  0.00  0.00    +0.000 A 
ATOM     20  C   UNL     1      -1.321  12.546  18.259  0.00  0.00    +0.000 A 
ATOM     21  C   UNL     1      -1.882  11.266  18.275  0.00  0.00    +0.000 A 
ATOM     22  C   UNL     1      -1.264  10.226  18.974  0.00  0.00    +0.000 A 
BRANCH  21  23
ATOM     23  S   UNL     1      -3.317  10.889  17.285  0.00  0.00    +0.000 S 
ATOM     24  O   UNL     1      -3.135  11.538  16.001  0.00  0.00    +0.000 OA
ATOM     25  O   UNL     1      -3.524   9.460  17.375  0.00  0.00    +0.000 OA
BRANCH  23  26
ATOM     26  N   UNL     1      -4.574  11.687  18.121  0.00  0.00    +0.000 NA
ATOM     27  C   UNL     1      -5.934  11.131  17.958  0.00  0.00    +0.000 C 
ATOM     28  C   UNL     1      -6.990  12.233  17.914  0.00  0.00    +0.000 C 
ATOM     29  C   UNL     1      -7.464  12.694  19.287  0.00  0.00    +0.000 C 
ATOM     30  C   UNL     1      -6.379  13.332  20.143  0.00  0.00    +0.000 C 
ATOM     31  C   UNL     1      -5.252  12.368  20.490  0.00  0.00    +0.000 C 
ATOM     32  C   UNL     1      -4.175  12.281  19.420  0.00  0.00    +0.000 C 
ENDBRANCH  23  26
ENDBRANCH  21  23
ENDBRANCH   5  17
TORSDOF 5
ENDMDL
MODEL 6
REMARK VINA RESULT:      -8.4      0.802      1.378
REMARK  Name = 
REMARK  6 active torsions:
REMARK  status: ('A' for Active; 'I' for Inactive)
REMARK    1  A    between atoms: C_1  and  O_2
REMARK    2  A    between atoms: O_2  and  C_3
REMARK    3  A    between atoms: C_8  and  N_9
REMARK    4  A    between atoms: C_13  and  C_15
REMARK    5  A    between atoms: C_19  and  S_20
REMARK    6  A    between atoms: S_20  and  N_23
REMARK                            x       y       z     vdW  Elec       q    Type
REMARK                         _______ _______ _______ _____ _____    ______ ____
ROOT
ATOM      1  N   UNL     1      -0.122  10.959  20.852  0.00  0.00    +0.000 N 
ATOM      2  C   UNL     1      -0.014  10.930  19.385  0.00  0.00    +0.000 C 
ATOM      3  C   UNL     1       1.285  10.197  18.974  0.00  0.00    +0.000 C 
ATOM      4  N   UNL     1       1.431   8.886  19.626  0.00  0.00    +0.000 N 
ATOM      5  C   UNL     1       2.128   7.894  18.934  0.00  0.00    +0.000 C 
ATOM      6  O   UNL     1       2.647   8.082  17.835  0.00  0.00    +0.000 OA
ATOM      7  C   UNL     1       1.268   8.948  21.094  0.00  0.00    +0.000 C 
ATOM      8  C   UNL     1      -0.061   9.626  21.482  0.00  0.00    +0.000 C 
ENDROOT
BRANCH   1  14
ATOM      9  C   UNL     1       0.028  13.214  21.918  0.00  0.00    +0.000 A 
ATOM     10  C   UNL     1      -0.612  14.195  22.698  0.00  0.00    +0.000 A 
ATOM     11  C   UNL     1      -1.941  14.050  23.093  0.00  0.00    +0.000 A 
ATOM     12  C   UNL     1      -2.643  12.915  22.724  0.00  0.00    +0.000 A 
ATOM     13  C   UNL     1      -2.008  11.926  21.973  0.00  0.00    +0.000 A 
ATOM     14  C   UNL     1      -0.665  12.032  21.548  0.00  0.00    +0.000 A 
BRANCH   9  16
ATOM     15  C   UNL     1       1.900  14.659  21.600  0.00  0.00    +0.000 C 
ATOM     16  O   UNL     1       1.327  13.362  21.485  0.00  0.00    +0.000 OA
ENDBRANCH   9  16
ENDBRANCH   1  14
BRANCH   5  17
ATOM     17  C   UNL     1       2.226   6.526  19.507  0.00  0.00    +0.000 A 
ATOM     18  C   UNL     1       1.368   6.159  20.552  0.00  0.00    +0.000 A 
ATOM     19  C   UNL     1       1.420   4.870  21.090  0.00  0.00    +0.000 A 
ATOM     20  C   UNL     1       2.321   3.937  20.575  0.00  0.00    +0.000 A 
ATOM     21  C   UNL     1       3.217   4.324  19.575  0.00  0.00    +0.000 A 
ATOM     22  C   UNL     1       3.194   5.623  19.062  0.00  0.00    +0.000 A 
BRANCH  21  23
ATOM     23  S   UNL     1       4.310   3.132  18.822  0.00  0.00    +0.000 S 
ATOM     24  O   UNL     1       5.250   2.708  19.840  0.00  0.00    +0.000 OA
ATOM     25  O   UNL     1       3.472   2.172  18.135  0.00  0.00    +0.000 OA
BRANCH  23  26
ATOM     26  N   UNL     1       5.149   4.067  17.665  0.00  0.00    +0.000 NA
ATOM     27  C   UNL     1       6.477   4.578  18.065  0.00  0.00    +0.000 C 
ATOM     28  C   UNL     1       6.735   5.974  17.503  0.00  0.00    +0.000 C 
ATOM     29  C   UNL     1       7.283   5.981  16.081  0.00  0.00    +0.000 C 
ATOM     30  C   UNL     1       6.340   5.392  15.043  0.00  0.00    +0.000 C 
ATOM     31  C   UNL     1       6.044   3.916  15.276  0.00  0.00    +0.000 C 
ATOM     32  C   UNL     1       4.909   3.670  16.256  0.00  0.00    +0.000 C 
ENDBRANCH  23  26
ENDBRANCH  21  23
ENDBRANCH   5  17
TORSDOF 5
ENDMDL
MODEL 7
REMARK VINA RESULT:      -8.3      3.058      4.368
REMARK  Name = 
REMARK  6 active torsions:
REMARK  status: ('A' for Active; 'I' for Inactive)
REMARK    1  A    between atoms: C_1  and  O_2
REMARK    2  A    between atoms: O_2  and  C_3
REMARK    3  A    between atoms: C_8  and  N_9
REMARK    4  A    between atoms: C_13  and  C_15
REMARK    5  A    between atoms: C_19  and  S_20
REMARK    6  A    between atoms: S_20  and  N_23
REMARK                            x       y       z     vdW  Elec       q    Type
REMARK                         _______ _______ _______ _____ _____    ______ ____
ROOT
ATOM      1  N   UNL     1       1.241   9.641  19.207  0.00  0.00    +0.000 N 
ATOM      2  C   UNL     1       1.559   9.200  20.575  0.00  0.00    +0.000 C 
ATOM      3  C   UNL     1       1.379   7.667  20.680  0.00  0.00    +0.000 C 
ATOM      4  N   UNL     1       2.089   6.935  19.620  0.00  0.00    +0.000 N 
ATOM      5  C   UNL     1       2.551   5.652  19.917  0.00  0.00    +0.000 C 
ATOM      6  O   UNL     1       2.357   5.104  21.002  0.00  0.00    +0.000 OA
ATOM      7  C   UNL     1       1.783   7.438  18.263  0.00  0.00    +0.000 C 
ATOM      8  C   UNL     1       2.027   8.957  18.162  0.00  0.00    +0.000 C 
ENDROOT
BRANCH   1  14
ATOM      9  C   UNL     1      -0.713  11.017  18.479  0.00  0.00    +0.000 A 
ATOM     10  C   UNL     1      -1.198  12.297  18.150  0.00  0.00    +0.000 A 
ATOM     11  C   UNL     1      -0.398  13.430  18.292  0.00  0.00    +0.000 A 
ATOM     12  C   UNL     1       0.900  13.297  18.752  0.00  0.00    +0.000 A 
ATOM     13  C   UNL     1       1.397  12.029  19.055  0.00  0.00    +0.000 A 
ATOM     14  C   UNL     1       0.623  10.854  18.930  0.00  0.00    +0.000 A 
BRANCH   9  16
ATOM     15  C   UNL     1      -2.767  10.047  17.748  0.00  0.00    +0.000 C 
ATOM     16  O   UNL     1      -1.503   9.892  18.382  0.00  0.00    +0.000 OA
ENDBRANCH   9  16
ENDBRANCH   1  14
BRANCH   5  17
ATOM     17  C   UNL     1       3.352   4.905  18.912  0.00  0.00    +0.000 A 
ATOM     18  C   UNL     1       2.957   3.611  18.547  0.00  0.00    +0.000 A 
ATOM     19  C   UNL     1       3.677   2.898  17.583  0.00  0.00    +0.000 A 
ATOM     20  C   UNL     1       4.786   3.481  16.971  0.00  0.00    +0.000 A 
ATOM     21  C   UNL     1       5.213   4.747  17.381  0.00  0.00    +0.000 A 
ATOM     22  C   UNL     1       4.520   5.447  18.371  0.00  0.00    +0.000 A 
BRANCH  21  23
ATOM     23  S   UNL     1       6.562   5.565  16.548  0.00  0.00    +0.000 S 
ATOM     24  O   UNL     1       6.208   6.966  16.429  0.00  0.00    +0.000 OA
ATOM     25  O   UNL     1       7.777   5.159  17.220  0.00  0.00    +0.000 OA
BRANCH  23  26
ATOM     26  N   UNL     1       6.526   4.863  14.991  0.00  0.00    +0.000 NA
ATOM     27  C   UNL     1       5.217   4.843  14.305  0.00  0.00    +0.000 C 
ATOM     28  C   UNL     1       5.029   3.565  13.490  0.00  0.00    +0.000 C 
ATOM     29  C   UNL     1       5.636   3.623  12.094  0.00  0.00    +0.000 C 
ATOM     30  C   UNL     1       7.148   3.789  12.074  0.00  0.00    +0.000 C 
ATOM     31  C   UNL     1       7.610   5.104  12.689  0.00  0.00    +0.000 C 
ATOM     32  C   UNL     1       7.767   5.047  14.200  0.00  0.00    +0.000 C 
ENDBRANCH  23  26
ENDBRANCH  21  23
ENDBRANCH   5  17
TORSDOF 5
ENDMDL
MODEL 8
REMARK VINA RESULT:      -8.3      3.416      9.742
REMARK  Name = 
REMARK  6 active torsions:
REMARK  status: ('A' for Active; 'I' for Inactive)
REMARK    1  A    between atoms: C_1  and  O_2
REMARK    2  A    between atoms: O_2  and  C_3
REMARK    3  A    between atoms: C_8  and  N_9
REMARK    4  A    between atoms: C_13  and  C_15
REMARK    5  A    between atoms: C_19  and  S_20
REMARK    6  A    between atoms: S_20  and  N_23
REMARK                            x       y       z     vdW  Elec       q    Type
REMARK                         _______ _______ _______ _____ _____    ______ ____
ROOT
ATOM      1  N   UNL     1       3.611   6.447  17.871  0.00  0.00    +0.000 N 
ATOM      2  C   UNL     1       2.752   5.799  18.876  0.00  0.00    +0.000 C 
ATOM      3  C   UNL     1       2.407   6.813  19.993  0.00  0.00    +0.000 C 
ATOM      4  N   UNL     1       1.885   8.084  19.469  0.00  0.00    +0.000 N 
ATOM      5  C   UNL     1       0.981   8.790  20.264  0.00  0.00    +0.000 C 
ATOM      6  O   UNL     1       0.638   8.413  21.384  0.00  0.00    +0.000 OA
ATOM      7  C   UNL     1       2.750   8.679  18.427  0.00  0.00    +0.000 C 
ATOM      8  C   UNL     1       3.031   7.674  17.292  0.00  0.00    +0.000 C 
ENDROOT
BRANCH   1  14
ATOM      9  C   UNL     1       5.930   6.282  16.957  0.00  0.00    +0.000 A 
ATOM     10  C   UNL     1       6.847   5.537  16.192  0.00  0.00    +0.000 A 
ATOM     11  C   UNL     1       6.514   4.280  15.690  0.00  0.00    +0.000 A 
ATOM     12  C   UNL     1       5.257   3.757  15.936  0.00  0.00    +0.000 A 
ATOM     13  C   UNL     1       4.333   4.500  16.672  0.00  0.00    +0.000 A 
ATOM     14  C   UNL     1       4.628   5.776  17.202  0.00  0.00    +0.000 A 
BRANCH   9  16
ATOM     15  C   UNL     1       7.643   7.817  17.595  0.00  0.00    +0.000 C 
ATOM     16  O   UNL     1       6.258   7.508  17.495  0.00  0.00    +0.000 OA
ENDBRANCH   9  16
ENDBRANCH   1  14
BRANCH   5  17
ATOM     17  C   UNL     1       0.355  10.034  19.744  0.00  0.00    +0.000 A 
ATOM     18  C   UNL     1      -0.606   9.942  18.728  0.00  0.00    +0.000 A 
ATOM     19  C   UNL     1      -1.231  11.094  18.241  0.00  0.00    +0.000 A 
ATOM     20  C   UNL     1      -0.908  12.341  18.777  0.00  0.00    +0.000 A 
ATOM     21  C   UNL     1       0.094  12.435  19.747  0.00  0.00    +0.000 A 
ATOM     22  C   UNL     1       0.748  11.290  20.209  0.00  0.00    +0.000 A 
BRANCH  21  23
ATOM     23  S   UNL     1       0.459  13.996  20.528  0.00  0.00    +0.000 S 
ATOM     24  O   UNL     1      -0.793  14.715  20.658  0.00  0.00    +0.000 OA
ATOM     25  O   UNL     1       1.274  13.703  21.688  0.00  0.00    +0.000 OA
BRANCH  23  26
ATOM     26  N   UNL     1       1.420  14.788  19.359  0.00  0.00    +0.000 NA
ATOM     27  C   UNL     1       1.522  16.258  19.473  0.00  0.00    +0.000 C 
ATOM     28  C   UNL     1       1.561  16.927  18.101  0.00  0.00    +0.000 C 
ATOM     29  C   UNL     1       2.951  16.990  17.479  0.00  0.00    +0.000 C 
ATOM     30  C   UNL     1       3.568  15.631  17.185  0.00  0.00    +0.000 C 
ATOM     31  C   UNL     1       3.805  14.801  18.440  0.00  0.00    +0.000 C 
ATOM     32  C   UNL     1       2.587  14.006  18.883  0.00  0.00    +0.000 C 
ENDBRANCH  23  26
ENDBRANCH  21  23
ENDBRANCH   5  17
TORSDOF 5
ENDMDL
MODEL 9
REMARK VINA RESULT:      -8.2      3.718     10.156
REMARK  Name = 
REMARK  6 active torsions:
REMARK  status: ('A' for Active; 'I' for Inactive)
REMARK    1  A    between atoms: C_1  and  O_2
REMARK    2  A    between atoms: O_2  and  C_3
REMARK    3  A    between atoms: C_8  and  N_9
REMARK    4  A    between atoms: C_13  and  C_15
REMARK    5  A    between atoms: C_19  and  S_20
REMARK    6  A    between atoms: S_20  and  N_23
REMARK                            x       y       z     vdW  Elec       q    Type
REMARK                         _______ _______ _______ _____ _____    ______ ____
ROOT
ATOM      1  N   UNL     1       3.458   6.578  17.948  0.00  0.00    +0.000 N 
ATOM      2  C   UNL     1       2.719   6.077  19.118  0.00  0.00    +0.000 C 
ATOM      3  C   UNL     1       2.396   7.254  20.069  0.00  0.00    +0.000 C 
ATOM      4  N   UNL     1       1.758   8.386  19.380  0.00  0.00    +0.000 N 
ATOM      5  C   UNL     1       0.874   9.177  20.115  0.00  0.00    +0.000 C 
ATOM      6  O   UNL     1       0.640   8.988  21.308  0.00  0.00    +0.000 OA
ATOM      7  C   UNL     1       2.503   8.829  18.181  0.00  0.00    +0.000 C 
ATOM      8  C   UNL     1       2.761   7.653  17.217  0.00  0.00    +0.000 C 
ENDROOT
BRANCH   1  14
ATOM      9  C   UNL     1       5.754   6.334  16.993  0.00  0.00    +0.000 A 
ATOM     10  C   UNL     1       6.656   5.522  16.280  0.00  0.00    +0.000 A 
ATOM     11  C   UNL     1       6.319   4.220  15.913  0.00  0.00    +0.000 A 
ATOM     12  C   UNL     1       5.072   3.718  16.242  0.00  0.00    +0.000 A 
ATOM     13  C   UNL     1       4.163   4.526  16.926  0.00  0.00    +0.000 A 
ATOM     14  C   UNL     1       4.462   5.849  17.321  0.00  0.00    +0.000 A 
BRANCH   9  16
ATOM     15  C   UNL     1       7.472   7.891  17.562  0.00  0.00    +0.000 C 
ATOM     16  O   UNL     1       6.087   7.608  17.399  0.00  0.00    +0.000 OA
ENDBRANCH   9  16
ENDBRANCH   1  14
BRANCH   5  17
ATOM     17  C   UNL     1       0.134  10.277  19.443  0.00  0.00    +0.000 A 
ATOM     18  C   UNL     1       0.689  11.564  19.426  0.00  0.00    +0.000 A 
ATOM     19  C   UNL     1       0.029  12.610  18.776  0.00  0.00    +0.000 A 
ATOM     20  C   UNL     1      -1.184  12.372  18.129  0.00  0.00    +0.000 A 
ATOM     21  C   UNL     1      -1.765  11.102  18.200  0.00  0.00    +0.000 A 
ATOM     22  C   UNL     1      -1.126  10.064  18.881  0.00  0.00    +0.000 A 
BRANCH  21  23
ATOM     23  S   UNL     1      -3.259  10.735  17.298  0.00  0.00    +0.000 S 
ATOM     24  O   UNL     1      -3.142  11.364  15.997  0.00  0.00    +0.000 OA
ATOM     25  O   UNL     1      -3.482   9.310  17.419  0.00  0.00    +0.000 OA
BRANCH  23  26
ATOM     26  N   UNL     1      -4.454  11.563  18.194  0.00  0.00    +0.000 NA
ATOM     27  C   UNL     1      -5.782  10.918  18.280  0.00  0.00    +0.000 C 
ATOM     28  C   UNL     1      -6.910  11.947  18.247  0.00  0.00    +0.000 C 
ATOM     29  C   UNL     1      -7.239  12.552  19.606  0.00  0.00    +0.000 C 
ATOM     30  C   UNL     1      -6.103  13.350  20.229  0.00  0.00    +0.000 C 
ATOM     31  C   UNL     1      -4.877  12.499  20.534  0.00  0.00    +0.000 C 
ATOM     32  C   UNL     1      -3.939  12.337  19.349  0.00  0.00    +0.000 C 
ENDBRANCH  23  26
ENDBRANCH  21  23
ENDBRANCH   5  17
TORSDOF 5
ENDMDL
