MODEL 1
REMARK VINA RESULT:      -7.8      0.000      0.000
REMARK  Name = 
REMARK  9 active torsions:
REMARK  status: ('A' for Active; 'I' for Inactive)
REMARK    1  A    between atoms: C_1  and  O_2
REMARK    2  A    between atoms: O_2  and  C_3
REMARK    3  A    between atoms: C_5  and  O_6
REMARK    4  A    between atoms: O_6  and  C_7
REMARK    5  A    between atoms: N_13  and  S_14
REMARK    6  A    between atoms: S_14  and  C_17
REMARK    7  A    between atoms: C_22  and  O_23
REMARK    8  A    between atoms: O_23  and  C_24
REMARK    9  A    between atoms: C_24  and  C_25
REMARK                            x       y       z     vdW  Elec       q    Type
REMARK                         _______ _______ _______ _____ _____    ______ ____
ROOT
ATOM      1  C   UNL     1       3.103   3.932  19.670  0.00  0.00    +0.000 A 
ATOM      2  C   UNL     1       3.943   3.938  18.587  0.00  0.00    +0.000 A 
ATOM      3  C   UNL     1       4.135   5.165  18.016  0.00  0.00    +0.000 A 
ATOM      4  N   UNL     1       3.535   6.283  18.445  0.00  0.00    +0.000 NA
ATOM      5  C   UNL     1       2.760   6.181  19.513  0.00  0.00    +0.000 A 
ATOM      6  N   UNL     1       2.133   7.288  20.028  0.00  0.00    +0.000 N 
ATOM      7  C   UNL     1       1.902   8.452  19.367  0.00  0.00    +0.000 C 
ATOM      8  O   UNL     1       2.270   8.732  18.237  0.00  0.00    +0.000 OA
ATOM      9  N   UNL     1       1.091   9.391  20.008  0.00  0.00    +0.000 N 
ATOM     10  N   UNL     1       2.522   5.035  20.171  0.00  0.00    +0.000 NA
ATOM     11  H   UNL     1       1.710   7.096  20.923  0.00  0.00    +0.000 HD
ATOM     12  H   UNL     1       0.837  10.204  19.454  0.00  0.00    +0.000 HD
ENDROOT
BRANCH   9  13
ATOM     13  S   UNL     1       0.489   9.390  21.553  0.00  0.00    +0.000 S 
ATOM     14  O   UNL     1      -0.412   8.262  21.664  0.00  0.00    +0.000 OA
ATOM     15  O   UNL     1       1.621   9.507  22.451  0.00  0.00    +0.000 OA
BRANCH  13  16
ATOM     16  C   UNL     1      -0.486  10.895  21.632  0.00  0.00    +0.000 A 
ATOM     17  N   UNL     1      -0.574  11.378  22.908  0.00  0.00    +0.000 NA
ATOM     18  C   UNL     1      -1.260  12.523  23.075  0.00  0.00    +0.000 A 
ATOM     19  C   UNL     1      -1.870  13.201  22.039  0.00  0.00    +0.000 A 
ATOM     20  C   UNL     1      -1.772  12.675  20.750  0.00  0.00    +0.000 A 
ATOM     21  C   UNL     1      -1.063  11.492  20.525  0.00  0.00    +0.000 A 
BRANCH  21  22
ATOM     22  O   UNL     1      -1.042  10.872  19.316  0.00  0.00    +0.000 OA
BRANCH  22  23
ATOM     23  C   UNL     1      -2.181  11.136  18.485  0.00  0.00    +0.000 C 
BRANCH  23  24
ATOM     24  C   UNL     1      -2.194  10.216  17.266  0.00  0.00    +0.000 C 
ATOM     25  F   UNL     1      -1.073   9.475  17.152  0.00  0.00    +0.000 F 
ATOM     26  F   UNL     1      -3.240   9.358  17.338  0.00  0.00    +0.000 F 
ATOM     27  F   UNL     1      -2.339  10.930  16.126  0.00  0.00    +0.000 F 
ENDBRANCH  23  24
ENDBRANCH  22  23
ENDBRANCH  21  22
ENDBRANCH  13  16
ENDBRANCH   9  13
BRANCH   1  29
ATOM     28  C   UNL     1       2.093   2.791  21.455  0.00  0.00    +0.000 C 
ATOM     29  O   UNL     1       2.864   2.707  20.261  0.00  0.00    +0.000 OA
ENDBRANCH   1  29
BRANCH   3  30
ATOM     30  O   UNL     1       4.996   5.257  16.942  0.00  0.00    +0.000 OA
ATOM     31  C   UNL     1       6.291   5.721  17.339  0.00  0.00    +0.000 C 
ENDBRANCH   3  30
TORSDOF 7
ENDMDL
MODEL 2
REMARK VINA RESULT:      -7.8      0.703      1.043
REMARK  Name = 
REMARK  9 active torsions:
REMARK  status: ('A' for Active; 'I' for Inactive)
REMARK    1  A    between atoms: C_1  and  O_2
REMARK    2  A    between atoms: O_2  and  C_3
REMARK    3  A    between atoms: C_5  and  O_6
REMARK    4  A    between atoms: O_6  and  C_7
REMARK    5  A    between atoms: N_13  and  S_14
REMARK    6  A    between atoms: S_14  and  C_17
REMARK    7  A    between atoms: C_22  and  O_23
REMARK    8  A    between atoms: O_23  and  C_24
REMARK    9  A    between atoms: C_24  and  C_25
REMARK                            x       y       z     vdW  Elec       q    Type
REMARK                         _______ _______ _______ _____ _____    ______ ____
ROOT
ATOM      1  C   UNL     1       3.165   3.766  20.132  0.00  0.00    +0.000 A 
ATOM      2  C   UNL     1       4.062   3.723  19.096  0.00  0.00    +0.000 A 
ATOM      3  C   UNL     1       4.277   4.920  18.472  0.00  0.00    +0.000 A 
ATOM      4  N   UNL     1       3.649   6.054  18.810  0.00  0.00    +0.000 NA
ATOM      5  C   UNL     1       2.818   6.001  19.840  0.00  0.00    +0.000 A 
ATOM      6  N   UNL     1       2.158   7.127  20.262  0.00  0.00    +0.000 N 
ATOM      7  C   UNL     1       1.956   8.254  19.530  0.00  0.00    +0.000 C 
ATOM      8  O   UNL     1       2.383   8.478  18.408  0.00  0.00    +0.000 OA
ATOM      9  N   UNL     1       1.107   9.218  20.078  0.00  0.00    +0.000 N 
ATOM     10  N   UNL     1       2.552   4.888  20.543  0.00  0.00    +0.000 NA
ATOM     11  H   UNL     1       1.689   6.978  21.142  0.00  0.00    +0.000 HD
ATOM     12  H   UNL     1       0.879   9.999  19.469  0.00  0.00    +0.000 HD
ENDROOT
BRANCH   9  13
ATOM     13  S   UNL     1       0.424   9.291  21.586  0.00  0.00    +0.000 S 
ATOM     14  O   UNL     1      -0.532   8.208  21.680  0.00  0.00    +0.000 OA
ATOM     15  O   UNL     1       1.510   9.388  22.541  0.00  0.00    +0.000 OA
BRANCH  13  16
ATOM     16  C   UNL     1      -0.485  10.839  21.568  0.00  0.00    +0.000 A 
ATOM     17  N   UNL     1      -0.480  11.447  22.792  0.00  0.00    +0.000 NA
ATOM     18  C   UNL     1      -1.110  12.632  22.881  0.00  0.00    +0.000 A 
ATOM     19  C   UNL     1      -1.753  13.234  21.817  0.00  0.00    +0.000 A 
ATOM     20  C   UNL     1      -1.750  12.581  20.583  0.00  0.00    +0.000 A 
ATOM     21  C   UNL     1      -1.102  11.351  20.440  0.00  0.00    +0.000 A 
BRANCH  21  22
ATOM     22  O   UNL     1      -1.176  10.616  19.299  0.00  0.00    +0.000 OA
BRANCH  22  23
ATOM     23  C   UNL     1      -1.559  11.354  18.131  0.00  0.00    +0.000 C 
BRANCH  23  24
ATOM     24  C   UNL     1      -2.810  10.758  17.491  0.00  0.00    +0.000 C 
ATOM     25  F   UNL     1      -3.942  11.397  17.849  0.00  0.00    +0.000 F 
ATOM     26  F   UNL     1      -2.721  10.822  16.140  0.00  0.00    +0.000 F 
ATOM     27  F   UNL     1      -2.946   9.454  17.822  0.00  0.00    +0.000 F 
ENDBRANCH  23  24
ENDBRANCH  22  23
ENDBRANCH  21  22
ENDBRANCH  13  16
ENDBRANCH   9  13
BRANCH   1  29
ATOM     28  C   UNL     1       1.739   2.609  21.593  0.00  0.00    +0.000 C 
ATOM     29  O   UNL     1       2.901   2.571  20.772  0.00  0.00    +0.000 OA
ENDBRANCH   1  29
BRANCH   3  30
ATOM     30  O   UNL     1       5.193   4.964  17.442  0.00  0.00    +0.000 OA
ATOM     31  C   UNL     1       4.798   4.133  16.345  0.00  0.00    +0.000 C 
ENDBRANCH   3  30
TORSDOF 7
ENDMDL
MODEL 3
REMARK VINA RESULT:      -7.5      2.896      4.333
REMARK  Name = 
REMARK  9 active torsions:
REMARK  status: ('A' for Active; 'I' for Inactive)
REMARK    1  A    between atoms: C_1  and  O_2
REMARK    2  A    between atoms: O_2  and  C_3
REMARK    3  A    between atoms: C_5  and  O_6
REMARK    4  A    between atoms: O_6  and  C_7
REMARK    5  A    between atoms: N_13  and  S_14
REMARK    6  A    between atoms: S_14  and  C_17
REMARK    7  A    between atoms: C_22  and  O_23
REMARK    8  A    between atoms: O_23  and  C_24
REMARK    9  A    between atoms: C_24  and  C_25
REMARK                            x       y       z     vdW  Elec       q    Type
REMARK                         _______ _______ _______ _____ _____    ______ ____
ROOT
ATOM      1  C   UNL     1       5.312   5.665  16.398  0.00  0.00    +0.000 A 
ATOM      2  C   UNL     1       5.322   4.446  17.024  0.00  0.00    +0.000 A 
ATOM      3  C   UNL     1       4.403   4.307  18.026  0.00  0.00    +0.000 A 
ATOM      4  N   UNL     1       3.568   5.283  18.405  0.00  0.00    +0.000 NA
ATOM      5  C   UNL     1       3.617   6.418  17.724  0.00  0.00    +0.000 A 
ATOM      6  N   UNL     1       2.774   7.455  18.036  0.00  0.00    +0.000 N 
ATOM      7  C   UNL     1       2.116   7.620  19.214  0.00  0.00    +0.000 C 
ATOM      8  O   UNL     1       2.109   6.846  20.157  0.00  0.00    +0.000 OA
ATOM      9  N   UNL     1       1.448   8.833  19.397  0.00  0.00    +0.000 N 
ATOM     10  N   UNL     1       4.458   6.655  16.705  0.00  0.00    +0.000 NA
ATOM     11  H   UNL     1       2.809   8.187  17.344  0.00  0.00    +0.000 HD
ATOM     12  H   UNL     1       1.059   8.984  20.323  0.00  0.00    +0.000 HD
ENDROOT
BRANCH   9  13
ATOM     13  S   UNL     1       1.178  10.065  18.322  0.00  0.00    +0.000 S 
ATOM     14  O   UNL     1       2.309  10.108  17.420  0.00  0.00    +0.000 OA
ATOM     15  O   UNL     1      -0.163   9.888  17.800  0.00  0.00    +0.000 OA
BRANCH  13  16
ATOM     16  C   UNL     1       1.221  11.541  19.344  0.00  0.00    +0.000 A 
ATOM     17  N   UNL     1       2.172  12.426  18.920  0.00  0.00    +0.000 NA
ATOM     18  C   UNL     1       2.269  13.582  19.601  0.00  0.00    +0.000 A 
ATOM     19  C   UNL     1       1.474  13.893  20.687  0.00  0.00    +0.000 A 
ATOM     20  C   UNL     1       0.521  12.962  21.102  0.00  0.00    +0.000 A 
ATOM     21  C   UNL     1       0.378  11.750  20.422  0.00  0.00    +0.000 A 
BRANCH  21  22
ATOM     22  O   UNL     1      -0.444  10.760  20.858  0.00  0.00    +0.000 OA
BRANCH  22  23
ATOM     23  C   UNL     1      -0.520  10.627  22.284  0.00  0.00    +0.000 C 
BRANCH  23  24
ATOM     24  C   UNL     1       0.208   9.370  22.757  0.00  0.00    +0.000 C 
ATOM     25  F   UNL     1       1.517   9.366  22.435  0.00  0.00    +0.000 F 
ATOM     26  F   UNL     1       0.124   9.261  24.105  0.00  0.00    +0.000 F 
ATOM     27  F   UNL     1      -0.355   8.260  22.229  0.00  0.00    +0.000 F 
ENDBRANCH  23  24
ENDBRANCH  22  23
ENDBRANCH  21  22
ENDBRANCH  13  16
ENDBRANCH   9  13
BRANCH   1  29
ATOM     28  C   UNL     1       6.719   4.639  14.825  0.00  0.00    +0.000 C 
ATOM     29  O   UNL     1       6.243   5.853  15.395  0.00  0.00    +0.000 OA
ENDBRANCH   1  29
BRANCH   3  30
ATOM     30  O   UNL     1       4.329   3.095  18.680  0.00  0.00    +0.000 OA
ATOM     31  C   UNL     1       3.675   3.217  19.948  0.00  0.00    +0.000 C 
ENDBRANCH   3  30
TORSDOF 7
ENDMDL
MODEL 4
REMARK VINA RESULT:      -7.4      4.105      8.622
REMARK  Name = 
REMARK  9 active torsions:
REMARK  status: ('A' for Active; 'I' for Inactive)
REMARK    1  A    between atoms: C_1  and  O_2
REMARK    2  A    between atoms: O_2  and  C_3
REMARK    3  A    between atoms: C_5  and  O_6
REMARK    4  A    between atoms: O_6  and  C_7
REMARK    5  A    between atoms: N_13  and  S_14
REMARK    6  A    between atoms: S_14  and  C_17
REMARK    7  A    between atoms: C_22  and  O_23
REMARK    8  A    between atoms: O_23  and  C_24
REMARK    9  A    between atoms: C_24  and  C_25
REMARK                            x       y       z     vdW  Elec       q    Type
REMARK                         _______ _______ _______ _____ _____    ______ ____
ROOT
ATOM      1  C   UNL     1       1.076   9.459  19.280  0.00  0.00    +0.000 A 
ATOM      2  C   UNL     1       0.914   9.837  20.588  0.00  0.00    +0.000 A 
ATOM      3  C   UNL     1       1.334   8.917  21.508  0.00  0.00    +0.000 A 
ATOM      4  N   UNL     1       1.838   7.720  21.181  0.00  0.00    +0.000 NA
ATOM      5  C   UNL     1       1.977   7.455  19.890  0.00  0.00    +0.000 A 
ATOM      6  N   UNL     1       2.512   6.261  19.478  0.00  0.00    +0.000 N 
ATOM      7  C   UNL     1       2.595   5.126  20.221  0.00  0.00    +0.000 C 
ATOM      8  O   UNL     1       2.273   4.998  21.392  0.00  0.00    +0.000 OA
ATOM      9  N   UNL     1       3.009   3.968  19.559  0.00  0.00    +0.000 N 
ATOM     10  N   UNL     1       1.627   8.294  18.902  0.00  0.00    +0.000 NA
ATOM     11  H   UNL     1       2.705   6.259  18.488  0.00  0.00    +0.000 HD
ATOM     12  H   UNL     1       2.956   3.110  20.100  0.00  0.00    +0.000 HD
ENDROOT
BRANCH   9  13
ATOM     13  S   UNL     1       3.594   3.782  18.019  0.00  0.00    +0.000 S 
ATOM     14  O   UNL     1       3.801   2.365  17.805  0.00  0.00    +0.000 OA
ATOM     15  O   UNL     1       2.719   4.530  17.137  0.00  0.00    +0.000 OA
BRANCH  13  16
ATOM     16  C   UNL     1       5.200   4.581  18.072  0.00  0.00    +0.000 A 
ATOM     17  N   UNL     1       5.548   4.941  19.344  0.00  0.00    +0.000 NA
ATOM     18  C   UNL     1       6.751   5.523  19.500  0.00  0.00    +0.000 A 
ATOM     19  C   UNL     1       7.616   5.773  18.454  0.00  0.00    +0.000 A 
ATOM     20  C   UNL     1       7.226   5.403  17.166  0.00  0.00    +0.000 A 
ATOM     21  C   UNL     1       5.989   4.789  16.954  0.00  0.00    +0.000 A 
BRANCH  21  22
ATOM     22  O   UNL     1       5.508   4.524  15.711  0.00  0.00    +0.000 OA
BRANCH  22  23
ATOM     23  C   UNL     1       6.304   3.614  14.939  0.00  0.00    +0.000 C 
BRANCH  23  24
ATOM     24  C   UNL     1       6.147   3.881  13.444  0.00  0.00    +0.000 C 
ATOM     25  F   UNL     1       4.895   4.245  13.102  0.00  0.00    +0.000 F 
ATOM     26  F   UNL     1       6.978   4.879  13.058  0.00  0.00    +0.000 F 
ATOM     27  F   UNL     1       6.474   2.785  12.723  0.00  0.00    +0.000 F 
ENDBRANCH  23  24
ENDBRANCH  22  23
ENDBRANCH  21  22
ENDBRANCH  13  16
ENDBRANCH   9  13
BRANCH   1  29
ATOM     28  C   UNL     1       0.574  11.696  18.782  0.00  0.00    +0.000 C 
ATOM     29  O   UNL     1       0.641  10.351  18.320  0.00  0.00    +0.000 OA
ENDBRANCH   1  29
BRANCH   3  30
ATOM     30  O   UNL     1       1.236   9.240  22.845  0.00  0.00    +0.000 OA
ATOM     31  C   UNL     1      -0.108   9.571  23.213  0.00  0.00    +0.000 C 
ENDBRANCH   3  30
TORSDOF 7
ENDMDL
MODEL 5
REMARK VINA RESULT:      -7.4      0.952      1.283
REMARK  Name = 
REMARK  9 active torsions:
REMARK  status: ('A' for Active; 'I' for Inactive)
REMARK    1  A    between atoms: C_1  and  O_2
REMARK    2  A    between atoms: O_2  and  C_3
REMARK    3  A    between atoms: C_5  and  O_6
REMARK    4  A    between atoms: O_6  and  C_7
REMARK    5  A    between atoms: N_13  and  S_14
REMARK    6  A    between atoms: S_14  and  C_17
REMARK    7  A    between atoms: C_22  and  O_23
REMARK    8  A    between atoms: O_23  and  C_24
REMARK    9  A    between atoms: C_24  and  C_25
REMARK                            x       y       z     vdW  Elec       q    Type
REMARK                         _______ _______ _______ _____ _____    ______ ____
ROOT
ATOM      1  C   UNL     1       3.307   4.423  18.755  0.00  0.00    +0.000 A 
ATOM      2  C   UNL     1       4.118   4.584  17.663  0.00  0.00    +0.000 A 
ATOM      3  C   UNL     1       4.237   5.871  17.220  0.00  0.00    +0.000 A 
ATOM      4  N   UNL     1       3.596   6.907  17.776  0.00  0.00    +0.000 NA
ATOM      5  C   UNL     1       2.852   6.655  18.843  0.00  0.00    +0.000 A 
ATOM      6  N   UNL     1       2.186   7.670  19.483  0.00  0.00    +0.000 N 
ATOM      7  C   UNL     1       1.883   8.884  18.953  0.00  0.00    +0.000 C 
ATOM      8  O   UNL     1       2.210   9.298  17.852  0.00  0.00    +0.000 OA
ATOM      9  N   UNL     1       1.045   9.708  19.706  0.00  0.00    +0.000 N 
ATOM     10  N   UNL     1       2.686   5.437  19.381  0.00  0.00    +0.000 NA
ATOM     11  H   UNL     1       1.795   7.365  20.361  0.00  0.00    +0.000 HD
ATOM     12  H   UNL     1       0.739  10.561  19.245  0.00  0.00    +0.000 HD
ENDROOT
BRANCH   9  13
ATOM     13  S   UNL     1       0.482   9.516  21.253  0.00  0.00    +0.000 S 
ATOM     14  O   UNL     1      -0.334   8.321  21.270  0.00  0.00    +0.000 OA
ATOM     15  O   UNL     1       1.625   9.629  22.138  0.00  0.00    +0.000 OA
BRANCH  13  16
ATOM     16  C   UNL     1      -0.594  10.933  21.495  0.00  0.00    +0.000 A 
ATOM     17  N   UNL     1      -0.511  11.423  22.768  0.00  0.00    +0.000 NA
ATOM     18  C   UNL     1      -1.257  12.507  23.048  0.00  0.00    +0.000 A 
ATOM     19  C   UNL     1      -2.088  13.116  22.128  0.00  0.00    +0.000 A 
ATOM     20  C   UNL     1      -2.159  12.583  20.840  0.00  0.00    +0.000 A 
ATOM     21  C   UNL     1      -1.397  11.463  20.500  0.00  0.00    +0.000 A 
BRANCH  21  22
ATOM     22  O   UNL     1      -1.522  10.830  19.304  0.00  0.00    +0.000 OA
BRANCH  22  23
ATOM     23  C   UNL     1      -1.749  11.698  18.185  0.00  0.00    +0.000 C 
BRANCH  23  24
ATOM     24  C   UNL     1      -2.707  11.061  17.181  0.00  0.00    +0.000 C 
ATOM     25  F   UNL     1      -3.968  11.524  17.290  0.00  0.00    +0.000 F 
ATOM     26  F   UNL     1      -2.293  11.311  15.915  0.00  0.00    +0.000 F 
ATOM     27  F   UNL     1      -2.741   9.718  17.334  0.00  0.00    +0.000 F 
ENDBRANCH  23  24
ENDBRANCH  22  23
ENDBRANCH  21  22
ENDBRANCH  13  16
ENDBRANCH   9  13
BRANCH   1  29
ATOM     28  C   UNL     1       4.279   2.623  19.906  0.00  0.00    +0.000 C 
ATOM     29  O   UNL     1       3.141   3.132  19.218  0.00  0.00    +0.000 OA
ENDBRANCH   1  29
BRANCH   3  30
ATOM     30  O   UNL     1       5.066   6.118  16.145  0.00  0.00    +0.000 OA
ATOM     31  C   UNL     1       5.310   4.932  15.381  0.00  0.00    +0.000 C 
ENDBRANCH   3  30
TORSDOF 7
ENDMDL
MODEL 6
REMARK VINA RESULT:      -7.3      3.440      8.575
REMARK  Name = 
REMARK  9 active torsions:
REMARK  status: ('A' for Active; 'I' for Inactive)
REMARK    1  A    between atoms: C_1  and  O_2
REMARK    2  A    between atoms: O_2  and  C_3
REMARK    3  A    between atoms: C_5  and  O_6
REMARK    4  A    between atoms: O_6  and  C_7
REMARK    5  A    between atoms: N_13  and  S_14
REMARK    6  A    between atoms: S_14  and  C_17
REMARK    7  A    between atoms: C_22  and  O_23
REMARK    8  A    between atoms: O_23  and  C_24
REMARK    9  A    between atoms: C_24  and  C_25
REMARK                            x       y       z     vdW  Elec       q    Type
REMARK                         _______ _______ _______ _____ _____    ______ ____
ROOT
ATOM      1  C   UNL     1      -1.012  11.558  18.930  0.00  0.00    +0.000 A 
ATOM      2  C   UNL     1      -1.114  12.129  20.172  0.00  0.00    +0.000 A 
ATOM      3  C   UNL     1      -0.337  11.551  21.136  0.00  0.00    +0.000 A 
ATOM      4  N   UNL     1       0.448  10.488  20.915  0.00  0.00    +0.000 NA
ATOM      5  C   UNL     1       0.497  10.021  19.677  0.00  0.00    +0.000 A 
ATOM      6  N   UNL     1       1.299   8.951  19.368  0.00  0.00    +0.000 N 
ATOM      7  C   UNL     1       1.797   8.046  20.251  0.00  0.00    +0.000 C 
ATOM      8  O   UNL     1       1.673   8.072  21.465  0.00  0.00    +0.000 OA
ATOM      9  N   UNL     1       2.443   6.931  19.714  0.00  0.00    +0.000 N 
ATOM     10  N   UNL     1      -0.199  10.527  18.647  0.00  0.00    +0.000 NA
ATOM     11  H   UNL     1       1.361   8.805  18.372  0.00  0.00    +0.000 HD
ATOM     12  H   UNL     1       2.708   6.212  20.382  0.00  0.00    +0.000 HD
ENDROOT
BRANCH   9  13
ATOM     13  S   UNL     1       2.862   6.605  18.144  0.00  0.00    +0.000 S 
ATOM     14  O   UNL     1       2.095   5.452  17.723  0.00  0.00    +0.000 OA
ATOM     15  O   UNL     1       2.764   7.851  17.409  0.00  0.00    +0.000 OA
BRANCH  13  16
ATOM     16  C   UNL     1       4.587   6.120  18.254  0.00  0.00    +0.000 A 
ATOM     17  N   UNL     1       5.385   6.888  17.454  0.00  0.00    +0.000 NA
ATOM     18  C   UNL     1       6.704   6.627  17.485  0.00  0.00    +0.000 A 
ATOM     19  C   UNL     1       7.264   5.632  18.262  0.00  0.00    +0.000 A 
ATOM     20  C   UNL     1       6.420   4.857  19.059  0.00  0.00    +0.000 A 
ATOM     21  C   UNL     1       5.044   5.096  19.066  0.00  0.00    +0.000 A 
BRANCH  21  22
ATOM     22  O   UNL     1       4.166   4.293  19.724  0.00  0.00    +0.000 OA
BRANCH  22  23
ATOM     23  C   UNL     1       4.427   2.888  19.600  0.00  0.00    +0.000 C 
BRANCH  23  24
ATOM     24  C   UNL     1       3.470   2.239  18.603  0.00  0.00    +0.000 C 
ATOM     25  F   UNL     1       2.174   2.383  18.946  0.00  0.00    +0.000 F 
ATOM     26  F   UNL     1       3.627   2.792  17.376  0.00  0.00    +0.000 F 
ATOM     27  F   UNL     1       3.724   0.917  18.483  0.00  0.00    +0.000 F 
ENDBRANCH  23  24
ENDBRANCH  22  23
ENDBRANCH  21  22
ENDBRANCH  13  16
ENDBRANCH   9  13
BRANCH   1  29
ATOM     28  C   UNL     1      -3.098  11.514  17.855  0.00  0.00    +0.000 C 
ATOM     29  O   UNL     1      -1.802  12.098  17.934  0.00  0.00    +0.000 OA
ENDBRANCH   1  29
BRANCH   3  30
ATOM     30  O   UNL     1      -0.358  12.094  22.404  0.00  0.00    +0.000 OA
ATOM     31  C   UNL     1      -1.641  11.946  23.022  0.00  0.00    +0.000 C 
ENDBRANCH   3  30
TORSDOF 7
ENDMDL
MODEL 7
REMARK VINA RESULT:      -7.3      3.080      8.389
REMARK  Name = 
REMARK  9 active torsions:
REMARK  status: ('A' for Active; 'I' for Inactive)
REMARK    1  A    between atoms: C_1  and  O_2
REMARK    2  A    between atoms: O_2  and  C_3
REMARK    3  A    between atoms: C_5  and  O_6
REMARK    4  A    between atoms: O_6  and  C_7
REMARK    5  A    between atoms: N_13  and  S_14
REMARK    6  A    between atoms: S_14  and  C_17
REMARK    7  A    between atoms: C_22  and  O_23
REMARK    8  A    between atoms: O_23  and  C_24
REMARK    9  A    between atoms: C_24  and  C_25
REMARK                            x       y       z     vdW  Elec       q    Type
REMARK                         _______ _______ _______ _____ _____    ______ ____
ROOT
ATOM      1  C   UNL     1      -1.698  11.577  19.361  0.00  0.00    +0.000 A 
ATOM      2  C   UNL     1      -1.805  12.103  20.622  0.00  0.00    +0.000 A 
ATOM      3  C   UNL     1      -0.932  11.585  21.537  0.00  0.00    +0.000 A 
ATOM      4  N   UNL     1      -0.052  10.615  21.254  0.00  0.00    +0.000 NA
ATOM      5  C   UNL     1      -0.008  10.187  20.002  0.00  0.00    +0.000 A 
ATOM      6  N   UNL     1       0.886   9.215  19.629  0.00  0.00    +0.000 N 
ATOM      7  C   UNL     1       1.512   8.345  20.465  0.00  0.00    +0.000 C 
ATOM      8  O   UNL     1       1.438   8.327  21.683  0.00  0.00    +0.000 OA
ATOM      9  N   UNL     1       2.245   7.317  19.869  0.00  0.00    +0.000 N 
ATOM     10  N   UNL     1      -0.796  10.643  19.016  0.00  0.00    +0.000 NA
ATOM     11  H   UNL     1       0.919   9.101  18.628  0.00  0.00    +0.000 HD
ATOM     12  H   UNL     1       2.611   6.613  20.505  0.00  0.00    +0.000 HD
ENDROOT
BRANCH   9  13
ATOM     13  S   UNL     1       2.628   7.076  18.275  0.00  0.00    +0.000 S 
ATOM     14  O   UNL     1       1.648   6.161  17.729  0.00  0.00    +0.000 OA
ATOM     15  O   UNL     1       2.813   8.384  17.679  0.00  0.00    +0.000 OA
BRANCH  13  16
ATOM     16  C   UNL     1       4.209   6.228  18.339  0.00  0.00    +0.000 A 
ATOM     17  N   UNL     1       5.032   6.606  17.315  0.00  0.00    +0.000 NA
ATOM     18  C   UNL     1       6.257   6.051  17.286  0.00  0.00    +0.000 A 
ATOM     19  C   UNL     1       6.696   5.132  18.218  0.00  0.00    +0.000 A 
ATOM     20  C   UNL     1       5.828   4.757  19.244  0.00  0.00    +0.000 A 
ATOM     21  C   UNL     1       4.548   5.313  19.320  0.00  0.00    +0.000 A 
BRANCH  21  22
ATOM     22  O   UNL     1       3.621   4.892  20.221  0.00  0.00    +0.000 OA
BRANCH  22  23
ATOM     23  C   UNL     1       2.981   3.652  19.891  0.00  0.00    +0.000 C 
BRANCH  23  24
ATOM     24  C   UNL     1       1.836   3.351  20.855  0.00  0.00    +0.000 C 
ATOM     25  F   UNL     1       1.491   2.048  20.874  0.00  0.00    +0.000 F 
ATOM     26  F   UNL     1       2.187   3.695  22.118  0.00  0.00    +0.000 F 
ATOM     27  F   UNL     1       0.736   4.069  20.535  0.00  0.00    +0.000 F 
ENDBRANCH  23  24
ENDBRANCH  22  23
ENDBRANCH  21  22
ENDBRANCH  13  16
ENDBRANCH   9  13
BRANCH   1  29
ATOM     28  C   UNL     1      -2.718  11.206  17.281  0.00  0.00    +0.000 C 
ATOM     29  O   UNL     1      -2.581  12.057  18.413  0.00  0.00    +0.000 OA
ENDBRANCH   1  29
BRANCH   3  30
ATOM     30  O   UNL     1      -0.954  12.091  22.820  0.00  0.00    +0.000 OA
ATOM     31  C   UNL     1      -2.283  12.125  23.353  0.00  0.00    +0.000 C 
ENDBRANCH   3  30
TORSDOF 7
ENDMDL
MODEL 8
REMARK VINA RESULT:      -7.2      3.737      8.391
REMARK  Name = 
REMARK  9 active torsions:
REMARK  status: ('A' for Active; 'I' for Inactive)
REMARK    1  A    between atoms: C_1  and  O_2
REMARK    2  A    between atoms: O_2  and  C_3
REMARK    3  A    between atoms: C_5  and  O_6
REMARK    4  A    between atoms: O_6  and  C_7
REMARK    5  A    between atoms: N_13  and  S_14
REMARK    6  A    between atoms: S_14  and  C_17
REMARK    7  A    between atoms: C_22  and  O_23
REMARK    8  A    between atoms: O_23  and  C_24
REMARK    9  A    between atoms: C_24  and  C_25
REMARK                            x       y       z     vdW  Elec       q    Type
REMARK                         _______ _______ _______ _____ _____    ______ ____
ROOT
ATOM      1  C   UNL     1      -0.153  11.246  21.507  0.00  0.00    +0.000 A 
ATOM      2  C   UNL     1      -0.557  12.339  20.787  0.00  0.00    +0.000 A 
ATOM      3  C   UNL     1      -0.267  12.288  19.452  0.00  0.00    +0.000 A 
ATOM      4  N   UNL     1       0.389  11.271  18.876  0.00  0.00    +0.000 NA
ATOM      5  C   UNL     1       0.717  10.248  19.650  0.00  0.00    +0.000 A 
ATOM      6  N   UNL     1       1.365   9.158  19.127  0.00  0.00    +0.000 N 
ATOM      7  C   UNL     1       2.060   9.129  17.959  0.00  0.00    +0.000 C 
ATOM      8  O   UNL     1       2.164  10.039  17.152  0.00  0.00    +0.000 OA
ATOM      9  N   UNL     1       2.796   7.973  17.693  0.00  0.00    +0.000 N 
ATOM     10  N   UNL     1       0.457  10.179  20.965  0.00  0.00    +0.000 NA
ATOM     11  H   UNL     1       1.410   8.397  19.786  0.00  0.00    +0.000 HD
ATOM     12  H   UNL     1       3.396   8.013  16.873  0.00  0.00    +0.000 HD
ENDROOT
BRANCH   9  13
ATOM     13  S   UNL     1       2.828   6.528  18.504  0.00  0.00    +0.000 S 
ATOM     14  O   UNL     1       2.634   6.818  19.910  0.00  0.00    +0.000 OA
ATOM     15  O   UNL     1       1.921   5.632  17.815  0.00  0.00    +0.000 OA
BRANCH  13  16
ATOM     16  C   UNL     1       4.513   5.949  18.280  0.00  0.00    +0.000 A 
ATOM     17  N   UNL     1       5.209   6.736  17.406  0.00  0.00    +0.000 NA
ATOM     18  C   UNL     1       6.495   6.407  17.188  0.00  0.00    +0.000 A 
ATOM     19  C   UNL     1       7.116   5.329  17.788  0.00  0.00    +0.000 A 
ATOM     20  C   UNL     1       6.373   4.538  18.666  0.00  0.00    +0.000 A 
ATOM     21  C   UNL     1       5.036   4.845  18.930  0.00  0.00    +0.000 A 
BRANCH  21  22
ATOM     22  O   UNL     1       4.234   4.039  19.675  0.00  0.00    +0.000 OA
BRANCH  22  23
ATOM     23  C   UNL     1       4.507   2.637  19.548  0.00  0.00    +0.000 C 
BRANCH  23  24
ATOM     24  C   UNL     1       3.457   1.951  18.677  0.00  0.00    +0.000 C 
ATOM     25  F   UNL     1       3.783   0.682  18.359  0.00  0.00    +0.000 F 
ATOM     26  F   UNL     1       2.266   1.911  19.323  0.00  0.00    +0.000 F 
ATOM     27  F   UNL     1       3.266   2.633  17.526  0.00  0.00    +0.000 F 
ENDBRANCH  23  24
ENDBRANCH  22  23
ENDBRANCH  21  22
ENDBRANCH  13  16
ENDBRANCH   9  13
BRANCH   1  29
ATOM     28  C   UNL     1      -0.625   9.981  23.427  0.00  0.00    +0.000 C 
ATOM     29  O   UNL     1      -0.406  11.271  22.865  0.00  0.00    +0.000 OA
ENDBRANCH   1  29
BRANCH   3  30
ATOM     30  O   UNL     1      -0.673  13.337  18.655  0.00  0.00    +0.000 OA
ATOM     31  C   UNL     1      -0.067  14.571  19.053  0.00  0.00    +0.000 C 
ENDBRANCH   3  30
TORSDOF 7
ENDMDL
MODEL 9
REMARK VINA RESULT:      -7.2      1.426      1.518
REMARK  Name = 
REMARK  9 active torsions:
REMARK  status: ('A' for Active; 'I' for Inactive)
REMARK    1  A    between atoms: C_1  and  O_2
REMARK    2  A    between atoms: O_2  and  C_3
REMARK    3  A    between atoms: C_5  and  O_6
REMARK    4  A    between atoms: O_6  and  C_7
REMARK    5  A    between atoms: N_13  and  S_14
REMARK    6  A    between atoms: S_14  and  C_17
REMARK    7  A    between atoms: C_22  and  O_23
REMARK    8  A    between atoms: O_23  and  C_24
REMARK    9  A    between atoms: C_24  and  C_25
REMARK                            x       y       z     vdW  Elec       q    Type
REMARK                         _______ _______ _______ _____ _____    ______ ____
ROOT
ATOM      1  C   UNL     1       3.061   4.899  18.500  0.00  0.00    +0.000 A 
ATOM      2  C   UNL     1       3.955   5.025  17.468  0.00  0.00    +0.000 A 
ATOM      3  C   UNL     1       4.161   6.306  17.039  0.00  0.00    +0.000 A 
ATOM      4  N   UNL     1       3.526   7.369  17.552  0.00  0.00    +0.000 NA
ATOM      5  C   UNL     1       2.699   7.149  18.562  0.00  0.00    +0.000 A 
ATOM      6  N   UNL     1       2.033   8.191  19.157  0.00  0.00    +0.000 N 
ATOM      7  C   UNL     1       1.821   9.418  18.610  0.00  0.00    +0.000 C 
ATOM      8  O   UNL     1       2.243   9.817  17.537  0.00  0.00    +0.000 OA
ATOM      9  N   UNL     1       0.968  10.278  19.305  0.00  0.00    +0.000 N 
ATOM     10  N   UNL     1       2.442   5.939  19.083  0.00  0.00    +0.000 NA
ATOM     11  H   UNL     1       1.568   7.903  20.004  0.00  0.00    +0.000 HD
ATOM     12  H   UNL     1       0.733  11.143  18.827  0.00  0.00    +0.000 HD
ENDROOT
BRANCH   9  13
ATOM     13  S   UNL     1       0.289  10.110  20.807  0.00  0.00    +0.000 S 
ATOM     14  O   UNL     1      -0.248   8.768  20.890  0.00  0.00    +0.000 OA
ATOM     15  O   UNL     1       1.273  10.560  21.772  0.00  0.00    +0.000 OA
BRANCH  13  16
ATOM     16  C   UNL     1      -1.087  11.263  20.785  0.00  0.00    +0.000 A 
ATOM     17  N   UNL     1      -1.319  11.802  22.020  0.00  0.00    +0.000 NA
ATOM     18  C   UNL     1      -2.312  12.704  22.108  0.00  0.00    +0.000 A 
ATOM     19  C   UNL     1      -3.091  13.086  21.034  0.00  0.00    +0.000 A 
ATOM     20  C   UNL     1      -2.837  12.507  19.789  0.00  0.00    +0.000 A 
ATOM     21  C   UNL     1      -1.810  11.570  19.646  0.00  0.00    +0.000 A 
BRANCH  21  22
ATOM     22  O   UNL     1      -1.601  10.886  18.490  0.00  0.00    +0.000 OA
BRANCH  22  23
ATOM     23  C   UNL     1      -2.385  11.335  17.376  0.00  0.00    +0.000 C 
BRANCH  23  24
ATOM     24  C   UNL     1      -3.194  10.187  16.777  0.00  0.00    +0.000 C 
ATOM     25  F   UNL     1      -2.485   9.438  15.910  0.00  0.00    +0.000 F 
ATOM     26  F   UNL     1      -3.633   9.362  17.758  0.00  0.00    +0.000 F 
ATOM     27  F   UNL     1      -4.285  10.654  16.129  0.00  0.00    +0.000 F 
ENDBRANCH  23  24
ENDBRANCH  22  23
ENDBRANCH  21  22
ENDBRANCH  13  16
ENDBRANCH   9  13
BRANCH   1  29
ATOM     28  C   UNL     1       3.080   2.612  17.974  0.00  0.00    +0.000 C 
ATOM     29  O   UNL     1       2.807   3.616  18.946  0.00  0.00    +0.000 OA
ENDBRANCH   1  29
BRANCH   3  30
ATOM     30  O   UNL     1       5.073   6.517  16.027  0.00  0.00    +0.000 OA
ATOM     31  C   UNL     1       5.568   5.284  15.494  0.00  0.00    +0.000 C 
ENDBRANCH   3  30
TORSDOF 7
ENDMDL
