MODEL 1
REMARK VINA RESULT:      -8.9      0.000      0.000
REMARK  Name = 
REMARK  5 active torsions:
REMARK  status: ('A' for Active; 'I' for Inactive)
REMARK    1  A    between atoms: C_1  and  O_2
REMARK    2  A    between atoms: O_2  and  C_3
REMARK    3  A    between atoms: C_7  and  C_8
REMARK    4  A    between atoms: C_17  and  N_18
REMARK    5  A    between atoms: C_19  and  C_21
REMARK                            x       y       z     vdW  Elec       q    Type
REMARK                         _______ _______ _______ _____ _____    ______ ____
ROOT
ATOM      1  C   UNL     1       3.577   4.291  18.185  0.00  0.00    +0.000 C 
ATOM      2  O   UNL     1       3.528   3.149  18.643  0.00  0.00    +0.000 OA
ATOM      3  N   UNL     1       2.707   5.297  18.592  0.00  0.00    +0.000 N 
ATOM      4  C   UNL     1       1.869   5.070  19.771  0.00  0.00    +0.000 C 
ATOM      5  C   UNL     1       2.071   6.192  20.806  0.00  0.00    +0.000 C 
ATOM      6  N   UNL     1       1.909   7.509  20.174  0.00  0.00    +0.000 N 
ATOM      7  C   UNL     1       1.174   8.517  20.750  0.00  0.00    +0.000 A 
ATOM      8  C   UNL     1       1.014   8.582  22.126  0.00  0.00    +0.000 A 
ATOM      9  C   UNL     1       0.203   9.557  22.698  0.00  0.00    +0.000 A 
ATOM     10  C   UNL     1      -0.461  10.478  21.903  0.00  0.00    +0.000 A 
ATOM     11  C   UNL     1      -0.230  10.367  20.534  0.00  0.00    +0.000 A 
ATOM     12  N   UNL     1       0.577   9.433  19.954  0.00  0.00    +0.000 NA
ATOM     13  C   UNL     1       2.660   7.759  18.943  0.00  0.00    +0.000 C 
ATOM     14  C   UNL     1       2.447   6.602  17.948  0.00  0.00    +0.000 C 
ENDROOT
BRANCH   1  19
ATOM     15  C   UNL     1       6.587   5.838  16.497  0.00  0.00    +0.000 A 
ATOM     16  C   UNL     1       6.592   5.143  15.286  0.00  0.00    +0.000 A 
ATOM     17  C   UNL     1       5.651   4.140  15.040  0.00  0.00    +0.000 A 
ATOM     18  C   UNL     1       4.662   3.866  15.985  0.00  0.00    +0.000 A 
ATOM     19  C   UNL     1       4.636   4.579  17.187  0.00  0.00    +0.000 A 
ATOM     20  C   UNL     1       5.653   5.498  17.469  0.00  0.00    +0.000 A 
BRANCH  15  22
ATOM     21  C   UNL     1       7.788   7.280  17.950  0.00  0.00    +0.000 C 
ATOM     22  O   UNL     1       7.529   6.822  16.626  0.00  0.00    +0.000 OA
ENDBRANCH  15  22
ENDBRANCH   1  19
BRANCH  10  23
ATOM     23  N   UNL     1      -1.338  11.468  22.411  0.00  0.00    +0.000 N 
ATOM     24  C   UNL     1      -1.006  12.804  22.598  0.00  0.00    +0.000 C 
ATOM     25  O   UNL     1       0.079  13.308  22.320  0.00  0.00    +0.000 OA
ATOM     26  H   UNL     1      -2.278  11.169  22.657  0.00  0.00    +0.000 HD
BRANCH  24  27
ATOM     27  C   UNL     1      -2.019  13.716  23.182  0.00  0.00    +0.000 A 
ATOM     28  C   UNL     1      -1.602  14.550  24.237  0.00  0.00    +0.000 A 
ATOM     29  C   UNL     1      -2.498  15.423  24.854  0.00  0.00    +0.000 A 
ATOM     30  C   UNL     1      -3.812  15.463  24.413  0.00  0.00    +0.000 A 
ATOM     31  F   UNL     1      -4.676  16.294  25.008  0.00  0.00    +0.000 F 
ATOM     32  C   UNL     1      -4.247  14.652  23.369  0.00  0.00    +0.000 A 
ATOM     33  C   UNL     1      -3.347  13.782  22.759  0.00  0.00    +0.000 A 
ATOM     34  F   UNL     1      -3.788  13.009  21.754  0.00  0.00    +0.000 F 
ENDBRANCH  24  27
ENDBRANCH  10  23
TORSDOF 4
ENDMDL
MODEL 2
REMARK VINA RESULT:      -8.4      1.188      1.687
REMARK  Name = 
REMARK  5 active torsions:
REMARK  status: ('A' for Active; 'I' for Inactive)
REMARK    1  A    between atoms: C_1  and  O_2
REMARK    2  A    between atoms: O_2  and  C_3
REMARK    3  A    between atoms: C_7  and  C_8
REMARK    4  A    between atoms: C_17  and  N_18
REMARK    5  A    between atoms: C_19  and  C_21
REMARK                            x       y       z     vdW  Elec       q    Type
REMARK                         _______ _______ _______ _____ _____    ______ ____
ROOT
ATOM      1  C   UNL     1       3.659   3.964  18.470  0.00  0.00    +0.000 C 
ATOM      2  O   UNL     1       3.503   2.844  18.955  0.00  0.00    +0.000 OA
ATOM      3  N   UNL     1       2.795   5.021  18.735  0.00  0.00    +0.000 N 
ATOM      4  C   UNL     1       1.811   4.874  19.810  0.00  0.00    +0.000 C 
ATOM      5  C   UNL     1       1.939   6.025  20.825  0.00  0.00    +0.000 C 
ATOM      6  N   UNL     1       1.915   7.323  20.134  0.00  0.00    +0.000 N 
ATOM      7  C   UNL     1       1.164   8.382  20.583  0.00  0.00    +0.000 A 
ATOM      8  C   UNL     1       0.842   8.506  21.926  0.00  0.00    +0.000 A 
ATOM      9  C   UNL     1       0.015   9.535  22.364  0.00  0.00    +0.000 A 
ATOM     10  C   UNL     1      -0.507  10.452  21.463  0.00  0.00    +0.000 A 
ATOM     11  C   UNL     1      -0.118  10.278  20.138  0.00  0.00    +0.000 A 
ATOM     12  N   UNL     1       0.708   9.290  19.691  0.00  0.00    +0.000 NA
ATOM     13  C   UNL     1       2.818   7.494  18.996  0.00  0.00    +0.000 C 
ATOM     14  C   UNL     1       2.674   6.309  18.022  0.00  0.00    +0.000 C 
ENDROOT
BRANCH   1  19
ATOM     15  C   UNL     1       5.899   4.040  15.423  0.00  0.00    +0.000 A 
ATOM     16  C   UNL     1       7.085   4.518  15.984  0.00  0.00    +0.000 A 
ATOM     17  C   UNL     1       7.142   4.861  17.338  0.00  0.00    +0.000 A 
ATOM     18  C   UNL     1       6.024   4.674  18.150  0.00  0.00    +0.000 A 
ATOM     19  C   UNL     1       4.842   4.170  17.599  0.00  0.00    +0.000 A 
ATOM     20  C   UNL     1       4.765   3.940  16.221  0.00  0.00    +0.000 A 
BRANCH  15  22
ATOM     21  C   UNL     1       6.936   4.381  13.315  0.00  0.00    +0.000 C 
ATOM     22  O   UNL     1       5.958   3.702  14.098  0.00  0.00    +0.000 OA
ENDBRANCH  15  22
ENDBRANCH   1  19
BRANCH  10  23
ATOM     23  N   UNL     1      -1.391  11.496  21.828  0.00  0.00    +0.000 N 
ATOM     24  C   UNL     1      -0.999  12.762  22.246  0.00  0.00    +0.000 C 
ATOM     25  O   UNL     1       0.163  13.151  22.325  0.00  0.00    +0.000 OA
ATOM     26  H   UNL     1      -2.387  11.295  21.780  0.00  0.00    +0.000 HD
BRANCH  24  27
ATOM     27  C   UNL     1      -2.043  13.739  22.638  0.00  0.00    +0.000 A 
ATOM     28  C   UNL     1      -2.422  13.765  23.994  0.00  0.00    +0.000 A 
ATOM     29  C   UNL     1      -3.411  14.642  24.442  0.00  0.00    +0.000 A 
ATOM     30  C   UNL     1      -4.019  15.494  23.533  0.00  0.00    +0.000 A 
ATOM     31  F   UNL     1      -4.972  16.331  23.958  0.00  0.00    +0.000 F 
ATOM     32  C   UNL     1      -3.657  15.490  22.189  0.00  0.00    +0.000 A 
ATOM     33  C   UNL     1      -2.671  14.611  21.749  0.00  0.00    +0.000 A 
ATOM     34  F   UNL     1      -2.338  14.624  20.448  0.00  0.00    +0.000 F 
ENDBRANCH  24  27
ENDBRANCH  10  23
TORSDOF 4
ENDMDL
MODEL 3
REMARK VINA RESULT:      -8.4      1.191      1.710
REMARK  Name = 
REMARK  5 active torsions:
REMARK  status: ('A' for Active; 'I' for Inactive)
REMARK    1  A    between atoms: C_1  and  O_2
REMARK    2  A    between atoms: O_2  and  C_3
REMARK    3  A    between atoms: C_7  and  C_8
REMARK    4  A    between atoms: C_17  and  N_18
REMARK    5  A    between atoms: C_19  and  C_21
REMARK                            x       y       z     vdW  Elec       q    Type
REMARK                         _______ _______ _______ _____ _____    ______ ____
ROOT
ATOM      1  C   UNL     1       3.668   4.125  18.434  0.00  0.00    +0.000 C 
ATOM      2  O   UNL     1       3.541   3.000  18.917  0.00  0.00    +0.000 OA
ATOM      3  N   UNL     1       2.788   5.164  18.718  0.00  0.00    +0.000 N 
ATOM      4  C   UNL     1       1.825   4.993  19.808  0.00  0.00    +0.000 C 
ATOM      5  C   UNL     1       1.947   6.143  20.825  0.00  0.00    +0.000 C 
ATOM      6  N   UNL     1       1.887   7.443  20.141  0.00  0.00    +0.000 N 
ATOM      7  C   UNL     1       1.123   8.485  20.607  0.00  0.00    +0.000 A 
ATOM      8  C   UNL     1       0.821   8.597  21.956  0.00  0.00    +0.000 A 
ATOM      9  C   UNL     1      -0.019   9.609  22.411  0.00  0.00    +0.000 A 
ATOM     10  C   UNL     1      -0.572  10.519  21.523  0.00  0.00    +0.000 A 
ATOM     11  C   UNL     1      -0.202  10.359  20.191  0.00  0.00    +0.000 A 
ATOM     12  N   UNL     1       0.636   9.388  19.726  0.00  0.00    +0.000 NA
ATOM     13  C   UNL     1       2.768   7.636  18.989  0.00  0.00    +0.000 C 
ATOM     14  C   UNL     1       2.631   6.452  18.012  0.00  0.00    +0.000 C 
ENDROOT
BRANCH   1  19
ATOM     15  C   UNL     1       5.759   4.644  15.325  0.00  0.00    +0.000 A 
ATOM     16  C   UNL     1       7.034   4.747  15.884  0.00  0.00    +0.000 A 
ATOM     17  C   UNL     1       7.208   4.699  17.270  0.00  0.00    +0.000 A 
ATOM     18  C   UNL     1       6.109   4.489  18.102  0.00  0.00    +0.000 A 
ATOM     19  C   UNL     1       4.833   4.357  17.546  0.00  0.00    +0.000 A 
ATOM     20  C   UNL     1       4.659   4.523  16.167  0.00  0.00    +0.000 A 
BRANCH  15  22
ATOM     21  C   UNL     1       6.228   3.532  13.282  0.00  0.00    +0.000 C 
ATOM     22  O   UNL     1       5.701   4.670  13.959  0.00  0.00    +0.000 OA
ENDBRANCH  15  22
ENDBRANCH   1  19
BRANCH  10  23
ATOM     23  N   UNL     1      -1.471  11.545  21.907  0.00  0.00    +0.000 N 
ATOM     24  C   UNL     1      -1.109  12.715  22.562  0.00  0.00    +0.000 C 
ATOM     25  O   UNL     1       0.039  13.029  22.867  0.00  0.00    +0.000 OA
ATOM     26  H   UNL     1      -2.453  11.404  21.685  0.00  0.00    +0.000 HD
BRANCH  24  27
ATOM     27  C   UNL     1      -2.171  13.679  22.939  0.00  0.00    +0.000 A 
ATOM     28  C   UNL     1      -2.028  15.004  22.484  0.00  0.00    +0.000 A 
ATOM     29  C   UNL     1      -2.973  15.977  22.810  0.00  0.00    +0.000 A 
ATOM     30  C   UNL     1      -4.063  15.624  23.591  0.00  0.00    +0.000 A 
ATOM     31  F   UNL     1      -4.967  16.556  23.912  0.00  0.00    +0.000 F 
ATOM     32  C   UNL     1      -4.228  14.320  24.048  0.00  0.00    +0.000 A 
ATOM     33  C   UNL     1      -3.281  13.354  23.720  0.00  0.00    +0.000 A 
ATOM     34  F   UNL     1      -3.460  12.102  24.172  0.00  0.00    +0.000 F 
ENDBRANCH  24  27
ENDBRANCH  10  23
TORSDOF 4
ENDMDL
MODEL 4
REMARK VINA RESULT:      -8.4      1.150      1.186
REMARK  Name = 
REMARK  5 active torsions:
REMARK  status: ('A' for Active; 'I' for Inactive)
REMARK    1  A    between atoms: C_1  and  O_2
REMARK    2  A    between atoms: O_2  and  C_3
REMARK    3  A    between atoms: C_7  and  C_8
REMARK    4  A    between atoms: C_17  and  N_18
REMARK    5  A    between atoms: C_19  and  C_21
REMARK                            x       y       z     vdW  Elec       q    Type
REMARK                         _______ _______ _______ _____ _____    ______ ____
ROOT
ATOM      1  C   UNL     1       3.812   4.235  18.200  0.00  0.00    +0.000 C 
ATOM      2  O   UNL     1       3.766   3.152  18.782  0.00  0.00    +0.000 OA
ATOM      3  N   UNL     1       2.904   5.258  18.449  0.00  0.00    +0.000 N 
ATOM      4  C   UNL     1       2.015   5.143  19.608  0.00  0.00    +0.000 C 
ATOM      5  C   UNL     1       2.144   6.381  20.516  0.00  0.00    +0.000 C 
ATOM      6  N   UNL     1       1.984   7.613  19.730  0.00  0.00    +0.000 N 
ATOM      7  C   UNL     1       1.201   8.660  20.153  0.00  0.00    +0.000 A 
ATOM      8  C   UNL     1       0.975   8.876  21.504  0.00  0.00    +0.000 A 
ATOM      9  C   UNL     1       0.117   9.888  21.925  0.00  0.00    +0.000 A 
ATOM     10  C   UNL     1      -0.529  10.694  21.000  0.00  0.00    +0.000 A 
ATOM     11  C   UNL     1      -0.231  10.434  19.665  0.00  0.00    +0.000 A 
ATOM     12  N   UNL     1       0.622   9.463  19.232  0.00  0.00    +0.000 NA
ATOM     13  C   UNL     1       2.786   7.741  18.513  0.00  0.00    +0.000 C 
ATOM     14  C   UNL     1       2.646   6.473  17.649  0.00  0.00    +0.000 C 
ENDROOT
BRANCH   1  19
ATOM     15  C   UNL     1       6.891   5.634  16.504  0.00  0.00    +0.000 A 
ATOM     16  C   UNL     1       6.943   4.835  15.360  0.00  0.00    +0.000 A 
ATOM     17  C   UNL     1       6.011   3.812  15.166  0.00  0.00    +0.000 A 
ATOM     18  C   UNL     1       4.985   3.621  16.090  0.00  0.00    +0.000 A 
ATOM     19  C   UNL     1       4.911   4.437  17.223  0.00  0.00    +0.000 A 
ATOM     20  C   UNL     1       5.917   5.380  17.464  0.00  0.00    +0.000 A 
BRANCH  15  22
ATOM     21  C   UNL     1       7.505   7.736  17.419  0.00  0.00    +0.000 C 
ATOM     22  O   UNL     1       7.828   6.628  16.583  0.00  0.00    +0.000 OA
ENDBRANCH  15  22
ENDBRANCH   1  19
BRANCH  10  23
ATOM     23  N   UNL     1      -1.450  11.712  21.352  0.00  0.00    +0.000 N 
ATOM     24  C   UNL     1      -1.763  12.087  22.652  0.00  0.00    +0.000 C 
ATOM     25  O   UNL     1      -1.261  11.608  23.666  0.00  0.00    +0.000 OA
ATOM     26  H   UNL     1      -1.914  12.197  20.588  0.00  0.00    +0.000 HD
BRANCH  24  27
ATOM     27  C   UNL     1      -2.782  13.142  22.864  0.00  0.00    +0.000 A 
ATOM     28  C   UNL     1      -2.640  14.332  22.124  0.00  0.00    +0.000 A 
ATOM     29  C   UNL     1      -3.545  15.382  22.278  0.00  0.00    +0.000 A 
ATOM     30  C   UNL     1      -4.594  15.241  23.174  0.00  0.00    +0.000 A 
ATOM     31  F   UNL     1      -5.460  16.249  23.330  0.00  0.00    +0.000 F 
ATOM     32  C   UNL     1      -4.758  14.074  23.913  0.00  0.00    +0.000 A 
ATOM     33  C   UNL     1      -3.850  13.031  23.755  0.00  0.00    +0.000 A 
ATOM     34  F   UNL     1      -4.027  11.913  24.479  0.00  0.00    +0.000 F 
ENDBRANCH  24  27
ENDBRANCH  10  23
TORSDOF 4
ENDMDL
MODEL 5
REMARK VINA RESULT:      -8.1      1.315      1.867
REMARK  Name = 
REMARK  5 active torsions:
REMARK  status: ('A' for Active; 'I' for Inactive)
REMARK    1  A    between atoms: C_1  and  O_2
REMARK    2  A    between atoms: O_2  and  C_3
REMARK    3  A    between atoms: C_7  and  C_8
REMARK    4  A    between atoms: C_17  and  N_18
REMARK    5  A    between atoms: C_19  and  C_21
REMARK                            x       y       z     vdW  Elec       q    Type
REMARK                         _______ _______ _______ _____ _____    ______ ____
ROOT
ATOM      1  C   UNL     1       3.783   4.023  18.063  0.00  0.00    +0.000 C 
ATOM      2  O   UNL     1       3.512   2.890  18.459  0.00  0.00    +0.000 OA
ATOM      3  N   UNL     1       2.965   5.119  18.316  0.00  0.00    +0.000 N 
ATOM      4  C   UNL     1       1.877   4.976  19.285  0.00  0.00    +0.000 C 
ATOM      5  C   UNL     1       1.979   6.055  20.380  0.00  0.00    +0.000 C 
ATOM      6  N   UNL     1       2.101   7.389  19.776  0.00  0.00    +0.000 N 
ATOM      7  C   UNL     1       1.378   8.469  20.222  0.00  0.00    +0.000 A 
ATOM      8  C   UNL     1       0.939   8.535  21.535  0.00  0.00    +0.000 A 
ATOM      9  C   UNL     1       0.139   9.591  21.961  0.00  0.00    +0.000 A 
ATOM     10  C   UNL     1      -0.236  10.592  21.078  0.00  0.00    +0.000 A 
ATOM     11  C   UNL     1       0.265  10.471  19.785  0.00  0.00    +0.000 A 
ATOM     12  N   UNL     1       1.067   9.457  19.353  0.00  0.00    +0.000 NA
ATOM     13  C   UNL     1       3.118   7.565  18.738  0.00  0.00    +0.000 C 
ATOM     14  C   UNL     1       2.994   6.452  17.680  0.00  0.00    +0.000 C 
ENDROOT
BRANCH   1  19
ATOM     15  C   UNL     1       6.284   4.215  15.232  0.00  0.00    +0.000 A 
ATOM     16  C   UNL     1       7.457   4.486  15.939  0.00  0.00    +0.000 A 
ATOM     17  C   UNL     1       7.427   4.655  17.326  0.00  0.00    +0.000 A 
ATOM     18  C   UNL     1       6.227   4.498  18.020  0.00  0.00    +0.000 A 
ATOM     19  C   UNL     1       5.055   4.199  17.319  0.00  0.00    +0.000 A 
ATOM     20  C   UNL     1       5.078   4.146  15.921  0.00  0.00    +0.000 A 
BRANCH  15  22
ATOM     21  C   UNL     1       5.254   3.652  13.169  0.00  0.00    +0.000 C 
ATOM     22  O   UNL     1       6.427   4.034  13.883  0.00  0.00    +0.000 OA
ENDBRANCH  15  22
ENDBRANCH   1  19
BRANCH  10  23
ATOM     23  N   UNL     1      -1.085  11.671  21.428  0.00  0.00    +0.000 N 
ATOM     24  C   UNL     1      -1.828  11.753  22.599  0.00  0.00    +0.000 C 
ATOM     25  O   UNL     1      -1.822  10.916  23.498  0.00  0.00    +0.000 OA
ATOM     26  H   UNL     1      -1.152  12.439  20.764  0.00  0.00    +0.000 HD
BRANCH  24  27
ATOM     27  C   UNL     1      -2.707  12.928  22.806  0.00  0.00    +0.000 A 
ATOM     28  C   UNL     1      -2.256  13.920  23.698  0.00  0.00    +0.000 A 
ATOM     29  C   UNL     1      -3.032  15.048  23.963  0.00  0.00    +0.000 A 
ATOM     30  C   UNL     1      -4.260  15.186  23.334  0.00  0.00    +0.000 A 
ATOM     31  F   UNL     1      -5.010  16.263  23.592  0.00  0.00    +0.000 F 
ATOM     32  C   UNL     1      -4.725  14.221  22.445  0.00  0.00    +0.000 A 
ATOM     33  C   UNL     1      -3.946  13.097  22.186  0.00  0.00    +0.000 A 
ATOM     34  F   UNL     1      -4.414  12.179  21.325  0.00  0.00    +0.000 F 
ENDBRANCH  24  27
ENDBRANCH  10  23
TORSDOF 4
ENDMDL
MODEL 6
REMARK VINA RESULT:      -8.1      1.685      2.259
REMARK  Name = 
REMARK  5 active torsions:
REMARK  status: ('A' for Active; 'I' for Inactive)
REMARK    1  A    between atoms: C_1  and  O_2
REMARK    2  A    between atoms: O_2  and  C_3
REMARK    3  A    between atoms: C_7  and  C_8
REMARK    4  A    between atoms: C_17  and  N_18
REMARK    5  A    between atoms: C_19  and  C_21
REMARK                            x       y       z     vdW  Elec       q    Type
REMARK                         _______ _______ _______ _____ _____    ______ ____
ROOT
ATOM      1  C   UNL     1       3.971   3.960  17.344  0.00  0.00    +0.000 C 
ATOM      2  O   UNL     1       3.781   2.806  17.726  0.00  0.00    +0.000 OA
ATOM      3  N   UNL     1       3.168   5.023  17.745  0.00  0.00    +0.000 N 
ATOM      4  C   UNL     1       2.220   4.814  18.840  0.00  0.00    +0.000 C 
ATOM      5  C   UNL     1       2.439   5.854  19.955  0.00  0.00    +0.000 C 
ATOM      6  N   UNL     1       2.451   7.213  19.394  0.00  0.00    +0.000 N 
ATOM      7  C   UNL     1       1.768   8.255  19.973  0.00  0.00    +0.000 A 
ATOM      8  C   UNL     1       1.503   8.261  21.334  0.00  0.00    +0.000 A 
ATOM      9  C   UNL     1       0.741   9.278  21.902  0.00  0.00    +0.000 A 
ATOM     10  C   UNL     1       0.231  10.300  21.116  0.00  0.00    +0.000 A 
ATOM     11  C   UNL     1       0.562  10.240  19.765  0.00  0.00    +0.000 A 
ATOM     12  N   UNL     1       1.323   9.265  19.191  0.00  0.00    +0.000 NA
ATOM     13  C   UNL     1       3.319   7.455  18.241  0.00  0.00    +0.000 C 
ATOM     14  C   UNL     1       3.083   6.379  17.164  0.00  0.00    +0.000 C 
ENDROOT
BRANCH   1  19
ATOM     15  C   UNL     1       6.183   4.002  14.276  0.00  0.00    +0.000 A 
ATOM     16  C   UNL     1       7.330   4.611  14.790  0.00  0.00    +0.000 A 
ATOM     17  C   UNL     1       7.365   5.052  16.116  0.00  0.00    +0.000 A 
ATOM     18  C   UNL     1       6.270   4.833  16.952  0.00  0.00    +0.000 A 
ATOM     19  C   UNL     1       5.130   4.198  16.449  0.00  0.00    +0.000 A 
ATOM     20  C   UNL     1       5.065   3.867  15.091  0.00  0.00    +0.000 A 
BRANCH  15  22
ATOM     21  C   UNL     1       7.128   4.318  12.122  0.00  0.00    +0.000 C 
ATOM     22  O   UNL     1       6.263   3.577  12.978  0.00  0.00    +0.000 OA
ENDBRANCH  15  22
ENDBRANCH   1  19
BRANCH  10  23
ATOM     23  N   UNL     1      -0.589  11.341  21.615  0.00  0.00    +0.000 N 
ATOM     24  C   UNL     1      -1.181  11.354  22.872  0.00  0.00    +0.000 C 
ATOM     25  O   UNL     1      -1.046  10.481  23.726  0.00  0.00    +0.000 OA
ATOM     26  H   UNL     1      -0.754  12.133  21.000  0.00  0.00    +0.000 HD
BRANCH  24  27
ATOM     27  C   UNL     1      -2.052  12.497  23.239  0.00  0.00    +0.000 A 
ATOM     28  C   UNL     1      -3.377  12.202  23.613  0.00  0.00    +0.000 A 
ATOM     29  C   UNL     1      -4.266  13.221  23.954  0.00  0.00    +0.000 A 
ATOM     30  C   UNL     1      -3.830  14.536  23.923  0.00  0.00    +0.000 A 
ATOM     31  F   UNL     1      -4.683  15.516  24.242  0.00  0.00    +0.000 F 
ATOM     32  C   UNL     1      -2.523  14.852  23.561  0.00  0.00    +0.000 A 
ATOM     33  C   UNL     1      -1.642  13.830  23.221  0.00  0.00    +0.000 A 
ATOM     34  F   UNL     1      -0.386  14.158  22.874  0.00  0.00    +0.000 F 
ENDBRANCH  24  27
ENDBRANCH  10  23
TORSDOF 4
ENDMDL
MODEL 7
REMARK VINA RESULT:      -8.0      1.224      1.284
REMARK  Name = 
REMARK  5 active torsions:
REMARK  status: ('A' for Active; 'I' for Inactive)
REMARK    1  A    between atoms: C_1  and  O_2
REMARK    2  A    between atoms: O_2  and  C_3
REMARK    3  A    between atoms: C_7  and  C_8
REMARK    4  A    between atoms: C_17  and  N_18
REMARK    5  A    between atoms: C_19  and  C_21
REMARK                            x       y       z     vdW  Elec       q    Type
REMARK                         _______ _______ _______ _____ _____    ______ ____
ROOT
ATOM      1  C   UNL     1       3.075   4.078  18.942  0.00  0.00    +0.000 C 
ATOM      2  O   UNL     1       2.798   2.993  19.451  0.00  0.00    +0.000 OA
ATOM      3  N   UNL     1       2.304   5.218  19.145  0.00  0.00    +0.000 N 
ATOM      4  C   UNL     1       1.274   5.195  20.185  0.00  0.00    +0.000 C 
ATOM      5  C   UNL     1       1.472   6.360  21.172  0.00  0.00    +0.000 C 
ATOM      6  N   UNL     1       1.594   7.633  20.446  0.00  0.00    +0.000 N 
ATOM      7  C   UNL     1       0.930   8.771  20.837  0.00  0.00    +0.000 A 
ATOM      8  C   UNL     1       0.573   8.964  22.163  0.00  0.00    +0.000 A 
ATOM      9  C   UNL     1      -0.170  10.079  22.540  0.00  0.00    +0.000 A 
ATOM     10  C   UNL     1      -0.570  11.012  21.596  0.00  0.00    +0.000 A 
ATOM     11  C   UNL     1      -0.152  10.763  20.291  0.00  0.00    +0.000 A 
ATOM     12  N   UNL     1       0.593   9.689  19.904  0.00  0.00    +0.000 NA
ATOM     13  C   UNL     1       2.550   7.685  19.339  0.00  0.00    +0.000 C 
ATOM     14  C   UNL     1       2.330   6.490  18.393  0.00  0.00    +0.000 C 
ENDROOT
BRANCH   1  19
ATOM     15  C   UNL     1       6.677   4.583  17.903  0.00  0.00    +0.000 A 
ATOM     16  C   UNL     1       6.593   4.316  16.535  0.00  0.00    +0.000 A 
ATOM     17  C   UNL     1       5.379   3.925  15.962  0.00  0.00    +0.000 A 
ATOM     18  C   UNL     1       4.230   3.854  16.747  0.00  0.00    +0.000 A 
ATOM     19  C   UNL     1       4.303   4.147  18.112  0.00  0.00    +0.000 A 
ATOM     20  C   UNL     1       5.545   4.424  18.695  0.00  0.00    +0.000 A 
BRANCH  15  22
ATOM     21  C   UNL     1       7.982   6.329  18.841  0.00  0.00    +0.000 C 
ATOM     22  O   UNL     1       7.901   4.991  18.359  0.00  0.00    +0.000 OA
ENDBRANCH  15  22
ENDBRANCH   1  19
BRANCH  10  23
ATOM     23  N   UNL     1      -1.366  12.144  21.898  0.00  0.00    +0.000 N 
ATOM     24  C   UNL     1      -2.365  12.180  22.862  0.00  0.00    +0.000 C 
ATOM     25  O   UNL     1      -2.669  11.246  23.600  0.00  0.00    +0.000 OA
ATOM     26  H   UNL     1      -1.187  12.989  21.362  0.00  0.00    +0.000 HD
BRANCH  24  27
ATOM     27  C   UNL     1      -3.146  13.429  23.035  0.00  0.00    +0.000 A 
ATOM     28  C   UNL     1      -3.028  14.095  24.270  0.00  0.00    +0.000 A 
ATOM     29  C   UNL     1      -3.743  15.267  24.520  0.00  0.00    +0.000 A 
ATOM     30  C   UNL     1      -4.575  15.773  23.534  0.00  0.00    +0.000 A 
ATOM     31  F   UNL     1      -5.268  16.892  23.773  0.00  0.00    +0.000 F 
ATOM     32  C   UNL     1      -4.704  15.135  22.304  0.00  0.00    +0.000 A 
ATOM     33  C   UNL     1      -3.988  13.966  22.061  0.00  0.00    +0.000 A 
ATOM     34  F   UNL     1      -4.128  13.366  20.867  0.00  0.00    +0.000 F 
ENDBRANCH  24  27
ENDBRANCH  10  23
TORSDOF 4
ENDMDL
MODEL 8
REMARK VINA RESULT:      -7.7      4.325     12.027
REMARK  Name = 
REMARK  5 active torsions:
REMARK  status: ('A' for Active; 'I' for Inactive)
REMARK    1  A    between atoms: C_1  and  O_2
REMARK    2  A    between atoms: O_2  and  C_3
REMARK    3  A    between atoms: C_7  and  C_8
REMARK    4  A    between atoms: C_17  and  N_18
REMARK    5  A    between atoms: C_19  and  C_21
REMARK                            x       y       z     vdW  Elec       q    Type
REMARK                         _______ _______ _______ _____ _____    ______ ____
ROOT
ATOM      1  C   UNL     1      -3.005  13.497  22.542  0.00  0.00    +0.000 C 
ATOM      2  O   UNL     1      -2.860  13.742  23.739  0.00  0.00    +0.000 OA
ATOM      3  N   UNL     1      -2.016  12.888  21.778  0.00  0.00    +0.000 N 
ATOM      4  C   UNL     1      -0.863  12.297  22.460  0.00  0.00    +0.000 C 
ATOM      5  C   UNL     1      -0.694  10.819  22.060  0.00  0.00    +0.000 C 
ATOM      6  N   UNL     1      -0.686  10.682  20.596  0.00  0.00    +0.000 N 
ATOM      7  C   UNL     1       0.228   9.898  19.934  0.00  0.00    +0.000 A 
ATOM      8  C   UNL     1       0.808   8.804  20.558  0.00  0.00    +0.000 A 
ATOM      9  C   UNL     1       1.792   8.062  19.913  0.00  0.00    +0.000 A 
ATOM     10  C   UNL     1       2.211   8.405  18.636  0.00  0.00    +0.000 A 
ATOM     11  C   UNL     1       1.564   9.498  18.066  0.00  0.00    +0.000 A 
ATOM     12  N   UNL     1       0.584  10.226  18.672  0.00  0.00    +0.000 NA
ATOM     13  C   UNL     1      -1.771  11.329  19.856  0.00  0.00    +0.000 C 
ATOM     14  C   UNL     1      -1.920  12.794  20.307  0.00  0.00    +0.000 C 
ENDROOT
BRANCH   1  19
ATOM     15  C   UNL     1      -6.576  13.248  21.320  0.00  0.00    +0.000 A 
ATOM     16  C   UNL     1      -6.739  14.506  20.735  0.00  0.00    +0.000 A 
ATOM     17  C   UNL     1      -5.709  15.450  20.783  0.00  0.00    +0.000 A 
ATOM     18  C   UNL     1      -4.488  15.117  21.368  0.00  0.00    +0.000 A 
ATOM     19  C   UNL     1      -4.310  13.849  21.929  0.00  0.00    +0.000 A 
ATOM     20  C   UNL     1      -5.387  12.957  21.978  0.00  0.00    +0.000 A 
BRANCH  15  22
ATOM     21  C   UNL     1      -7.400  11.217  20.410  0.00  0.00    +0.000 C 
ATOM     22  O   UNL     1      -7.631  12.387  21.190  0.00  0.00    +0.000 OA
ENDBRANCH  15  22
ENDBRANCH   1  19
BRANCH  10  23
ATOM     23  N   UNL     1       3.238   7.725  17.937  0.00  0.00    +0.000 N 
ATOM     24  C   UNL     1       3.763   6.490  18.297  0.00  0.00    +0.000 C 
ATOM     25  O   UNL     1       3.386   5.812  19.249  0.00  0.00    +0.000 OA
ATOM     26  H   UNL     1       3.616   8.184  17.112  0.00  0.00    +0.000 HD
BRANCH  24  27
ATOM     27  C   UNL     1       4.869   5.922  17.489  0.00  0.00    +0.000 A 
ATOM     28  C   UNL     1       4.783   6.064  16.090  0.00  0.00    +0.000 A 
ATOM     29  C   UNL     1       5.772   5.541  15.257  0.00  0.00    +0.000 A 
ATOM     30  C   UNL     1       6.850   4.879  15.823  0.00  0.00    +0.000 A 
ATOM     31  F   UNL     1       7.797   4.370  15.027  0.00  0.00    +0.000 F 
ATOM     32  C   UNL     1       6.960   4.730  17.203  0.00  0.00    +0.000 A 
ATOM     33  C   UNL     1       5.968   5.253  18.028  0.00  0.00    +0.000 A 
ATOM     34  F   UNL     1       6.095   5.098  19.356  0.00  0.00    +0.000 F 
ENDBRANCH  24  27
ENDBRANCH  10  23
TORSDOF 4
ENDMDL
MODEL 9
REMARK VINA RESULT:      -7.7      1.889      2.233
REMARK  Name = 
REMARK  5 active torsions:
REMARK  status: ('A' for Active; 'I' for Inactive)
REMARK    1  A    between atoms: C_1  and  O_2
REMARK    2  A    between atoms: O_2  and  C_3
REMARK    3  A    between atoms: C_7  and  C_8
REMARK    4  A    between atoms: C_17  and  N_18
REMARK    5  A    between atoms: C_19  and  C_21
REMARK                            x       y       z     vdW  Elec       q    Type
REMARK                         _______ _______ _______ _____ _____    ______ ____
ROOT
ATOM      1  C   UNL     1       3.691   4.213  18.619  0.00  0.00    +0.000 C 
ATOM      2  O   UNL     1       3.627   3.161  19.254  0.00  0.00    +0.000 OA
ATOM      3  N   UNL     1       2.800   5.262  18.818  0.00  0.00    +0.000 N 
ATOM      4  C   UNL     1       1.912   5.221  19.981  0.00  0.00    +0.000 C 
ATOM      5  C   UNL     1       2.064   6.499  20.826  0.00  0.00    +0.000 C 
ATOM      6  N   UNL     1       1.924   7.694  19.980  0.00  0.00    +0.000 N 
ATOM      7  C   UNL     1       1.160   8.774  20.351  0.00  0.00    +0.000 A 
ATOM      8  C   UNL     1       0.939   9.061  21.690  0.00  0.00    +0.000 A 
ATOM      9  C   UNL     1       0.100  10.107  22.060  0.00  0.00    +0.000 A 
ATOM     10  C   UNL     1      -0.533  10.878  21.097  0.00  0.00    +0.000 A 
ATOM     11  C   UNL     1      -0.241  10.547  19.776  0.00  0.00    +0.000 A 
ATOM     12  N   UNL     1       0.594   9.540  19.392  0.00  0.00    +0.000 NA
ATOM     13  C   UNL     1       2.727   7.747  18.758  0.00  0.00    +0.000 C 
ATOM     14  C   UNL     1       2.563   6.441  17.959  0.00  0.00    +0.000 C 
ENDROOT
BRANCH   1  19
ATOM     15  C   UNL     1       5.564   4.388  15.337  0.00  0.00    +0.000 A 
ATOM     16  C   UNL     1       6.873   4.553  15.794  0.00  0.00    +0.000 A 
ATOM     17  C   UNL     1       7.140   4.659  17.162  0.00  0.00    +0.000 A 
ATOM     18  C   UNL     1       6.101   4.541  18.084  0.00  0.00    +0.000 A 
ATOM     19  C   UNL     1       4.792   4.346  17.633  0.00  0.00    +0.000 A 
ATOM     20  C   UNL     1       4.524   4.359  16.260  0.00  0.00    +0.000 A 
BRANCH  15  22
ATOM     21  C   UNL     1       6.550   3.792  13.262  0.00  0.00    +0.000 C 
ATOM     22  O   UNL     1       5.414   4.262  13.983  0.00  0.00    +0.000 OA
ENDBRANCH  15  22
ENDBRANCH   1  19
BRANCH  10  23
ATOM     23  N   UNL     1      -1.436  11.927  21.398  0.00  0.00    +0.000 N 
ATOM     24  C   UNL     1      -2.433  12.388  20.547  0.00  0.00    +0.000 C 
ATOM     25  O   UNL     1      -2.683  11.927  19.436  0.00  0.00    +0.000 OA
ATOM     26  H   UNL     1      -1.337  12.373  22.306  0.00  0.00    +0.000 HD
BRANCH  24  27
ATOM     27  C   UNL     1      -3.274  13.527  20.985  0.00  0.00    +0.000 A 
ATOM     28  C   UNL     1      -2.699  14.812  20.927  0.00  0.00    +0.000 A 
ATOM     29  C   UNL     1      -3.417  15.935  21.339  0.00  0.00    +0.000 A 
ATOM     30  C   UNL     1      -4.711  15.774  21.808  0.00  0.00    +0.000 A 
ATOM     31  F   UNL     1      -5.399  16.848  22.211  0.00  0.00    +0.000 F 
ATOM     32  C   UNL     1      -5.303  14.515  21.870  0.00  0.00    +0.000 A 
ATOM     33  C   UNL     1      -4.580  13.399  21.459  0.00  0.00    +0.000 A 
ATOM     34  F   UNL     1      -5.171  12.194  21.527  0.00  0.00    +0.000 F 
ENDBRANCH  24  27
ENDBRANCH  10  23
TORSDOF 4
ENDMDL
