MODEL 1
REMARK VINA RESULT:      -8.2      0.000      0.000
REMARK  Name = 
REMARK  12 active torsions:
REMARK  status: ('A' for Active; 'I' for Inactive)
REMARK    1  A    between atoms: C_1  and  C_2
REMARK    2  A    between atoms: C_2  and  C_3
REMARK    3  A    between atoms: C_3  and  N_4
REMARK    4  A    between atoms: C_3  and  C_12
REMARK    5  A    between atoms: C_5  and  O_7
REMARK    6  A    between atoms: O_7  and  C_8
REMARK    7  A    between atoms: C_8  and  C_9
REMARK    8  A    between atoms: C_8  and  C_10
REMARK    9  A    between atoms: C_8  and  C_11
REMARK   10  A    between atoms: C_12  and  O_14
REMARK   11  A    between atoms: O_14  and  C_15
REMARK   12  A    between atoms: C_17  and  C_18
REMARK                            x       y       z     vdW  Elec       q    Type
REMARK                         _______ _______ _______ _____ _____    ______ ____
ROOT
ATOM      1  O   UNL     1       4.436   5.734  16.816  0.00  0.00    +0.000 OA
ENDROOT
BRANCH   1   2
ATOM      2  C   UNL     1       3.538   6.271  17.771  0.00  0.00    +0.000 A 
ATOM      3  C   UNL     1       3.121   7.607  17.653  0.00  0.00    +0.000 A 
ATOM      4  C   UNL     1       2.304   8.198  18.630  0.00  0.00    +0.000 A 
ATOM      5  C   UNL     1       1.876   9.632  18.523  0.00  0.00    +0.000 C 
ATOM      6  C   UNL     1       1.905   7.435  19.726  0.00  0.00    +0.000 A 
ATOM      7  C   UNL     1       2.323   6.108  19.830  0.00  0.00    +0.000 A 
ATOM      8  O   UNL     1       1.855   5.406  20.973  0.00  0.00    +0.000 OA
ATOM      9  C   UNL     1       2.174   4.070  21.210  0.00  0.00    +0.000 A 
ATOM     10  O   UNL     1       1.779   3.464  22.177  0.00  0.00    +0.000 OA
ATOM     11  C   UNL     1       3.039   3.460  20.190  0.00  0.00    +0.000 A 
ATOM     12  C   UNL     1       3.497   4.107  19.118  0.00  0.00    +0.000 A 
ATOM     13  C   UNL     1       3.152   5.499  18.874  0.00  0.00    +0.000 A 
ATOM     14  C   UNL     1       4.345   3.231  18.265  0.00  0.00    +0.000 C 
ATOM     15  C   UNL     1       4.344   1.889  19.003  0.00  0.00    +0.000 C 
ATOM     16  C   UNL     1       3.484   2.046  20.261  0.00  0.00    +0.000 C 
ENDBRANCH   1   2
BRANCH   1  17
ATOM     17  C   UNL     1       5.688   6.329  16.719  0.00  0.00    +0.000 C 
ATOM     18  O   UNL     1       5.878   7.537  16.810  0.00  0.00    +0.000 OA
BRANCH  17  19
ATOM     19  C   UNL     1       6.818   5.284  16.572  0.00  0.00    +0.000 C 
BRANCH  19  20
ATOM     20  N   UNL     1       6.491   4.181  15.647  0.00  0.00    +0.000 N 
ATOM     21  C   UNL     1       6.643   4.321  14.292  0.00  0.00    +0.000 C 
ATOM     22  O   UNL     1       7.045   5.364  13.789  0.00  0.00    +0.000 OA
ATOM     23  H   UNL     1       6.345   3.234  15.979  0.00  0.00    +0.000 HD
BRANCH  21  24
ATOM     24  O   UNL     1       6.349   3.173  13.620  0.00  0.00    +0.000 OA
BRANCH  24  25
ATOM     25  C   UNL     1       6.125   3.226  12.172  0.00  0.00    +0.000 C 
ATOM     26  C   UNL     1       7.129   4.142  11.447  0.00  0.00    +0.000 C 
ATOM     27  C   UNL     1       6.222   1.795  11.608  0.00  0.00    +0.000 C 
ATOM     28  C   UNL     1       4.713   3.748  11.899  0.00  0.00    +0.000 C 
ENDBRANCH  24  25
ENDBRANCH  21  24
ENDBRANCH  19  20
BRANCH  19  30
ATOM     29  C   UNL     1       7.758   5.763  18.968  0.00  0.00    +0.000 C 
ATOM     30  C   UNL     1       7.182   4.754  17.980  0.00  0.00    +0.000 C 
ENDBRANCH  19  30
ENDBRANCH  17  19
ENDBRANCH   1  17
TORSDOF 7
ENDMDL
MODEL 2
REMARK VINA RESULT:      -8.0      3.810      7.593
REMARK  Name = 
REMARK  12 active torsions:
REMARK  status: ('A' for Active; 'I' for Inactive)
REMARK    1  A    between atoms: C_1  and  C_2
REMARK    2  A    between atoms: C_2  and  C_3
REMARK    3  A    between atoms: C_3  and  N_4
REMARK    4  A    between atoms: C_3  and  C_12
REMARK    5  A    between atoms: C_5  and  O_7
REMARK    6  A    between atoms: O_7  and  C_8
REMARK    7  A    between atoms: C_8  and  C_9
REMARK    8  A    between atoms: C_8  and  C_10
REMARK    9  A    between atoms: C_8  and  C_11
REMARK   10  A    between atoms: C_12  and  O_14
REMARK   11  A    between atoms: O_14  and  C_15
REMARK   12  A    between atoms: C_17  and  C_18
REMARK                            x       y       z     vdW  Elec       q    Type
REMARK                         _______ _______ _______ _____ _____    ______ ____
ROOT
ATOM      1  O   UNL     1       2.312   6.836  18.001  0.00  0.00    +0.000 OA
ENDROOT
BRANCH   1   2
ATOM      2  C   UNL     1       3.634   6.350  18.148  0.00  0.00    +0.000 A 
ATOM      3  C   UNL     1       4.697   7.044  17.546  0.00  0.00    +0.000 A 
ATOM      4  C   UNL     1       6.006   6.543  17.594  0.00  0.00    +0.000 A 
ATOM      5  C   UNL     1       7.141   7.266  16.931  0.00  0.00    +0.000 C 
ATOM      6  C   UNL     1       6.244   5.339  18.256  0.00  0.00    +0.000 A 
ATOM      7  C   UNL     1       5.180   4.661  18.853  0.00  0.00    +0.000 A 
ATOM      8  O   UNL     1       5.520   3.452  19.516  0.00  0.00    +0.000 OA
ATOM      9  C   UNL     1       4.571   2.669  20.173  0.00  0.00    +0.000 A 
ATOM     10  O   UNL     1       4.851   1.641  20.742  0.00  0.00    +0.000 OA
ATOM     11  C   UNL     1       3.200   3.193  20.109  0.00  0.00    +0.000 A 
ATOM     12  C   UNL     1       2.861   4.319  19.480  0.00  0.00    +0.000 A 
ATOM     13  C   UNL     1       3.859   5.134  18.806  0.00  0.00    +0.000 A 
ATOM     14  C   UNL     1       1.403   4.594  19.589  0.00  0.00    +0.000 C 
ATOM     15  C   UNL     1       0.868   3.418  20.411  0.00  0.00    +0.000 C 
ATOM     16  C   UNL     1       2.051   2.506  20.750  0.00  0.00    +0.000 C 
ENDBRANCH   1   2
BRANCH   1  17
ATOM     17  C   UNL     1       2.132   8.213  18.059  0.00  0.00    +0.000 C 
ATOM     18  O   UNL     1       2.621   8.999  17.253  0.00  0.00    +0.000 OA
BRANCH  17  19
ATOM     19  C   UNL     1       1.175   8.627  19.200  0.00  0.00    +0.000 C 
BRANCH  19  20
ATOM     20  N   UNL     1       0.901  10.077  19.249  0.00  0.00    +0.000 N 
ATOM     21  C   UNL     1      -0.219  10.609  18.664  0.00  0.00    +0.000 C 
ATOM     22  O   UNL     1      -1.034   9.911  18.070  0.00  0.00    +0.000 OA
ATOM     23  H   UNL     1       1.405  10.693  19.877  0.00  0.00    +0.000 HD
BRANCH  21  24
ATOM     24  O   UNL     1      -0.321  11.951  18.874  0.00  0.00    +0.000 OA
BRANCH  24  25
ATOM     25  C   UNL     1      -1.244  12.449  19.898  0.00  0.00    +0.000 C 
ATOM     26  C   UNL     1      -0.995  13.925  20.259  0.00  0.00    +0.000 C 
ATOM     27  C   UNL     1      -2.687  12.273  19.384  0.00  0.00    +0.000 C 
ATOM     28  C   UNL     1      -1.089  11.609  21.168  0.00  0.00    +0.000 C 
ENDBRANCH  24  25
ENDBRANCH  21  24
ENDBRANCH  19  20
BRANCH  19  30
ATOM     29  C   UNL     1       1.117   8.647  21.817  0.00  0.00    +0.000 C 
ATOM     30  C   UNL     1       1.758   8.116  20.539  0.00  0.00    +0.000 C 
ENDBRANCH  19  30
ENDBRANCH  17  19
ENDBRANCH   1  17
TORSDOF 7
ENDMDL
MODEL 3
REMARK VINA RESULT:      -7.9      0.823      3.529
REMARK  Name = 
REMARK  12 active torsions:
REMARK  status: ('A' for Active; 'I' for Inactive)
REMARK    1  A    between atoms: C_1  and  C_2
REMARK    2  A    between atoms: C_2  and  C_3
REMARK    3  A    between atoms: C_3  and  N_4
REMARK    4  A    between atoms: C_3  and  C_12
REMARK    5  A    between atoms: C_5  and  O_7
REMARK    6  A    between atoms: O_7  and  C_8
REMARK    7  A    between atoms: C_8  and  C_9
REMARK    8  A    between atoms: C_8  and  C_10
REMARK    9  A    between atoms: C_8  and  C_11
REMARK   10  A    between atoms: C_12  and  O_14
REMARK   11  A    between atoms: O_14  and  C_15
REMARK   12  A    between atoms: C_17  and  C_18
REMARK                            x       y       z     vdW  Elec       q    Type
REMARK                         _______ _______ _______ _____ _____    ______ ____
ROOT
ATOM      1  O   UNL     1       4.544   5.782  16.977  0.00  0.00    +0.000 OA
ENDROOT
BRANCH   1   2
ATOM      2  C   UNL     1       4.065   5.254  18.201  0.00  0.00    +0.000 A 
ATOM      3  C   UNL     1       4.462   3.967  18.602  0.00  0.00    +0.000 A 
ATOM      4  C   UNL     1       3.938   3.378  19.762  0.00  0.00    +0.000 A 
ATOM      5  C   UNL     1       4.338   1.994  20.181  0.00  0.00    +0.000 C 
ATOM      6  C   UNL     1       3.011   4.091  20.521  0.00  0.00    +0.000 A 
ATOM      7  C   UNL     1       2.627   5.370  20.114  0.00  0.00    +0.000 A 
ATOM      8  O   UNL     1       1.691   6.025  20.958  0.00  0.00    +0.000 OA
ATOM      9  C   UNL     1       1.222   7.311  20.694  0.00  0.00    +0.000 A 
ATOM     10  O   UNL     1       0.428   7.877  21.407  0.00  0.00    +0.000 OA
ATOM     11  C   UNL     1       1.767   7.919  19.473  0.00  0.00    +0.000 A 
ATOM     12  C   UNL     1       2.636   7.314  18.663  0.00  0.00    +0.000 A 
ATOM     13  C   UNL     1       3.127   5.976  18.951  0.00  0.00    +0.000 A 
ATOM     14  C   UNL     1       3.009   8.177  17.509  0.00  0.00    +0.000 C 
ATOM     15  C   UNL     1       2.203   9.459  17.735  0.00  0.00    +0.000 C 
ATOM     16  C   UNL     1       1.394   9.284  19.024  0.00  0.00    +0.000 C 
ENDBRANCH   1   2
BRANCH   1  17
ATOM     17  C   UNL     1       5.822   6.327  16.979  0.00  0.00    +0.000 C 
ATOM     18  O   UNL     1       6.079   7.463  17.363  0.00  0.00    +0.000 OA
BRANCH  17  19
ATOM     19  C   UNL     1       6.890   5.305  16.525  0.00  0.00    +0.000 C 
BRANCH  19  20
ATOM     20  N   UNL     1       6.363   4.250  15.636  0.00  0.00    +0.000 N 
ATOM     21  C   UNL     1       6.562   4.298  14.280  0.00  0.00    +0.000 C 
ATOM     22  O   UNL     1       7.173   5.217  13.747  0.00  0.00    +0.000 OA
ATOM     23  H   UNL     1       6.025   3.366  16.001  0.00  0.00    +0.000 HD
BRANCH  21  24
ATOM     24  O   UNL     1       6.055   3.204  13.648  0.00  0.00    +0.000 OA
BRANCH  24  25
ATOM     25  C   UNL     1       5.980   3.192  12.184  0.00  0.00    +0.000 C 
ATOM     26  C   UNL     1       6.162   1.783  11.589  0.00  0.00    +0.000 C 
ATOM     27  C   UNL     1       4.614   3.766  11.758  0.00  0.00    +0.000 C 
ATOM     28  C   UNL     1       7.073   4.100  11.615  0.00  0.00    +0.000 C 
ENDBRANCH  24  25
ENDBRANCH  21  24
ENDBRANCH  19  20
BRANCH  19  30
ATOM     29  C   UNL     1       7.908   5.673  18.909  0.00  0.00    +0.000 C 
ATOM     30  C   UNL     1       7.560   4.703  17.783  0.00  0.00    +0.000 C 
ENDBRANCH  19  30
ENDBRANCH  17  19
ENDBRANCH   1  17
TORSDOF 7
ENDMDL
MODEL 4
REMARK VINA RESULT:      -7.8      3.855      7.434
REMARK  Name = 
REMARK  12 active torsions:
REMARK  status: ('A' for Active; 'I' for Inactive)
REMARK    1  A    between atoms: C_1  and  C_2
REMARK    2  A    between atoms: C_2  and  C_3
REMARK    3  A    between atoms: C_3  and  N_4
REMARK    4  A    between atoms: C_3  and  C_12
REMARK    5  A    between atoms: C_5  and  O_7
REMARK    6  A    between atoms: O_7  and  C_8
REMARK    7  A    between atoms: C_8  and  C_9
REMARK    8  A    between atoms: C_8  and  C_10
REMARK    9  A    between atoms: C_8  and  C_11
REMARK   10  A    between atoms: C_12  and  O_14
REMARK   11  A    between atoms: O_14  and  C_15
REMARK   12  A    between atoms: C_17  and  C_18
REMARK                            x       y       z     vdW  Elec       q    Type
REMARK                         _______ _______ _______ _____ _____    ______ ____
ROOT
ATOM      1  O   UNL     1       2.353   6.926  17.927  0.00  0.00    +0.000 OA
ENDROOT
BRANCH   1   2
ATOM      2  C   UNL     1       3.675   6.452  18.118  0.00  0.00    +0.000 A 
ATOM      3  C   UNL     1       4.755   7.192  17.610  0.00  0.00    +0.000 A 
ATOM      4  C   UNL     1       6.069   6.709  17.702  0.00  0.00    +0.000 A 
ATOM      5  C   UNL     1       7.224   7.483  17.139  0.00  0.00    +0.000 C 
ATOM      6  C   UNL     1       6.292   5.475  18.311  0.00  0.00    +0.000 A 
ATOM      7  C   UNL     1       5.211   4.750  18.814  0.00  0.00    +0.000 A 
ATOM      8  O   UNL     1       5.537   3.513  19.430  0.00  0.00    +0.000 OA
ATOM      9  C   UNL     1       4.570   2.682  19.993  0.00  0.00    +0.000 A 
ATOM     10  O   UNL     1       4.837   1.629  20.521  0.00  0.00    +0.000 OA
ATOM     11  C   UNL     1       3.195   3.188  19.884  0.00  0.00    +0.000 A 
ATOM     12  C   UNL     1       2.869   4.341  19.299  0.00  0.00    +0.000 A 
ATOM     13  C   UNL     1       3.886   5.206  18.722  0.00  0.00    +0.000 A 
ATOM     14  C   UNL     1       1.403   4.589  19.344  0.00  0.00    +0.000 C 
ATOM     15  C   UNL     1       0.846   3.363  20.074  0.00  0.00    +0.000 C 
ATOM     16  C   UNL     1       2.026   2.451  20.427  0.00  0.00    +0.000 C 
ENDBRANCH   1   2
BRANCH   1  17
ATOM     17  C   UNL     1       2.160   8.301  17.978  0.00  0.00    +0.000 C 
ATOM     18  O   UNL     1       2.532   9.075  17.102  0.00  0.00    +0.000 OA
BRANCH  17  19
ATOM     19  C   UNL     1       1.345   8.728  19.220  0.00  0.00    +0.000 C 
BRANCH  19  20
ATOM     20  N   UNL     1       1.384  10.180  19.487  0.00  0.00    +0.000 N 
ATOM     21  C   UNL     1       0.253  10.868  19.843  0.00  0.00    +0.000 C 
ATOM     22  O   UNL     1      -0.836  10.315  19.948  0.00  0.00    +0.000 OA
ATOM     23  H   UNL     1       2.260  10.673  19.618  0.00  0.00    +0.000 HD
BRANCH  21  24
ATOM     24  O   UNL     1       0.510  12.179  20.106  0.00  0.00    +0.000 OA
BRANCH  24  25
ATOM     25  C   UNL     1       0.286  13.178  19.057  0.00  0.00    +0.000 C 
ATOM     26  C   UNL     1      -0.791  12.748  18.044  0.00  0.00    +0.000 C 
ATOM     27  C   UNL     1      -0.125  14.506  19.725  0.00  0.00    +0.000 C 
ATOM     28  C   UNL     1       1.594  13.416  18.298  0.00  0.00    +0.000 C 
ENDBRANCH  24  25
ENDBRANCH  21  24
ENDBRANCH  19  20
BRANCH  19  30
ATOM     29  C   UNL     1       0.872   7.749  21.602  0.00  0.00    +0.000 C 
ATOM     30  C   UNL     1       1.845   7.915  20.438  0.00  0.00    +0.000 C 
ENDBRANCH  19  30
ENDBRANCH  17  19
ENDBRANCH   1  17
TORSDOF 7
ENDMDL
MODEL 5
REMARK VINA RESULT:      -7.7      1.428      3.926
REMARK  Name = 
REMARK  12 active torsions:
REMARK  status: ('A' for Active; 'I' for Inactive)
REMARK    1  A    between atoms: C_1  and  C_2
REMARK    2  A    between atoms: C_2  and  C_3
REMARK    3  A    between atoms: C_3  and  N_4
REMARK    4  A    between atoms: C_3  and  C_12
REMARK    5  A    between atoms: C_5  and  O_7
REMARK    6  A    between atoms: O_7  and  C_8
REMARK    7  A    between atoms: C_8  and  C_9
REMARK    8  A    between atoms: C_8  and  C_10
REMARK    9  A    between atoms: C_8  and  C_11
REMARK   10  A    between atoms: C_12  and  O_14
REMARK   11  A    between atoms: O_14  and  C_15
REMARK   12  A    between atoms: C_17  and  C_18
REMARK                            x       y       z     vdW  Elec       q    Type
REMARK                         _______ _______ _______ _____ _____    ______ ____
ROOT
ATOM      1  O   UNL     1       3.497   5.607  17.569  0.00  0.00    +0.000 OA
ENDROOT
BRANCH   1   2
ATOM      2  C   UNL     1       2.982   5.429  18.877  0.00  0.00    +0.000 A 
ATOM      3  C   UNL     1       3.093   4.175  19.499  0.00  0.00    +0.000 A 
ATOM      4  C   UNL     1       2.516   3.938  20.756  0.00  0.00    +0.000 A 
ATOM      5  C   UNL     1       2.610   2.594  21.414  0.00  0.00    +0.000 C 
ATOM      6  C   UNL     1       1.825   4.972  21.386  0.00  0.00    +0.000 A 
ATOM      7  C   UNL     1       1.724   6.215  20.759  0.00  0.00    +0.000 A 
ATOM      8  O   UNL     1       1.016   7.210  21.483  0.00  0.00    +0.000 OA
ATOM      9  C   UNL     1       0.842   8.505  20.996  0.00  0.00    +0.000 A 
ATOM     10  O   UNL     1       0.244   9.359  21.606  0.00  0.00    +0.000 OA
ATOM     11  C   UNL     1       1.439   8.744  19.675  0.00  0.00    +0.000 A 
ATOM     12  C   UNL     1       2.097   7.818  18.976  0.00  0.00    +0.000 A 
ATOM     13  C   UNL     1       2.281   6.472  19.496  0.00  0.00    +0.000 A 
ATOM     14  C   UNL     1       2.590   8.353  17.679  0.00  0.00    +0.000 C 
ATOM     15  C   UNL     1       2.117   9.810  17.679  0.00  0.00    +0.000 C 
ATOM     16  C   UNL     1       1.366  10.059  18.991  0.00  0.00    +0.000 C 
ENDBRANCH   1   2
BRANCH   1  17
ATOM     17  C   UNL     1       4.046   4.493  16.947  0.00  0.00    +0.000 C 
ATOM     18  O   UNL     1       3.403   3.491  16.652  0.00  0.00    +0.000 OA
BRANCH  17  19
ATOM     19  C   UNL     1       5.536   4.701  16.591  0.00  0.00    +0.000 C 
BRANCH  19  20
ATOM     20  N   UNL     1       6.004   3.856  15.474  0.00  0.00    +0.000 N 
ATOM     21  C   UNL     1       6.626   4.402  14.381  0.00  0.00    +0.000 C 
ATOM     22  O   UNL     1       6.812   5.610  14.278  0.00  0.00    +0.000 OA
ATOM     23  H   UNL     1       6.071   2.848  15.561  0.00  0.00    +0.000 HD
BRANCH  21  24
ATOM     24  O   UNL     1       7.036   3.453  13.495  0.00  0.00    +0.000 OA
BRANCH  24  25
ATOM     25  C   UNL     1       6.489   3.457  12.135  0.00  0.00    +0.000 C 
ATOM     26  C   UNL     1       4.954   3.576  12.111  0.00  0.00    +0.000 C 
ATOM     27  C   UNL     1       7.116   4.631  11.357  0.00  0.00    +0.000 C 
ATOM     28  C   UNL     1       6.883   2.158  11.429  0.00  0.00    +0.000 C 
ENDBRANCH  24  25
ENDBRANCH  21  24
ENDBRANCH  19  20
BRANCH  19  30
ATOM     29  C   UNL     1       6.754   5.710  18.678  0.00  0.00    +0.000 C 
ATOM     30  C   UNL     1       6.382   4.472  17.867  0.00  0.00    +0.000 C 
ENDBRANCH  19  30
ENDBRANCH  17  19
ENDBRANCH   1  17
TORSDOF 7
ENDMDL
MODEL 6
REMARK VINA RESULT:      -7.6      3.839      7.653
REMARK  Name = 
REMARK  12 active torsions:
REMARK  status: ('A' for Active; 'I' for Inactive)
REMARK    1  A    between atoms: C_1  and  C_2
REMARK    2  A    between atoms: C_2  and  C_3
REMARK    3  A    between atoms: C_3  and  N_4
REMARK    4  A    between atoms: C_3  and  C_12
REMARK    5  A    between atoms: C_5  and  O_7
REMARK    6  A    between atoms: O_7  and  C_8
REMARK    7  A    between atoms: C_8  and  C_9
REMARK    8  A    between atoms: C_8  and  C_10
REMARK    9  A    between atoms: C_8  and  C_11
REMARK   10  A    between atoms: C_12  and  O_14
REMARK   11  A    between atoms: O_14  and  C_15
REMARK   12  A    between atoms: C_17  and  C_18
REMARK                            x       y       z     vdW  Elec       q    Type
REMARK                         _______ _______ _______ _____ _____    ______ ____
ROOT
ATOM      1  O   UNL     1       2.285   7.037  18.250  0.00  0.00    +0.000 OA
ENDROOT
BRANCH   1   2
ATOM      2  C   UNL     1       3.605   6.526  18.313  0.00  0.00    +0.000 A 
ATOM      3  C   UNL     1       4.656   7.252  17.728  0.00  0.00    +0.000 A 
ATOM      4  C   UNL     1       5.959   6.734  17.694  0.00  0.00    +0.000 A 
ATOM      5  C   UNL     1       7.081   7.492  17.048  0.00  0.00    +0.000 C 
ATOM      6  C   UNL     1       6.202   5.480  18.253  0.00  0.00    +0.000 A 
ATOM      7  C   UNL     1       5.150   4.771  18.834  0.00  0.00    +0.000 A 
ATOM      8  O   UNL     1       5.496   3.511  19.391  0.00  0.00    +0.000 OA
ATOM      9  C   UNL     1       4.559   2.691  20.019  0.00  0.00    +0.000 A 
ATOM     10  O   UNL     1       4.843   1.620  20.498  0.00  0.00    +0.000 OA
ATOM     11  C   UNL     1       3.194   3.234  20.043  0.00  0.00    +0.000 A 
ATOM     12  C   UNL     1       2.849   4.408  19.514  0.00  0.00    +0.000 A 
ATOM     13  C   UNL     1       3.835   5.261  18.869  0.00  0.00    +0.000 A 
ATOM     14  C   UNL     1       1.400   4.691  19.694  0.00  0.00    +0.000 C 
ATOM     15  C   UNL     1       0.876   3.462  20.443  0.00  0.00    +0.000 C 
ATOM     16  C   UNL     1       2.058   2.513  20.670  0.00  0.00    +0.000 C 
ENDBRANCH   1   2
BRANCH   1  17
ATOM     17  C   UNL     1       1.956   8.054  19.137  0.00  0.00    +0.000 C 
ATOM     18  O   UNL     1       2.043   7.950  20.356  0.00  0.00    +0.000 OA
BRANCH  17  19
ATOM     19  C   UNL     1       1.553   9.356  18.407  0.00  0.00    +0.000 C 
BRANCH  19  20
ATOM     20  N   UNL     1       1.284  10.489  19.315  0.00  0.00    +0.000 N 
ATOM     21  C   UNL     1       1.780  11.741  19.056  0.00  0.00    +0.000 C 
ATOM     22  O   UNL     1       2.471  11.973  18.070  0.00  0.00    +0.000 OA
ATOM     23  H   UNL     1       0.571  10.437  20.034  0.00  0.00    +0.000 HD
BRANCH  21  24
ATOM     24  O   UNL     1       1.369  12.657  19.976  0.00  0.00    +0.000 OA
BRANCH  24  25
ATOM     25  C   UNL     1       0.084  13.336  19.787  0.00  0.00    +0.000 C 
ATOM     26  C   UNL     1      -0.320  13.448  18.305  0.00  0.00    +0.000 C 
ATOM     27  C   UNL     1      -0.999  12.562  20.566  0.00  0.00    +0.000 C 
ATOM     28  C   UNL     1       0.168  14.748  20.371  0.00  0.00    +0.000 C 
ENDBRANCH  24  25
ENDBRANCH  21  24
ENDBRANCH  19  20
BRANCH  19  30
ATOM     29  C   UNL     1      -0.928   9.874  17.751  0.00  0.00    +0.000 C 
ATOM     30  C   UNL     1       0.334   9.054  17.503  0.00  0.00    +0.000 C 
ENDBRANCH  19  30
ENDBRANCH  17  19
ENDBRANCH   1  17
TORSDOF 7
ENDMDL
MODEL 7
REMARK VINA RESULT:      -7.6      3.796      7.671
REMARK  Name = 
REMARK  12 active torsions:
REMARK  status: ('A' for Active; 'I' for Inactive)
REMARK    1  A    between atoms: C_1  and  C_2
REMARK    2  A    between atoms: C_2  and  C_3
REMARK    3  A    between atoms: C_3  and  N_4
REMARK    4  A    between atoms: C_3  and  C_12
REMARK    5  A    between atoms: C_5  and  O_7
REMARK    6  A    between atoms: O_7  and  C_8
REMARK    7  A    between atoms: C_8  and  C_9
REMARK    8  A    between atoms: C_8  and  C_10
REMARK    9  A    between atoms: C_8  and  C_11
REMARK   10  A    between atoms: C_12  and  O_14
REMARK   11  A    between atoms: O_14  and  C_15
REMARK   12  A    between atoms: C_17  and  C_18
REMARK                            x       y       z     vdW  Elec       q    Type
REMARK                         _______ _______ _______ _____ _____    ______ ____
ROOT
ATOM      1  O   UNL     1       2.303   6.942  18.447  0.00  0.00    +0.000 OA
ENDROOT
BRANCH   1   2
ATOM      2  C   UNL     1       3.615   6.407  18.433  0.00  0.00    +0.000 A 
ATOM      3  C   UNL     1       4.634   7.094  17.755  0.00  0.00    +0.000 A 
ATOM      4  C   UNL     1       5.923   6.550  17.644  0.00  0.00    +0.000 A 
ATOM      5  C   UNL     1       7.010   7.268  16.900  0.00  0.00    +0.000 C 
ATOM      6  C   UNL     1       6.182   5.309  18.223  0.00  0.00    +0.000 A 
ATOM      7  C   UNL     1       5.162   4.637  18.897  0.00  0.00    +0.000 A 
ATOM      8  O   UNL     1       5.523   3.387  19.465  0.00  0.00    +0.000 OA
ATOM      9  C   UNL     1       4.619   2.603  20.181  0.00  0.00    +0.000 A 
ATOM     10  O   UNL     1       4.918   1.541  20.671  0.00  0.00    +0.000 OA
ATOM     11  C   UNL     1       3.268   3.173  20.284  0.00  0.00    +0.000 A 
ATOM     12  C   UNL     1       2.909   4.339  19.746  0.00  0.00    +0.000 A 
ATOM     13  C   UNL     1       3.861   5.153  19.009  0.00  0.00    +0.000 A 
ATOM     14  C   UNL     1       1.480   4.655  20.018  0.00  0.00    +0.000 C 
ATOM     15  C   UNL     1       0.989   3.458  20.838  0.00  0.00    +0.000 C 
ATOM     16  C   UNL     1       2.167   2.493  21.011  0.00  0.00    +0.000 C 
ENDBRANCH   1   2
BRANCH   1  17
ATOM     17  C   UNL     1       2.165   8.290  18.142  0.00  0.00    +0.000 C 
ATOM     18  O   UNL     1       2.678   8.825  17.165  0.00  0.00    +0.000 OA
BRANCH  17  19
ATOM     19  C   UNL     1       1.218   9.015  19.127  0.00  0.00    +0.000 C 
BRANCH  19  20
ATOM     20  N   UNL     1       1.132  10.472  18.905  0.00  0.00    +0.000 N 
ATOM     21  C   UNL     1      -0.077  11.092  18.719  0.00  0.00    +0.000 C 
ATOM     22  O   UNL     1      -1.133  10.468  18.720  0.00  0.00    +0.000 OA
ATOM     23  H   UNL     1       1.919  11.085  19.084  0.00  0.00    +0.000 HD
BRANCH  21  24
ATOM     24  O   UNL     1       0.051  12.442  18.595  0.00  0.00    +0.000 OA
BRANCH  24  25
ATOM     25  C   UNL     1      -0.118  13.291  19.778  0.00  0.00    +0.000 C 
ATOM     26  C   UNL     1      -1.254  12.809  20.699  0.00  0.00    +0.000 C 
ATOM     27  C   UNL     1       1.212  13.316  20.557  0.00  0.00    +0.000 C 
ATOM     28  C   UNL     1      -0.433  14.721  19.332  0.00  0.00    +0.000 C 
ENDBRANCH  24  25
ENDBRANCH  21  24
ENDBRANCH  19  20
BRANCH  19  30
ATOM     29  C   UNL     1       0.580   8.633  21.637  0.00  0.00    +0.000 C 
ATOM     30  C   UNL     1       1.669   8.688  20.571  0.00  0.00    +0.000 C 
ENDBRANCH  19  30
ENDBRANCH  17  19
ENDBRANCH   1  17
TORSDOF 7
ENDMDL
MODEL 8
REMARK VINA RESULT:      -7.5      6.235      9.668
REMARK  Name = 
REMARK  12 active torsions:
REMARK  status: ('A' for Active; 'I' for Inactive)
REMARK    1  A    between atoms: C_1  and  C_2
REMARK    2  A    between atoms: C_2  and  C_3
REMARK    3  A    between atoms: C_3  and  N_4
REMARK    4  A    between atoms: C_3  and  C_12
REMARK    5  A    between atoms: C_5  and  O_7
REMARK    6  A    between atoms: O_7  and  C_8
REMARK    7  A    between atoms: C_8  and  C_9
REMARK    8  A    between atoms: C_8  and  C_10
REMARK    9  A    between atoms: C_8  and  C_11
REMARK   10  A    between atoms: C_12  and  O_14
REMARK   11  A    between atoms: O_14  and  C_15
REMARK   12  A    between atoms: C_17  and  C_18
REMARK                            x       y       z     vdW  Elec       q    Type
REMARK                         _______ _______ _______ _____ _____    ______ ____
ROOT
ATOM      1  O   UNL     1      -1.496  11.068  19.481  0.00  0.00    +0.000 OA
ENDROOT
BRANCH   1   2
ATOM      2  C   UNL     1      -2.474  11.066  18.456  0.00  0.00    +0.000 A 
ATOM      3  C   UNL     1      -2.190  10.440  17.231  0.00  0.00    +0.000 A 
ATOM      4  C   UNL     1      -3.099  10.497  16.163  0.00  0.00    +0.000 A 
ATOM      5  C   UNL     1      -2.791   9.853  14.844  0.00  0.00    +0.000 C 
ATOM      6  C   UNL     1      -4.299  11.186  16.335  0.00  0.00    +0.000 A 
ATOM      7  C   UNL     1      -4.571  11.800  17.558  0.00  0.00    +0.000 A 
ATOM      8  O   UNL     1      -5.823  12.464  17.644  0.00  0.00    +0.000 OA
ATOM      9  C   UNL     1      -6.245  13.113  18.804  0.00  0.00    +0.000 A 
ATOM     10  O   UNL     1      -7.308  13.678  18.888  0.00  0.00    +0.000 OA
ATOM     11  C   UNL     1      -5.284  13.060  19.915  0.00  0.00    +0.000 A 
ATOM     12  C   UNL     1      -4.099  12.451  19.847  0.00  0.00    +0.000 A 
ATOM     13  C   UNL     1      -3.672  11.770  18.636  0.00  0.00    +0.000 A 
ATOM     14  C   UNL     1      -3.349  12.562  21.127  0.00  0.00    +0.000 C 
ATOM     15  C   UNL     1      -4.285  13.366  22.034  0.00  0.00    +0.000 C 
ATOM     16  C   UNL     1      -5.552  13.686  21.234  0.00  0.00    +0.000 C 
ENDBRANCH   1   2
BRANCH   1  17
ATOM     17  C   UNL     1      -0.229  11.531  19.148  0.00  0.00    +0.000 C 
ATOM     18  O   UNL     1      -0.023  12.580  18.547  0.00  0.00    +0.000 OA
BRANCH  17  19
ATOM     19  C   UNL     1       0.888  10.616  19.700  0.00  0.00    +0.000 C 
BRANCH  19  20
ATOM     20  N   UNL     1       0.912   9.272  19.089  0.00  0.00    +0.000 N 
ATOM     21  C   UNL     1       1.697   9.001  17.998  0.00  0.00    +0.000 C 
ATOM     22  O   UNL     1       2.403   9.858  17.478  0.00  0.00    +0.000 OA
ATOM     23  H   UNL     1       0.522   8.465  19.564  0.00  0.00    +0.000 HD
BRANCH  21  24
ATOM     24  O   UNL     1       1.626   7.692  17.626  0.00  0.00    +0.000 OA
BRANCH  24  25
ATOM     25  C   UNL     1       2.529   6.720  18.249  0.00  0.00    +0.000 C 
ATOM     26  C   UNL     1       2.616   6.881  19.778  0.00  0.00    +0.000 C 
ATOM     27  C   UNL     1       2.036   5.301  17.901  0.00  0.00    +0.000 C 
ATOM     28  C   UNL     1       3.933   6.889  17.666  0.00  0.00    +0.000 C 
ENDBRANCH  24  25
ENDBRANCH  21  24
ENDBRANCH  19  20
BRANCH  19  30
ATOM     29  C   UNL     1       0.385   9.175  21.827  0.00  0.00    +0.000 C 
ATOM     30  C   UNL     1       0.742  10.537  21.238  0.00  0.00    +0.000 C 
ENDBRANCH  19  30
ENDBRANCH  17  19
ENDBRANCH   1  17
TORSDOF 7
ENDMDL
MODEL 9
REMARK VINA RESULT:      -7.5      3.567      7.769
REMARK  Name = 
REMARK  12 active torsions:
REMARK  status: ('A' for Active; 'I' for Inactive)
REMARK    1  A    between atoms: C_1  and  C_2
REMARK    2  A    between atoms: C_2  and  C_3
REMARK    3  A    between atoms: C_3  and  N_4
REMARK    4  A    between atoms: C_3  and  C_12
REMARK    5  A    between atoms: C_5  and  O_7
REMARK    6  A    between atoms: O_7  and  C_8
REMARK    7  A    between atoms: C_8  and  C_9
REMARK    8  A    between atoms: C_8  and  C_10
REMARK    9  A    between atoms: C_8  and  C_11
REMARK   10  A    between atoms: C_12  and  O_14
REMARK   11  A    between atoms: O_14  and  C_15
REMARK   12  A    between atoms: C_17  and  C_18
REMARK                            x       y       z     vdW  Elec       q    Type
REMARK                         _______ _______ _______ _____ _____    ______ ____
ROOT
ATOM      1  O   UNL     1       2.716   7.192  19.138  0.00  0.00    +0.000 OA
ENDROOT
BRANCH   1   2
ATOM      2  C   UNL     1       3.476   6.362  18.277  0.00  0.00    +0.000 A 
ATOM      3  C   UNL     1       4.213   6.942  17.231  0.00  0.00    +0.000 A 
ATOM      4  C   UNL     1       4.904   6.145  16.306  0.00  0.00    +0.000 A 
ATOM      5  C   UNL     1       5.672   6.757  15.172  0.00  0.00    +0.000 C 
ATOM      6  C   UNL     1       4.853   4.758  16.439  0.00  0.00    +0.000 A 
ATOM      7  C   UNL     1       4.120   4.194  17.484  0.00  0.00    +0.000 A 
ATOM      8  O   UNL     1       4.138   2.776  17.548  0.00  0.00    +0.000 OA
ATOM      9  C   UNL     1       3.466   2.065  18.543  0.00  0.00    +0.000 A 
ATOM     10  O   UNL     1       3.477   0.860  18.607  0.00  0.00    +0.000 OA
ATOM     11  C   UNL     1       2.735   2.905  19.502  0.00  0.00    +0.000 A 
ATOM     12  C   UNL     1       2.698   4.237  19.449  0.00  0.00    +0.000 A 
ATOM     13  C   UNL     1       3.409   4.969  18.414  0.00  0.00    +0.000 A 
ATOM     14  C   UNL     1       1.882   4.810  20.554  0.00  0.00    +0.000 C 
ATOM     15  C   UNL     1       1.398   3.581  21.329  0.00  0.00    +0.000 C 
ATOM     16  C   UNL     1       1.963   2.337  20.635  0.00  0.00    +0.000 C 
ENDBRANCH   1   2
BRANCH   1  17
ATOM     17  C   UNL     1       2.075   8.282  18.564  0.00  0.00    +0.000 C 
ATOM     18  O   UNL     1       2.244   8.640  17.403  0.00  0.00    +0.000 OA
BRANCH  17  19
ATOM     19  C   UNL     1       1.061   8.935  19.531  0.00  0.00    +0.000 C 
BRANCH  19  20
ATOM     20  N   UNL     1       1.053  10.411  19.477  0.00  0.00    +0.000 N 
ATOM     21  C   UNL     1       0.106  11.091  18.756  0.00  0.00    +0.000 C 
ATOM     22  O   UNL     1      -0.766  10.509  18.120  0.00  0.00    +0.000 OA
ATOM     23  H   UNL     1       1.603  10.970  20.120  0.00  0.00    +0.000 HD
BRANCH  21  24
ATOM     24  O   UNL     1       0.233  12.441  18.885  0.00  0.00    +0.000 OA
BRANCH  24  25
ATOM     25  C   UNL     1      -0.410  13.117  20.016  0.00  0.00    +0.000 C 
ATOM     26  C   UNL     1       0.454  13.100  21.290  0.00  0.00    +0.000 C 
ATOM     27  C   UNL     1      -0.712  14.573  19.609  0.00  0.00    +0.000 C 
ATOM     28  C   UNL     1      -1.741  12.427  20.326  0.00  0.00    +0.000 C 
ENDBRANCH  24  25
ENDBRANCH  21  24
ENDBRANCH  19  20
BRANCH  19  30
ATOM     29  C   UNL     1       0.710   9.197  22.112  0.00  0.00    +0.000 C 
ATOM     30  C   UNL     1       1.347   8.423  20.962  0.00  0.00    +0.000 C 
ENDBRANCH  19  30
ENDBRANCH  17  19
ENDBRANCH   1  17
TORSDOF 7
ENDMDL
