MODEL 1
REMARK VINA RESULT:      -7.4      0.000      0.000
REMARK  Name = 
REMARK  7 active torsions:
REMARK  status: ('A' for Active; 'I' for Inactive)
REMARK    1  A    between atoms: C_1  and  C_2
REMARK    2  A    between atoms: C_6  and  C_7
REMARK    3  A    between atoms: C_8  and  S_9
REMARK    4  A    between atoms: C_8  and  C_18
REMARK    5  A    between atoms: S_9  and  C_10
REMARK    6  A    between atoms: C_10  and  C_11
REMARK    7  A    between atoms: C_18  and  C_20
REMARK                            x       y       z     vdW  Elec       q    Type
REMARK                         _______ _______ _______ _____ _____    ______ ____
ROOT
ATOM      1  C   UNL     1       3.928   3.067  18.037  0.00  0.00    +0.000 C 
ATOM      2  C   UNL     1       4.674   4.133  17.679  0.00  0.00    +0.000 C 
ENDROOT
BRANCH   1   8
ATOM      3  C   UNL     1       0.598   3.135  18.508  0.00  0.00    +0.000 C 
ATOM      4  C   UNL     1       1.720   2.889  19.465  0.00  0.00    +0.000 A 
ATOM      5  C   UNL     1       1.441   2.621  20.857  0.00  0.00    +0.000 A 
ATOM      6  C   UNL     1       2.568   2.390  21.603  0.00  0.00    +0.000 A 
ATOM      7  S   UNL     1       3.973   2.497  20.659  0.00  0.00    +0.000 S 
ATOM      8  C   UNL     1       3.095   2.879  19.197  0.00  0.00    +0.000 A 
ENDBRANCH   1   8
BRANCH   2   9
ATOM      9  C   UNL     1       4.787   5.384  18.524  0.00  0.00    +0.000 C 
ATOM     10  O   UNL     1       5.827   5.659  19.119  0.00  0.00    +0.000 OA
BRANCH   9  11
ATOM     11  C   UNL     1       3.700   6.412  18.557  0.00  0.00    +0.000 A 
ATOM     12  C   UNL     1       3.491   7.394  17.577  0.00  0.00    +0.000 A 
ATOM     13  C   UNL     1       2.569   8.427  17.807  0.00  0.00    +0.000 A 
ATOM     14  C   UNL     1       1.824   8.449  18.987  0.00  0.00    +0.000 A 
ATOM     15 CL   UNL     1       0.764   9.764  19.312  0.00  0.00    +0.000 Cl
ATOM     16  C   UNL     1       1.949   7.423  19.917  0.00  0.00    +0.000 A 
ATOM     17  C   UNL     1       2.878   6.406  19.696  0.00  0.00    +0.000 A 
ENDBRANCH   9  11
ENDBRANCH   2   9
BRANCH   2  18
ATOM     18  S   UNL     1       5.936   3.971  16.449  0.00  0.00    +0.000 S 
BRANCH  18  19
ATOM     19  C   UNL     1       5.455   5.026  15.048  0.00  0.00    +0.000 C 
BRANCH  19  20
ATOM     20  C   UNL     1       5.836   4.370  13.736  0.00  0.00    +0.000 A 
ATOM     21  C   UNL     1       4.943   3.505  13.070  0.00  0.00    +0.000 A 
ATOM     22  C   UNL     1       5.320   2.869  11.881  0.00  0.00    +0.000 A 
ATOM     23  C   UNL     1       6.583   3.089  11.335  0.00  0.00    +0.000 A 
ATOM     24  C   UNL     1       7.472   3.947  11.980  0.00  0.00    +0.000 A 
ATOM     25  C   UNL     1       7.093   4.574  13.169  0.00  0.00    +0.000 A 
ATOM     26  F   UNL     1       7.976   5.382  13.776  0.00  0.00    +0.000 F 
ENDBRANCH  19  20
ENDBRANCH  18  19
ENDBRANCH   2  18
TORSDOF 6
ENDMDL
MODEL 2
REMARK VINA RESULT:      -7.4      1.161      1.852
REMARK  Name = 
REMARK  7 active torsions:
REMARK  status: ('A' for Active; 'I' for Inactive)
REMARK    1  A    between atoms: C_1  and  C_2
REMARK    2  A    between atoms: C_6  and  C_7
REMARK    3  A    between atoms: C_8  and  S_9
REMARK    4  A    between atoms: C_8  and  C_18
REMARK    5  A    between atoms: S_9  and  C_10
REMARK    6  A    between atoms: C_10  and  C_11
REMARK    7  A    between atoms: C_18  and  C_20
REMARK                            x       y       z     vdW  Elec       q    Type
REMARK                         _______ _______ _______ _____ _____    ______ ____
ROOT
ATOM      1  C   UNL     1       4.651   3.296  17.467  0.00  0.00    +0.000 C 
ATOM      2  C   UNL     1       5.473   4.355  17.613  0.00  0.00    +0.000 C 
ENDROOT
BRANCH   1   8
ATOM      3  C   UNL     1       4.280   1.993  20.547  0.00  0.00    +0.000 C 
ATOM      4  C   UNL     1       3.268   2.378  19.515  0.00  0.00    +0.000 A 
ATOM      5  C   UNL     1       1.859   2.206  19.781  0.00  0.00    +0.000 A 
ATOM      6  C   UNL     1       1.056   2.628  18.753  0.00  0.00    +0.000 A 
ATOM      7  S   UNL     1       1.968   3.225  17.454  0.00  0.00    +0.000 S 
ATOM      8  C   UNL     1       3.498   2.916  18.242  0.00  0.00    +0.000 A 
ENDBRANCH   1   8
BRANCH   2   9
ATOM      9  C   UNL     1       5.320   5.374  18.721  0.00  0.00    +0.000 C 
ATOM     10  O   UNL     1       6.161   5.477  19.613  0.00  0.00    +0.000 OA
BRANCH   9  11
ATOM     11  C   UNL     1       4.226   6.395  18.706  0.00  0.00    +0.000 A 
ATOM     12  C   UNL     1       3.170   6.457  19.627  0.00  0.00    +0.000 A 
ATOM     13  C   UNL     1       2.096   7.332  19.402  0.00  0.00    +0.000 A 
ATOM     14  C   UNL     1       2.102   8.176  18.290  0.00  0.00    +0.000 A 
ATOM     15 CL   UNL     1       0.744   9.179  17.963  0.00  0.00    +0.000 Cl
ATOM     16  C   UNL     1       3.194   8.195  17.429  0.00  0.00    +0.000 A 
ATOM     17  C   UNL     1       4.254   7.313  17.643  0.00  0.00    +0.000 A 
ENDBRANCH   9  11
ENDBRANCH   2   9
BRANCH   2  18
ATOM     18  S   UNL     1       7.056   4.377  16.820  0.00  0.00    +0.000 S 
BRANCH  18  19
ATOM     19  C   UNL     1       6.951   5.569  15.451  0.00  0.00    +0.000 C 
BRANCH  19  20
ATOM     20  C   UNL     1       6.677   4.852  14.144  0.00  0.00    +0.000 A 
ATOM     21  C   UNL     1       5.540   4.032  13.991  0.00  0.00    +0.000 A 
ATOM     22  C   UNL     1       5.317   3.338  12.795  0.00  0.00    +0.000 A 
ATOM     23  C   UNL     1       6.215   3.455  11.736  0.00  0.00    +0.000 A 
ATOM     24  C   UNL     1       7.339   4.269  11.873  0.00  0.00    +0.000 A 
ATOM     25  C   UNL     1       7.559   4.953  13.069  0.00  0.00    +0.000 A 
ATOM     26  F   UNL     1       8.657   5.717  13.178  0.00  0.00    +0.000 F 
ENDBRANCH  19  20
ENDBRANCH  18  19
ENDBRANCH   2  18
TORSDOF 6
ENDMDL
MODEL 3
REMARK VINA RESULT:      -7.4      3.523      7.063
REMARK  Name = 
REMARK  7 active torsions:
REMARK  status: ('A' for Active; 'I' for Inactive)
REMARK    1  A    between atoms: C_1  and  C_2
REMARK    2  A    between atoms: C_6  and  C_7
REMARK    3  A    between atoms: C_8  and  S_9
REMARK    4  A    between atoms: C_8  and  C_18
REMARK    5  A    between atoms: S_9  and  C_10
REMARK    6  A    between atoms: C_10  and  C_11
REMARK    7  A    between atoms: C_18  and  C_20
REMARK                            x       y       z     vdW  Elec       q    Type
REMARK                         _______ _______ _______ _____ _____    ______ ____
ROOT
ATOM      1  C   UNL     1       2.152   5.850  18.973  0.00  0.00    +0.000 C 
ATOM      2  C   UNL     1       3.257   6.530  18.606  0.00  0.00    +0.000 C 
ENDROOT
BRANCH   1   8
ATOM      3  C   UNL     1       2.288   3.014  17.168  0.00  0.00    +0.000 C 
ATOM      4  C   UNL     1       2.049   3.239  18.627  0.00  0.00    +0.000 A 
ATOM      5  C   UNL     1       1.829   2.116  19.508  0.00  0.00    +0.000 A 
ATOM      6  C   UNL     1       1.651   2.478  20.818  0.00  0.00    +0.000 A 
ATOM      7  S   UNL     1       1.735   4.160  21.016  0.00  0.00    +0.000 S 
ATOM      8  C   UNL     1       2.003   4.459  19.315  0.00  0.00    +0.000 A 
ENDBRANCH   1   8
BRANCH   2   9
ATOM      9  C   UNL     1       4.615   5.880  18.451  0.00  0.00    +0.000 C 
ATOM     10  O   UNL     1       5.286   5.562  19.431  0.00  0.00    +0.000 OA
BRANCH   9  11
ATOM     11  C   UNL     1       5.138   5.459  17.113  0.00  0.00    +0.000 A 
ATOM     12  C   UNL     1       5.162   6.269  15.967  0.00  0.00    +0.000 A 
ATOM     13  C   UNL     1       5.490   5.710  14.722  0.00  0.00    +0.000 A 
ATOM     14  C   UNL     1       5.841   4.363  14.631  0.00  0.00    +0.000 A 
ATOM     15 CL   UNL     1       6.150   3.655  13.094  0.00  0.00    +0.000 Cl
ATOM     16  C   UNL     1       5.921   3.578  15.777  0.00  0.00    +0.000 A 
ATOM     17  C   UNL     1       5.579   4.129  17.012  0.00  0.00    +0.000 A 
ENDBRANCH   9  11
ENDBRANCH   2   9
BRANCH   2  18
ATOM     18  S   UNL     1       3.118   8.114  17.826  0.00  0.00    +0.000 S 
BRANCH  18  19
ATOM     19  C   UNL     1       1.373   8.612  17.938  0.00  0.00    +0.000 C 
BRANCH  19  20
ATOM     20  C   UNL     1       1.208   9.748  18.926  0.00  0.00    +0.000 A 
ATOM     21  C   UNL     1       1.406  11.089  18.532  0.00  0.00    +0.000 A 
ATOM     22  C   UNL     1       1.296  12.129  19.463  0.00  0.00    +0.000 A 
ATOM     23  C   UNL     1       0.981  11.854  20.792  0.00  0.00    +0.000 A 
ATOM     24  C   UNL     1       0.777  10.534  21.192  0.00  0.00    +0.000 A 
ATOM     25  C   UNL     1       0.894   9.500  20.262  0.00  0.00    +0.000 A 
ATOM     26  F   UNL     1       0.707   8.239  20.679  0.00  0.00    +0.000 F 
ENDBRANCH  19  20
ENDBRANCH  18  19
ENDBRANCH   2  18
TORSDOF 6
ENDMDL
MODEL 4
REMARK VINA RESULT:      -7.2      3.722      6.985
REMARK  Name = 
REMARK  7 active torsions:
REMARK  status: ('A' for Active; 'I' for Inactive)
REMARK    1  A    between atoms: C_1  and  C_2
REMARK    2  A    between atoms: C_6  and  C_7
REMARK    3  A    between atoms: C_8  and  S_9
REMARK    4  A    between atoms: C_8  and  C_18
REMARK    5  A    between atoms: S_9  and  C_10
REMARK    6  A    between atoms: C_10  and  C_11
REMARK    7  A    between atoms: C_18  and  C_20
REMARK                            x       y       z     vdW  Elec       q    Type
REMARK                         _______ _______ _______ _____ _____    ______ ____
ROOT
ATOM      1  C   UNL     1       2.152   5.848  19.016  0.00  0.00    +0.000 C 
ATOM      2  C   UNL     1       3.234   6.550  18.625  0.00  0.00    +0.000 C 
ENDROOT
BRANCH   1   8
ATOM      3  C   UNL     1       2.261   2.993  17.239  0.00  0.00    +0.000 C 
ATOM      4  C   UNL     1       2.081   3.231  18.704  0.00  0.00    +0.000 A 
ATOM      5  C   UNL     1       1.919   2.114  19.606  0.00  0.00    +0.000 A 
ATOM      6  C   UNL     1       1.791   2.490  20.919  0.00  0.00    +0.000 A 
ATOM      7  S   UNL     1       1.853   4.175  21.094  0.00  0.00    +0.000 S 
ATOM      8  C   UNL     1       2.042   4.458  19.379  0.00  0.00    +0.000 A 
ENDBRANCH   1   8
BRANCH   2   9
ATOM      9  C   UNL     1       4.606   5.932  18.463  0.00  0.00    +0.000 C 
ATOM     10  O   UNL     1       5.301   5.657  19.439  0.00  0.00    +0.000 OA
BRANCH   9  11
ATOM     11  C   UNL     1       5.119   5.494  17.127  0.00  0.00    +0.000 A 
ATOM     12  C   UNL     1       5.158   6.296  15.977  0.00  0.00    +0.000 A 
ATOM     13  C   UNL     1       5.473   5.724  14.735  0.00  0.00    +0.000 A 
ATOM     14  C   UNL     1       5.796   4.369  14.651  0.00  0.00    +0.000 A 
ATOM     15 CL   UNL     1       6.089   3.646  13.118  0.00  0.00    +0.000 Cl
ATOM     16  C   UNL     1       5.862   3.589  15.801  0.00  0.00    +0.000 A 
ATOM     17  C   UNL     1       5.532   4.155  17.033  0.00  0.00    +0.000 A 
ENDBRANCH   9  11
ENDBRANCH   2   9
BRANCH   2  18
ATOM     18  S   UNL     1       3.045   8.118  17.825  0.00  0.00    +0.000 S 
BRANCH  18  19
ATOM     19  C   UNL     1       1.313   8.626  18.048  0.00  0.00    +0.000 C 
BRANCH  19  20
ATOM     20  C   UNL     1       1.225  10.121  18.274  0.00  0.00    +0.000 A 
ATOM     21  C   UNL     1       2.339  10.957  18.049  0.00  0.00    +0.000 A 
ATOM     22  C   UNL     1       2.261  12.332  18.303  0.00  0.00    +0.000 A 
ATOM     23  C   UNL     1       1.078  12.895  18.776  0.00  0.00    +0.000 A 
ATOM     24  C   UNL     1      -0.032  12.081  18.997  0.00  0.00    +0.000 A 
ATOM     25  C   UNL     1       0.052  10.709  18.747  0.00  0.00    +0.000 A 
ATOM     26  F   UNL     1      -1.027   9.948  18.982  0.00  0.00    +0.000 F 
ENDBRANCH  19  20
ENDBRANCH  18  19
ENDBRANCH   2  18
TORSDOF 6
ENDMDL
MODEL 5
REMARK VINA RESULT:      -7.2      1.102      1.518
REMARK  Name = 
REMARK  7 active torsions:
REMARK  status: ('A' for Active; 'I' for Inactive)
REMARK    1  A    between atoms: C_1  and  C_2
REMARK    2  A    between atoms: C_6  and  C_7
REMARK    3  A    between atoms: C_8  and  S_9
REMARK    4  A    between atoms: C_8  and  C_18
REMARK    5  A    between atoms: S_9  and  C_10
REMARK    6  A    between atoms: C_10  and  C_11
REMARK    7  A    between atoms: C_18  and  C_20
REMARK                            x       y       z     vdW  Elec       q    Type
REMARK                         _______ _______ _______ _____ _____    ______ ____
ROOT
ATOM      1  C   UNL     1       4.323   3.375  17.571  0.00  0.00    +0.000 C 
ATOM      2  C   UNL     1       5.149   4.434  17.693  0.00  0.00    +0.000 C 
ENDROOT
BRANCH   1   8
ATOM      3  C   UNL     1       1.112   4.351  17.327  0.00  0.00    +0.000 C 
ATOM      4  C   UNL     1       1.782   3.407  18.274  0.00  0.00    +0.000 A 
ATOM      5  C   UNL     1       1.014   2.741  19.299  0.00  0.00    +0.000 A 
ATOM      6  C   UNL     1       1.760   1.888  20.071  0.00  0.00    +0.000 A 
ATOM      7  S   UNL     1       3.387   1.876  19.591  0.00  0.00    +0.000 S 
ATOM      8  C   UNL     1       3.135   3.048  18.319  0.00  0.00    +0.000 A 
ENDBRANCH   1   8
BRANCH   2   9
ATOM      9  C   UNL     1       4.961   5.514  18.738  0.00  0.00    +0.000 C 
ATOM     10  O   UNL     1       5.807   5.712  19.607  0.00  0.00    +0.000 OA
BRANCH   9  11
ATOM     11  C   UNL     1       3.820   6.480  18.675  0.00  0.00    +0.000 A 
ATOM     12  C   UNL     1       3.583   7.378  17.624  0.00  0.00    +0.000 A 
ATOM     13  C   UNL     1       2.602   8.372  17.760  0.00  0.00    +0.000 A 
ATOM     14  C   UNL     1       1.828   8.436  18.920  0.00  0.00    +0.000 A 
ATOM     15 CL   UNL     1       0.692   9.710  19.129  0.00  0.00    +0.000 Cl
ATOM     16  C   UNL     1       1.986   7.486  19.924  0.00  0.00    +0.000 A 
ATOM     17  C   UNL     1       2.973   6.508  19.795  0.00  0.00    +0.000 A 
ENDBRANCH   9  11
ENDBRANCH   2   9
BRANCH   2  18
ATOM     18  S   UNL     1       6.762   4.401  16.965  0.00  0.00    +0.000 S 
BRANCH  18  19
ATOM     19  C   UNL     1       6.756   5.600  15.598  0.00  0.00    +0.000 C 
BRANCH  19  20
ATOM     20  C   UNL     1       6.708   4.883  14.264  0.00  0.00    +0.000 A 
ATOM     21  C   UNL     1       7.760   5.010  13.332  0.00  0.00    +0.000 A 
ATOM     22  C   UNL     1       7.687   4.380  12.084  0.00  0.00    +0.000 A 
ATOM     23  C   UNL     1       6.574   3.611  11.749  0.00  0.00    +0.000 A 
ATOM     24  C   UNL     1       5.532   3.472  12.663  0.00  0.00    +0.000 A 
ATOM     25  C   UNL     1       5.607   4.107  13.904  0.00  0.00    +0.000 A 
ATOM     26  F   UNL     1       4.582   3.968  14.758  0.00  0.00    +0.000 F 
ENDBRANCH  19  20
ENDBRANCH  18  19
ENDBRANCH   2  18
TORSDOF 6
ENDMDL
MODEL 6
REMARK VINA RESULT:      -7.2      3.539      7.139
REMARK  Name = 
REMARK  7 active torsions:
REMARK  status: ('A' for Active; 'I' for Inactive)
REMARK    1  A    between atoms: C_1  and  C_2
REMARK    2  A    between atoms: C_6  and  C_7
REMARK    3  A    between atoms: C_8  and  S_9
REMARK    4  A    between atoms: C_8  and  C_18
REMARK    5  A    between atoms: S_9  and  C_10
REMARK    6  A    between atoms: C_10  and  C_11
REMARK    7  A    between atoms: C_18  and  C_20
REMARK                            x       y       z     vdW  Elec       q    Type
REMARK                         _______ _______ _______ _____ _____    ______ ____
ROOT
ATOM      1  C   UNL     1       2.214   5.728  18.784  0.00  0.00    +0.000 C 
ATOM      2  C   UNL     1       3.303   6.476  18.513  0.00  0.00    +0.000 C 
ENDROOT
BRANCH   1   8
ATOM      3  C   UNL     1       2.092   3.819  21.551  0.00  0.00    +0.000 C 
ATOM      4  C   UNL     1       2.048   3.451  20.102  0.00  0.00    +0.000 A 
ATOM      5  C   UNL     1       1.931   2.067  19.708  0.00  0.00    +0.000 A 
ATOM      6  C   UNL     1       1.876   1.891  18.349  0.00  0.00    +0.000 A 
ATOM      7  S   UNL     1       1.971   3.370  17.525  0.00  0.00    +0.000 S 
ATOM      8  C   UNL     1       2.106   4.307  18.995  0.00  0.00    +0.000 A 
ENDBRANCH   1   8
BRANCH   2   9
ATOM      9  C   UNL     1       4.687   5.889  18.341  0.00  0.00    +0.000 C 
ATOM     10  O   UNL     1       5.401   5.645  19.312  0.00  0.00    +0.000 OA
BRANCH   9  11
ATOM     11  C   UNL     1       5.193   5.442  17.005  0.00  0.00    +0.000 A 
ATOM     12  C   UNL     1       5.260   6.248  15.860  0.00  0.00    +0.000 A 
ATOM     13  C   UNL     1       5.563   5.673  14.616  0.00  0.00    +0.000 A 
ATOM     14  C   UNL     1       5.848   4.309  14.527  0.00  0.00    +0.000 A 
ATOM     15 CL   UNL     1       6.126   3.585  12.992  0.00  0.00    +0.000 Cl
ATOM     16  C   UNL     1       5.885   3.523  15.673  0.00  0.00    +0.000 A 
ATOM     17  C   UNL     1       5.567   4.092  16.907  0.00  0.00    +0.000 A 
ENDBRANCH   9  11
ENDBRANCH   2   9
BRANCH   2  18
ATOM     18  S   UNL     1       3.127   8.118  17.875  0.00  0.00    +0.000 S 
BRANCH  18  19
ATOM     19  C   UNL     1       1.360   8.539  17.963  0.00  0.00    +0.000 C 
BRANCH  19  20
ATOM     20  C   UNL     1       1.121   9.605  19.012  0.00  0.00    +0.000 A 
ATOM     21  C   UNL     1       1.105  10.973  18.666  0.00  0.00    +0.000 A 
ATOM     22  C   UNL     1       0.928  11.955  19.649  0.00  0.00    +0.000 A 
ATOM     23  C   UNL     1       0.757  11.592  20.983  0.00  0.00    +0.000 A 
ATOM     24  C   UNL     1       0.764  10.243  21.337  0.00  0.00    +0.000 A 
ATOM     25  C   UNL     1       0.947   9.269  20.353  0.00  0.00    +0.000 A 
ATOM     26  F   UNL     1       0.965   7.979  20.725  0.00  0.00    +0.000 F 
ENDBRANCH  19  20
ENDBRANCH  18  19
ENDBRANCH   2  18
TORSDOF 6
ENDMDL
MODEL 7
REMARK VINA RESULT:      -7.1      3.540      7.131
REMARK  Name = 
REMARK  7 active torsions:
REMARK  status: ('A' for Active; 'I' for Inactive)
REMARK    1  A    between atoms: C_1  and  C_2
REMARK    2  A    between atoms: C_6  and  C_7
REMARK    3  A    between atoms: C_8  and  S_9
REMARK    4  A    between atoms: C_8  and  C_18
REMARK    5  A    between atoms: S_9  and  C_10
REMARK    6  A    between atoms: C_10  and  C_11
REMARK    7  A    between atoms: C_18  and  C_20
REMARK                            x       y       z     vdW  Elec       q    Type
REMARK                         _______ _______ _______ _____ _____    ______ ____
ROOT
ATOM      1  C   UNL     1       2.105   5.812  18.995  0.00  0.00    +0.000 C 
ATOM      2  C   UNL     1       3.201   6.529  18.677  0.00  0.00    +0.000 C 
ENDROOT
BRANCH   1   8
ATOM      3  C   UNL     1       2.319   3.059  17.072  0.00  0.00    +0.000 C 
ATOM      4  C   UNL     1       2.058   3.216  18.537  0.00  0.00    +0.000 A 
ATOM      5  C   UNL     1       1.850   2.052  19.365  0.00  0.00    +0.000 A 
ATOM      6  C   UNL     1       1.649   2.354  20.688  0.00  0.00    +0.000 A 
ATOM      7  S   UNL     1       1.697   4.027  20.959  0.00  0.00    +0.000 S 
ATOM      8  C   UNL     1       1.979   4.404  19.275  0.00  0.00    +0.000 A 
ENDBRANCH   1   8
BRANCH   2   9
ATOM      9  C   UNL     1       4.575   5.914  18.519  0.00  0.00    +0.000 C 
ATOM     10  O   UNL     1       5.256   5.615  19.498  0.00  0.00    +0.000 OA
BRANCH   9  11
ATOM     11  C   UNL     1       5.106   5.506  17.181  0.00  0.00    +0.000 A 
ATOM     12  C   UNL     1       5.085   6.307  16.029  0.00  0.00    +0.000 A 
ATOM     13  C   UNL     1       5.427   5.754  14.786  0.00  0.00    +0.000 A 
ATOM     14  C   UNL     1       5.837   4.422  14.702  0.00  0.00    +0.000 A 
ATOM     15 CL   UNL     1       6.166   3.716  13.168  0.00  0.00    +0.000 Cl
ATOM     16  C   UNL     1       5.961   3.651  15.853  0.00  0.00    +0.000 A 
ATOM     17  C   UNL     1       5.604   4.197  17.087  0.00  0.00    +0.000 A 
ENDBRANCH   9  11
ENDBRANCH   2   9
BRANCH   2  18
ATOM     18  S   UNL     1       3.041   8.141  17.963  0.00  0.00    +0.000 S 
BRANCH  18  19
ATOM     19  C   UNL     1       1.271   8.557  17.972  0.00  0.00    +0.000 C 
BRANCH  19  20
ATOM     20  C   UNL     1       0.906   9.291  19.246  0.00  0.00    +0.000 A 
ATOM     21  C   UNL     1       1.334   8.818  20.505  0.00  0.00    +0.000 A 
ATOM     22  C   UNL     1       0.954   9.478  21.681  0.00  0.00    +0.000 A 
ATOM     23  C   UNL     1       0.154  10.617  21.621  0.00  0.00    +0.000 A 
ATOM     24  C   UNL     1      -0.269  11.098  20.383  0.00  0.00    +0.000 A 
ATOM     25  C   UNL     1       0.107  10.433  19.215  0.00  0.00    +0.000 A 
ATOM     26  F   UNL     1      -0.328  10.910  18.038  0.00  0.00    +0.000 F 
ENDBRANCH  19  20
ENDBRANCH  18  19
ENDBRANCH   2  18
TORSDOF 6
ENDMDL
MODEL 8
REMARK VINA RESULT:      -7.1      1.317      1.720
REMARK  Name = 
REMARK  7 active torsions:
REMARK  status: ('A' for Active; 'I' for Inactive)
REMARK    1  A    between atoms: C_1  and  C_2
REMARK    2  A    between atoms: C_6  and  C_7
REMARK    3  A    between atoms: C_8  and  S_9
REMARK    4  A    between atoms: C_8  and  C_18
REMARK    5  A    between atoms: S_9  and  C_10
REMARK    6  A    between atoms: C_10  and  C_11
REMARK    7  A    between atoms: C_18  and  C_20
REMARK                            x       y       z     vdW  Elec       q    Type
REMARK                         _______ _______ _______ _____ _____    ______ ____
ROOT
ATOM      1  C   UNL     1       3.228   3.912  17.986  0.00  0.00    +0.000 C 
ATOM      2  C   UNL     1       3.647   5.166  17.723  0.00  0.00    +0.000 C 
ENDROOT
BRANCH   1   8
ATOM      3  C   UNL     1       4.669   2.039  20.380  0.00  0.00    +0.000 C 
ATOM      4  C   UNL     1       3.276   2.568  20.253  0.00  0.00    +0.000 A 
ATOM      5  C   UNL     1       2.299   2.291  21.279  0.00  0.00    +0.000 A 
ATOM      6  C   UNL     1       1.077   2.866  21.036  0.00  0.00    +0.000 A 
ATOM      7  S   UNL     1       1.076   3.734  19.580  0.00  0.00    +0.000 S 
ATOM      8  C   UNL     1       2.742   3.346  19.218  0.00  0.00    +0.000 A 
ENDBRANCH   1   8
BRANCH   2   9
ATOM      9  C   UNL     1       3.707   6.255  18.773  0.00  0.00    +0.000 C 
ATOM     10  O   UNL     1       4.657   6.341  19.548  0.00  0.00    +0.000 OA
BRANCH   9  11
ATOM     11  C   UNL     1       2.695   7.357  18.823  0.00  0.00    +0.000 A 
ATOM     12  C   UNL     1       2.402   8.228  17.764  0.00  0.00    +0.000 A 
ATOM     13  C   UNL     1       1.582   9.346  17.984  0.00  0.00    +0.000 A 
ATOM     14  C   UNL     1       1.019   9.563  19.242  0.00  0.00    +0.000 A 
ATOM     15 CL   UNL     1       0.092  10.982  19.538  0.00  0.00    +0.000 Cl
ATOM     16  C   UNL     1       1.220   8.648  20.270  0.00  0.00    +0.000 A 
ATOM     17  C   UNL     1       2.049   7.546  20.056  0.00  0.00    +0.000 A 
ENDBRANCH   9  11
ENDBRANCH   2   9
BRANCH   2  18
ATOM     18  S   UNL     1       4.594   5.509  16.268  0.00  0.00    +0.000 S 
BRANCH  18  19
ATOM     19  C   UNL     1       5.380   3.949  15.761  0.00  0.00    +0.000 C 
BRANCH  19  20
ATOM     20  C   UNL     1       6.022   4.098  14.398  0.00  0.00    +0.000 A 
ATOM     21  C   UNL     1       5.522   3.398  13.279  0.00  0.00    +0.000 A 
ATOM     22  C   UNL     1       6.149   3.507  12.031  0.00  0.00    +0.000 A 
ATOM     23  C   UNL     1       7.273   4.315  11.877  0.00  0.00    +0.000 A 
ATOM     24  C   UNL     1       7.773   5.017  12.973  0.00  0.00    +0.000 A 
ATOM     25  C   UNL     1       7.148   4.901  14.216  0.00  0.00    +0.000 A 
ATOM     26  F   UNL     1       7.660   5.576  15.256  0.00  0.00    +0.000 F 
ENDBRANCH  19  20
ENDBRANCH  18  19
ENDBRANCH   2  18
TORSDOF 6
ENDMDL
MODEL 9
REMARK VINA RESULT:      -7.1      1.022      1.435
REMARK  Name = 
REMARK  7 active torsions:
REMARK  status: ('A' for Active; 'I' for Inactive)
REMARK    1  A    between atoms: C_1  and  C_2
REMARK    2  A    between atoms: C_6  and  C_7
REMARK    3  A    between atoms: C_8  and  S_9
REMARK    4  A    between atoms: C_8  and  C_18
REMARK    5  A    between atoms: S_9  and  C_10
REMARK    6  A    between atoms: C_10  and  C_11
REMARK    7  A    between atoms: C_18  and  C_20
REMARK                            x       y       z     vdW  Elec       q    Type
REMARK                         _______ _______ _______ _____ _____    ______ ____
ROOT
ATOM      1  C   UNL     1       4.047   3.179  18.098  0.00  0.00    +0.000 C 
ATOM      2  C   UNL     1       4.803   4.258  17.813  0.00  0.00    +0.000 C 
ENDROOT
BRANCH   1   8
ATOM      3  C   UNL     1       0.696   3.376  18.321  0.00  0.00    +0.000 C 
ATOM      4  C   UNL     1       1.729   3.028  19.344  0.00  0.00    +0.000 A 
ATOM      5  C   UNL     1       1.332   2.701  20.693  0.00  0.00    +0.000 A 
ATOM      6  C   UNL     1       2.387   2.378  21.508  0.00  0.00    +0.000 A 
ATOM      7  S   UNL     1       3.864   2.470  20.680  0.00  0.00    +0.000 S 
ATOM      8  C   UNL     1       3.119   2.968  19.179  0.00  0.00    +0.000 A 
ENDBRANCH   1   8
BRANCH   2   9
ATOM      9  C   UNL     1       4.822   5.504  18.672  0.00  0.00    +0.000 C 
ATOM     10  O   UNL     1       5.814   5.809  19.332  0.00  0.00    +0.000 OA
BRANCH   9  11
ATOM     11  C   UNL     1       3.701   6.496  18.645  0.00  0.00    +0.000 A 
ATOM     12  C   UNL     1       3.467   7.417  17.613  0.00  0.00    +0.000 A 
ATOM     13  C   UNL     1       2.509   8.429  17.783  0.00  0.00    +0.000 A 
ATOM     14  C   UNL     1       1.756   8.489  18.957  0.00  0.00    +0.000 A 
ATOM     15 CL   UNL     1       0.651   9.783  19.206  0.00  0.00    +0.000 Cl
ATOM     16  C   UNL     1       1.909   7.519  19.941  0.00  0.00    +0.000 A 
ATOM     17  C   UNL     1       2.873   6.523  19.779  0.00  0.00    +0.000 A 
ENDBRANCH   9  11
ENDBRANCH   2   9
BRANCH   2  18
ATOM     18  S   UNL     1       6.171   4.126  16.697  0.00  0.00    +0.000 S 
BRANCH  18  19
ATOM     19  C   UNL     1       5.517   3.489  15.124  0.00  0.00    +0.000 C 
BRANCH  19  20
ATOM     20  C   UNL     1       6.335   4.010  13.960  0.00  0.00    +0.000 A 
ATOM     21  C   UNL     1       7.261   5.060  14.135  0.00  0.00    +0.000 A 
ATOM     22  C   UNL     1       7.980   5.566  13.046  0.00  0.00    +0.000 A 
ATOM     23  C   UNL     1       7.797   5.031  11.772  0.00  0.00    +0.000 A 
ATOM     24  C   UNL     1       6.890   3.988  11.587  0.00  0.00    +0.000 A 
ATOM     25  C   UNL     1       6.171   3.492  12.676  0.00  0.00    +0.000 A 
ATOM     26  F   UNL     1       5.294   2.498  12.466  0.00  0.00    +0.000 F 
ENDBRANCH  19  20
ENDBRANCH  18  19
ENDBRANCH   2  18
TORSDOF 6
ENDMDL
