MODEL 1
REMARK VINA RESULT:      -7.6      0.000      0.000
REMARK  Name = 
REMARK  10 active torsions:
REMARK  status: ('A' for Active; 'I' for Inactive)
REMARK    1  A    between atoms: C_1  and  C_2
REMARK    2  A    between atoms: C_2  and  O_3
REMARK    3  A    between atoms: O_3  and  C_4
REMARK    4  A    between atoms: C_7  and  C_8
REMARK    5  A    between atoms: C_9  and  C_10
REMARK    6  A    between atoms: C_9  and  C_12
REMARK    7  A    between atoms: C_14  and  C_15
REMARK    8  A    between atoms: C_28  and  O_29
REMARK    9  A    between atoms: O_29  and  C_30
REMARK   10  A    between atoms: C_30  and  C_31
REMARK                            x       y       z     vdW  Elec       q    Type
REMARK                         _______ _______ _______ _____ _____    ______ ____
ROOT
ATOM      1  C   UNL     1       4.083   7.068  18.093  0.00  0.00    +0.000 C 
ATOM      2  C   UNL     1       2.750   6.994  18.367  0.00  0.00    +0.000 C 
ENDROOT
BRANCH   1   6
ATOM      3  C   UNL     1       5.788   4.170  15.336  0.00  0.00    +0.000 A 
ATOM      4  C   UNL     1       5.573   5.502  14.992  0.00  0.00    +0.000 A 
ATOM      5  C   UNL     1       5.074   6.419  15.933  0.00  0.00    +0.000 A 
ATOM      6  C   UNL     1       4.815   6.047  17.263  0.00  0.00    +0.000 A 
ATOM      7  C   UNL     1       5.157   4.725  17.633  0.00  0.00    +0.000 A 
ATOM      8  C   UNL     1       5.592   3.789  16.660  0.00  0.00    +0.000 A 
BRANCH   3   9
ATOM      9  O   UNL     1       6.272   3.363  14.339  0.00  0.00    +0.000 OA
BRANCH   9  11
ATOM     10  C   UNL     1       5.489   3.162  12.075  0.00  0.00    +0.000 C 
ATOM     11  C   UNL     1       6.366   3.957  13.039  0.00  0.00    +0.000 C 
ENDBRANCH   9  11
ENDBRANCH   3   9
BRANCH   7  12
ATOM     12  O   UNL     1       5.080   4.194  18.897  0.00  0.00    +0.000 OA
BRANCH  12  13
ATOM     13  C   UNL     1       4.403   2.938  18.980  0.00  0.00    +0.000 C 
ATOM     14  C   UNL     1       3.579   2.870  20.261  0.00  0.00    +0.000 C 
ENDBRANCH  12  13
ENDBRANCH   7  12
ENDBRANCH   1   6
BRANCH   2  15
ATOM     15  C   UNL     1       2.051   8.029  19.059  0.00  0.00    +0.000 A 
ATOM     16  N   UNL     1       1.806   9.259  18.626  0.00  0.00    +0.000 NA
ATOM     17  C   UNL     1       1.082  10.003  19.562  0.00  0.00    +0.000 A 
ATOM     18  C   UNL     1       0.794   9.310  20.719  0.00  0.00    +0.000 A 
ATOM     19  S   UNL     1       1.404   7.720  20.639  0.00  0.00    +0.000 S 
BRANCH  17  20
ATOM     20  C   UNL     1       0.741  11.382  19.263  0.00  0.00    +0.000 A 
ATOM     21  C   UNL     1       1.673  12.353  19.237  0.00  0.00    +0.000 A 
ATOM     22  C   UNL     1       1.324  13.740  18.970  0.00  0.00    +0.000 A 
ATOM     23  C   UNL     1       2.285  14.739  18.810  0.00  0.00    +0.000 A 
ATOM     24  C   UNL     1       1.888  16.064  18.594  0.00  0.00    +0.000 A 
ATOM     25  C   UNL     1       0.532  16.399  18.552  0.00  0.00    +0.000 A 
ATOM     26  C   UNL     1      -0.430  15.407  18.706  0.00  0.00    +0.000 A 
ATOM     27  C   UNL     1      -0.017  14.091  18.899  0.00  0.00    +0.000 A 
ATOM     28  O   UNL     1      -1.010  13.108  18.973  0.00  0.00    +0.000 OA
ATOM     29  C   UNL     1      -0.686  11.755  18.964  0.00  0.00    +0.000 A 
ATOM     30  O   UNL     1      -1.566  10.932  18.729  0.00  0.00    +0.000 OA
ENDBRANCH  17  20
ENDBRANCH   2  15
BRANCH   2  31
ATOM     31  C   UNL     1       2.111   5.670  17.986  0.00  0.00    +0.000 C 
ATOM     32  N   UNL     1       1.580   4.570  17.669  0.00  0.00    +0.000 NA
ENDBRANCH   2  31
TORSDOF 8
ENDMDL
MODEL 2
REMARK VINA RESULT:      -7.5      2.090     10.029
REMARK  Name = 
REMARK  10 active torsions:
REMARK  status: ('A' for Active; 'I' for Inactive)
REMARK    1  A    between atoms: C_1  and  C_2
REMARK    2  A    between atoms: C_2  and  O_3
REMARK    3  A    between atoms: O_3  and  C_4
REMARK    4  A    between atoms: C_7  and  C_8
REMARK    5  A    between atoms: C_9  and  C_10
REMARK    6  A    between atoms: C_9  and  C_12
REMARK    7  A    between atoms: C_14  and  C_15
REMARK    8  A    between atoms: C_28  and  O_29
REMARK    9  A    between atoms: O_29  and  C_30
REMARK   10  A    between atoms: C_30  and  C_31
REMARK                            x       y       z     vdW  Elec       q    Type
REMARK                         _______ _______ _______ _____ _____    ______ ____
ROOT
ATOM      1  C   UNL     1       1.549   9.183  18.182  0.00  0.00    +0.000 C 
ATOM      2  C   UNL     1       2.001   8.246  19.062  0.00  0.00    +0.000 C 
ENDROOT
BRANCH   1   6
ATOM      3  C   UNL     1      -0.437  12.663  19.870  0.00  0.00    +0.000 A 
ATOM      4  C   UNL     1       0.945  12.583  19.718  0.00  0.00    +0.000 A 
ATOM      5  C   UNL     1       1.541  11.463  19.114  0.00  0.00    +0.000 A 
ATOM      6  C   UNL     1       0.774  10.404  18.599  0.00  0.00    +0.000 A 
ATOM      7  C   UNL     1      -0.632  10.555  18.644  0.00  0.00    +0.000 A 
ATOM      8  C   UNL     1      -1.223  11.654  19.318  0.00  0.00    +0.000 A 
BRANCH   3   9
ATOM      9  O   UNL     1      -0.910  13.797  20.478  0.00  0.00    +0.000 OA
BRANCH   9  11
ATOM     10  C   UNL     1      -2.374  13.965  22.376  0.00  0.00    +0.000 C 
ATOM     11  C   UNL     1      -0.933  13.781  21.910  0.00  0.00    +0.000 C 
ENDBRANCH   9  11
ENDBRANCH   3   9
BRANCH   7  12
ATOM     12  O   UNL     1      -1.555   9.692  18.108  0.00  0.00    +0.000 OA
BRANCH  12  13
ATOM     13  C   UNL     1      -2.093  10.095  16.846  0.00  0.00    +0.000 C 
ATOM     14  C   UNL     1      -3.602  10.276  16.953  0.00  0.00    +0.000 C 
ENDBRANCH  12  13
ENDBRANCH   7  12
ENDBRANCH   1   6
BRANCH   2  15
ATOM     15  C   UNL     1       2.831   7.155  18.662  0.00  0.00    +0.000 A 
ATOM     16  N   UNL     1       3.556   7.064  17.554  0.00  0.00    +0.000 NA
ATOM     17  C   UNL     1       4.260   5.857  17.494  0.00  0.00    +0.000 A 
ATOM     18  C   UNL     1       4.041   5.033  18.578  0.00  0.00    +0.000 A 
ATOM     19  S   UNL     1       2.976   5.764  19.689  0.00  0.00    +0.000 S 
BRANCH  17  20
ATOM     20  C   UNL     1       5.092   5.577  16.338  0.00  0.00    +0.000 A 
ATOM     21  C   UNL     1       4.707   4.714  15.379  0.00  0.00    +0.000 A 
ATOM     22  C   UNL     1       5.556   4.410  14.239  0.00  0.00    +0.000 A 
ATOM     23  C   UNL     1       5.127   3.622  13.170  0.00  0.00    +0.000 A 
ATOM     24  C   UNL     1       6.004   3.330  12.118  0.00  0.00    +0.000 A 
ATOM     25  C   UNL     1       7.315   3.811  12.136  0.00  0.00    +0.000 A 
ATOM     26  C   UNL     1       7.748   4.601  13.196  0.00  0.00    +0.000 A 
ATOM     27  C   UNL     1       6.856   4.898  14.223  0.00  0.00    +0.000 A 
ATOM     28  O   UNL     1       7.300   5.759  15.234  0.00  0.00    +0.000 OA
ATOM     29  C   UNL     1       6.421   6.266  16.185  0.00  0.00    +0.000 A 
ATOM     30  O   UNL     1       6.764   7.232  16.860  0.00  0.00    +0.000 OA
ENDBRANCH  17  20
ENDBRANCH   2  15
BRANCH   2  31
ATOM     31  C   UNL     1       1.445   8.396  20.468  0.00  0.00    +0.000 C 
ATOM     32  N   UNL     1       0.984   8.521  21.635  0.00  0.00    +0.000 NA
ENDBRANCH   2  31
TORSDOF 8
ENDMDL
MODEL 3
REMARK VINA RESULT:      -7.4      3.084      4.391
REMARK  Name = 
REMARK  10 active torsions:
REMARK  status: ('A' for Active; 'I' for Inactive)
REMARK    1  A    between atoms: C_1  and  C_2
REMARK    2  A    between atoms: C_2  and  O_3
REMARK    3  A    between atoms: O_3  and  C_4
REMARK    4  A    between atoms: C_7  and  C_8
REMARK    5  A    between atoms: C_9  and  C_10
REMARK    6  A    between atoms: C_9  and  C_12
REMARK    7  A    between atoms: C_14  and  C_15
REMARK    8  A    between atoms: C_28  and  O_29
REMARK    9  A    between atoms: O_29  and  C_30
REMARK   10  A    between atoms: C_30  and  C_31
REMARK                            x       y       z     vdW  Elec       q    Type
REMARK                         _______ _______ _______ _____ _____    ______ ____
ROOT
ATOM      1  C   UNL     1       2.512   8.517  17.685  0.00  0.00    +0.000 C 
ATOM      2  C   UNL     1       1.671   8.875  18.696  0.00  0.00    +0.000 C 
ENDROOT
BRANCH   1   6
ATOM      3  C   UNL     1       5.140   5.078  17.279  0.00  0.00    +0.000 A 
ATOM      4  C   UNL     1       5.617   6.378  17.424  0.00  0.00    +0.000 A 
ATOM      5  C   UNL     1       4.733   7.454  17.611  0.00  0.00    +0.000 A 
ATOM      6  C   UNL     1       3.343   7.263  17.705  0.00  0.00    +0.000 A 
ATOM      7  C   UNL     1       2.882   5.926  17.684  0.00  0.00    +0.000 A 
ATOM      8  C   UNL     1       3.774   4.854  17.425  0.00  0.00    +0.000 A 
BRANCH   3   9
ATOM      9  O   UNL     1       6.090   4.107  17.097  0.00  0.00    +0.000 OA
BRANCH   9  11
ATOM     10  C   UNL     1       6.022   4.005  14.697  0.00  0.00    +0.000 C 
ATOM     11  C   UNL     1       6.902   4.232  15.923  0.00  0.00    +0.000 C 
ENDBRANCH   9  11
ENDBRANCH   3   9
BRANCH   7  12
ATOM     12  O   UNL     1       1.584   5.516  17.863  0.00  0.00    +0.000 OA
BRANCH  12  13
ATOM     13  C   UNL     1       1.427   4.125  18.150  0.00  0.00    +0.000 C 
ATOM     14  C   UNL     1       1.073   3.928  19.619  0.00  0.00    +0.000 C 
ENDBRANCH  12  13
ENDBRANCH   7  12
ENDBRANCH   1   6
BRANCH   2  15
ATOM     15  C   UNL     1       0.806  10.008  18.609  0.00  0.00    +0.000 A 
ATOM     16  N   UNL     1      -0.515  10.001  18.496  0.00  0.00    +0.000 NA
ATOM     17  C   UNL     1      -1.038  11.297  18.452  0.00  0.00    +0.000 A 
ATOM     18  C   UNL     1      -0.079  12.285  18.524  0.00  0.00    +0.000 A 
ATOM     19  S   UNL     1       1.478  11.607  18.670  0.00  0.00    +0.000 S 
BRANCH  17  20
ATOM     20  C   UNL     1      -2.471  11.480  18.308  0.00  0.00    +0.000 A 
ATOM     21  C   UNL     1      -3.227  11.977  19.305  0.00  0.00    +0.000 A 
ATOM     22  C   UNL     1      -4.667  12.128  19.170  0.00  0.00    +0.000 A 
ATOM     23  C   UNL     1      -5.451  12.758  20.137  0.00  0.00    +0.000 A 
ATOM     24  C   UNL     1      -6.839  12.839  19.970  0.00  0.00    +0.000 A 
ATOM     25  C   UNL     1      -7.450  12.279  18.846  0.00  0.00    +0.000 A 
ATOM     26  C   UNL     1      -6.675  11.653  17.876  0.00  0.00    +0.000 A 
ATOM     27  C   UNL     1      -5.293  11.601  18.048  0.00  0.00    +0.000 A 
ATOM     28  O   UNL     1      -4.536  11.034  17.017  0.00  0.00    +0.000 OA
ATOM     29  C   UNL     1      -3.147  11.118  17.012  0.00  0.00    +0.000 A 
ATOM     30  O   UNL     1      -2.538  10.886  15.973  0.00  0.00    +0.000 OA
ENDBRANCH  17  20
ENDBRANCH   2  15
BRANCH   2  31
ATOM     31  C   UNL     1       1.827   8.042  19.957  0.00  0.00    +0.000 C 
ATOM     32  N   UNL     1       1.956   7.350  21.003  0.00  0.00    +0.000 NA
ENDBRANCH   2  31
TORSDOF 8
ENDMDL
MODEL 4
REMARK VINA RESULT:      -7.3      1.994     10.016
REMARK  Name = 
REMARK  10 active torsions:
REMARK  status: ('A' for Active; 'I' for Inactive)
REMARK    1  A    between atoms: C_1  and  C_2
REMARK    2  A    between atoms: C_2  and  O_3
REMARK    3  A    between atoms: O_3  and  C_4
REMARK    4  A    between atoms: C_7  and  C_8
REMARK    5  A    between atoms: C_9  and  C_10
REMARK    6  A    between atoms: C_9  and  C_12
REMARK    7  A    between atoms: C_14  and  C_15
REMARK    8  A    between atoms: C_28  and  O_29
REMARK    9  A    between atoms: O_29  and  C_30
REMARK   10  A    between atoms: C_30  and  C_31
REMARK                            x       y       z     vdW  Elec       q    Type
REMARK                         _______ _______ _______ _____ _____    ______ ____
ROOT
ATOM      1  C   UNL     1       1.469   9.038  18.371  0.00  0.00    +0.000 C 
ATOM      2  C   UNL     1       2.018   8.137  19.234  0.00  0.00    +0.000 C 
ENDROOT
BRANCH   1   6
ATOM      3  C   UNL     1      -1.172  12.361  19.308  0.00  0.00    +0.000 A 
ATOM      4  C   UNL     1      -1.537  11.031  19.499  0.00  0.00    +0.000 A 
ATOM      5  C   UNL     1      -0.631   9.990  19.237  0.00  0.00    +0.000 A 
ATOM      6  C   UNL     1       0.687  10.243  18.820  0.00  0.00    +0.000 A 
ATOM      7  C   UNL     1       1.084  11.599  18.753  0.00  0.00    +0.000 A 
ATOM      8  C   UNL     1       0.143  12.642  18.950  0.00  0.00    +0.000 A 
BRANCH   3   9
ATOM      9  O   UNL     1      -2.136  13.295  19.589  0.00  0.00    +0.000 OA
BRANCH   9  11
ATOM     10  C   UNL     1      -4.454  13.032  20.167  0.00  0.00    +0.000 C 
ATOM     11  C   UNL     1      -3.016  12.983  20.676  0.00  0.00    +0.000 C 
ENDBRANCH   9  11
ENDBRANCH   3   9
BRANCH   7  12
ATOM     12  O   UNL     1       2.347  12.058  18.469  0.00  0.00    +0.000 OA
BRANCH  12  13
ATOM     13  C   UNL     1       2.644  13.357  18.985  0.00  0.00    +0.000 C 
ATOM     14  C   UNL     1       3.772  13.996  18.182  0.00  0.00    +0.000 C 
ENDBRANCH  12  13
ENDBRANCH   7  12
ENDBRANCH   1   6
BRANCH   2  15
ATOM     15  C   UNL     1       2.852   7.064  18.795  0.00  0.00    +0.000 A 
ATOM     16  N   UNL     1       3.567   7.010  17.679  0.00  0.00    +0.000 NA
ATOM     17  C   UNL     1       4.279   5.811  17.577  0.00  0.00    +0.000 A 
ATOM     18  C   UNL     1       4.076   4.954  18.639  0.00  0.00    +0.000 A 
ATOM     19  S   UNL     1       3.016   5.645  19.780  0.00  0.00    +0.000 S 
BRANCH  17  20
ATOM     20  C   UNL     1       5.102   5.570  16.406  0.00  0.00    +0.000 A 
ATOM     21  C   UNL     1       4.731   4.707  15.442  0.00  0.00    +0.000 A 
ATOM     22  C   UNL     1       5.572   4.443  14.287  0.00  0.00    +0.000 A 
ATOM     23  C   UNL     1       5.153   3.654  13.215  0.00  0.00    +0.000 A 
ATOM     24  C   UNL     1       6.022   3.402  12.147  0.00  0.00    +0.000 A 
ATOM     25  C   UNL     1       7.318   3.924  12.152  0.00  0.00    +0.000 A 
ATOM     26  C   UNL     1       7.742   4.714  13.215  0.00  0.00    +0.000 A 
ATOM     27  C   UNL     1       6.856   4.972  14.259  0.00  0.00    +0.000 A 
ATOM     28  O   UNL     1       7.287   5.834  15.273  0.00  0.00    +0.000 OA
ATOM     29  C   UNL     1       6.407   6.303  16.243  0.00  0.00    +0.000 A 
ATOM     30  O   UNL     1       6.730   7.271  16.924  0.00  0.00    +0.000 OA
ENDBRANCH  17  20
ENDBRANCH   2  15
BRANCH   2  31
ATOM     31  C   UNL     1       1.565   8.302  20.675  0.00  0.00    +0.000 C 
ATOM     32  N   UNL     1       1.189   8.439  21.871  0.00  0.00    +0.000 NA
ENDBRANCH   2  31
TORSDOF 8
ENDMDL
MODEL 5
REMARK VINA RESULT:      -7.2      1.026      1.416
REMARK  Name = 
REMARK  10 active torsions:
REMARK  status: ('A' for Active; 'I' for Inactive)
REMARK    1  A    between atoms: C_1  and  C_2
REMARK    2  A    between atoms: C_2  and  O_3
REMARK    3  A    between atoms: O_3  and  C_4
REMARK    4  A    between atoms: C_7  and  C_8
REMARK    5  A    between atoms: C_9  and  C_10
REMARK    6  A    between atoms: C_9  and  C_12
REMARK    7  A    between atoms: C_14  and  C_15
REMARK    8  A    between atoms: C_28  and  O_29
REMARK    9  A    between atoms: O_29  and  C_30
REMARK   10  A    between atoms: C_30  and  C_31
REMARK                            x       y       z     vdW  Elec       q    Type
REMARK                         _______ _______ _______ _____ _____    ______ ____
ROOT
ATOM      1  C   UNL     1       4.324   7.287  17.693  0.00  0.00    +0.000 C 
ATOM      2  C   UNL     1       3.050   7.041  18.111  0.00  0.00    +0.000 C 
ENDROOT
BRANCH   1   6
ATOM      3  C   UNL     1       6.126   4.384  15.004  0.00  0.00    +0.000 A 
ATOM      4  C   UNL     1       5.425   5.499  14.550  0.00  0.00    +0.000 A 
ATOM      5  C   UNL     1       4.909   6.443  15.453  0.00  0.00    +0.000 A 
ATOM      6  C   UNL     1       5.114   6.331  16.840  0.00  0.00    +0.000 A 
ATOM      7  C   UNL     1       5.935   5.266  17.277  0.00  0.00    +0.000 A 
ATOM      8  C   UNL     1       6.392   4.279  16.367  0.00  0.00    +0.000 A 
BRANCH   3   9
ATOM      9  O   UNL     1       6.580   3.526  14.037  0.00  0.00    +0.000 OA
BRANCH   9  11
ATOM     10  C   UNL     1       6.712   2.948  11.708  0.00  0.00    +0.000 C 
ATOM     11  C   UNL     1       5.820   3.486  12.823  0.00  0.00    +0.000 C 
ENDBRANCH   9  11
ENDBRANCH   3   9
BRANCH   7  12
ATOM     12  O   UNL     1       6.342   5.038  18.569  0.00  0.00    +0.000 OA
BRANCH  12  13
ATOM     13  C   UNL     1       7.719   5.321  18.824  0.00  0.00    +0.000 C 
ATOM     14  C   UNL     1       8.004   6.799  18.582  0.00  0.00    +0.000 C 
ENDBRANCH  12  13
ENDBRANCH   7  12
ENDBRANCH   1   6
BRANCH   2  15
ATOM     15  C   UNL     1       2.277   8.007  18.823  0.00  0.00    +0.000 A 
ATOM     16  N   UNL     1       1.996   9.247  18.444  0.00  0.00    +0.000 NA
ATOM     17  C   UNL     1       1.200   9.908  19.383  0.00  0.00    +0.000 A 
ATOM     18  C   UNL     1       0.894   9.142  20.489  0.00  0.00    +0.000 A 
ATOM     19  S   UNL     1       1.576   7.586  20.354  0.00  0.00    +0.000 S 
BRANCH  17  20
ATOM     20  C   UNL     1       0.812  11.286  19.141  0.00  0.00    +0.000 A 
ATOM     21  C   UNL     1       1.717  12.282  19.101  0.00  0.00    +0.000 A 
ATOM     22  C   UNL     1       1.322  13.666  18.892  0.00  0.00    +0.000 A 
ATOM     23  C   UNL     1       2.249  14.694  18.718  0.00  0.00    +0.000 A 
ATOM     24  C   UNL     1       1.810  16.014  18.560  0.00  0.00    +0.000 A 
ATOM     25  C   UNL     1       0.446  16.314  18.590  0.00  0.00    +0.000 A 
ATOM     26  C   UNL     1      -0.483  15.294  18.759  0.00  0.00    +0.000 A 
ATOM     27  C   UNL     1      -0.029  13.984  18.894  0.00  0.00    +0.000 A 
ATOM     28  O   UNL     1      -0.993  12.973  18.984  0.00  0.00    +0.000 OA
ATOM     29  C   UNL     1      -0.636  11.630  18.920  0.00  0.00    +0.000 A 
ATOM     30  O   UNL     1      -1.506  10.792  18.701  0.00  0.00    +0.000 OA
ENDBRANCH  17  20
ENDBRANCH   2  15
BRANCH   2  31
ATOM     31  C   UNL     1       2.580   5.618  17.863  0.00  0.00    +0.000 C 
ATOM     32  N   UNL     1       2.190   4.436  17.657  0.00  0.00    +0.000 NA
ENDBRANCH   2  31
TORSDOF 8
ENDMDL
MODEL 6
REMARK VINA RESULT:      -7.1      3.173      4.620
REMARK  Name = 
REMARK  10 active torsions:
REMARK  status: ('A' for Active; 'I' for Inactive)
REMARK    1  A    between atoms: C_1  and  C_2
REMARK    2  A    between atoms: C_2  and  O_3
REMARK    3  A    between atoms: O_3  and  C_4
REMARK    4  A    between atoms: C_7  and  C_8
REMARK    5  A    between atoms: C_9  and  C_10
REMARK    6  A    between atoms: C_9  and  C_12
REMARK    7  A    between atoms: C_14  and  C_15
REMARK    8  A    between atoms: C_28  and  O_29
REMARK    9  A    between atoms: O_29  and  C_30
REMARK   10  A    between atoms: C_30  and  C_31
REMARK                            x       y       z     vdW  Elec       q    Type
REMARK                         _______ _______ _______ _____ _____    ______ ____
ROOT
ATOM      1  C   UNL     1       2.410   7.927  18.037  0.00  0.00    +0.000 C 
ATOM      2  C   UNL     1       1.738   8.227  19.185  0.00  0.00    +0.000 C 
ENDROOT
BRANCH   1   6
ATOM      3  C   UNL     1       3.734   3.807  17.616  0.00  0.00    +0.000 A 
ATOM      4  C   UNL     1       2.390   4.163  17.698  0.00  0.00    +0.000 A 
ATOM      5  C   UNL     1       2.004   5.511  17.774  0.00  0.00    +0.000 A 
ATOM      6  C   UNL     1       2.945   6.555  17.727  0.00  0.00    +0.000 A 
ATOM      7  C   UNL     1       4.294   6.186  17.516  0.00  0.00    +0.000 A 
ATOM      8  C   UNL     1       4.682   4.822  17.510  0.00  0.00    +0.000 A 
BRANCH   3   9
ATOM      9  O   UNL     1       3.997   2.463  17.551  0.00  0.00    +0.000 OA
BRANCH   9  11
ATOM     10  C   UNL     1       4.342   2.145  19.908  0.00  0.00    +0.000 C 
ATOM     11  C   UNL     1       3.571   1.683  18.675  0.00  0.00    +0.000 C 
ENDBRANCH   9  11
ENDBRANCH   3   9
BRANCH   7  12
ATOM     12  O   UNL     1       5.349   7.047  17.337  0.00  0.00    +0.000 OA
BRANCH  12  13
ATOM     13  C   UNL     1       6.637   6.474  17.568  0.00  0.00    +0.000 C 
ATOM     14  C   UNL     1       7.699   7.568  17.607  0.00  0.00    +0.000 C 
ENDBRANCH  12  13
ENDBRANCH   7  12
ENDBRANCH   1   6
BRANCH   2  15
ATOM     15  C   UNL     1       1.140   9.503  19.412  0.00  0.00    +0.000 A 
ATOM     16  N   UNL     1       0.186   9.798  20.286  0.00  0.00    +0.000 NA
ATOM     17  C   UNL     1      -0.150  11.154  20.247  0.00  0.00    +0.000 A 
ATOM     18  C   UNL     1       0.565  11.877  19.315  0.00  0.00    +0.000 A 
ATOM     19  S   UNL     1       1.676  10.877  18.497  0.00  0.00    +0.000 S 
BRANCH  17  20
ATOM     20  C   UNL     1      -1.194  11.652  21.125  0.00  0.00    +0.000 A 
ATOM     21  C   UNL     1      -2.294  12.261  20.645  0.00  0.00    +0.000 A 
ATOM     22  C   UNL     1      -3.322  12.789  21.527  0.00  0.00    +0.000 A 
ATOM     23  C   UNL     1      -4.528  13.306  21.052  0.00  0.00    +0.000 A 
ATOM     24  C   UNL     1      -5.465  13.836  21.948  0.00  0.00    +0.000 A 
ATOM     25  C   UNL     1      -5.194  13.867  23.318  0.00  0.00    +0.000 A 
ATOM     26  C   UNL     1      -3.997  13.349  23.799  0.00  0.00    +0.000 A 
ATOM     27  C   UNL     1      -3.086  12.806  22.895  0.00  0.00    +0.000 A 
ATOM     28  O   UNL     1      -1.927  12.223  23.419  0.00  0.00    +0.000 OA
ATOM     29  C   UNL     1      -1.064  11.486  22.615  0.00  0.00    +0.000 A 
ATOM     30  O   UNL     1      -0.237  10.750  23.145  0.00  0.00    +0.000 OA
ENDBRANCH  17  20
ENDBRANCH   2  15
BRANCH   2  31
ATOM     31  C   UNL     1       1.792   7.134  20.239  0.00  0.00    +0.000 C 
ATOM     32  N   UNL     1       1.837   6.227  21.114  0.00  0.00    +0.000 NA
ENDBRANCH   2  31
TORSDOF 8
ENDMDL
MODEL 7
REMARK VINA RESULT:      -7.1      2.727     10.255
REMARK  Name = 
REMARK  10 active torsions:
REMARK  status: ('A' for Active; 'I' for Inactive)
REMARK    1  A    between atoms: C_1  and  C_2
REMARK    2  A    between atoms: C_2  and  O_3
REMARK    3  A    between atoms: O_3  and  C_4
REMARK    4  A    between atoms: C_7  and  C_8
REMARK    5  A    between atoms: C_9  and  C_10
REMARK    6  A    between atoms: C_9  and  C_12
REMARK    7  A    between atoms: C_14  and  C_15
REMARK    8  A    between atoms: C_28  and  O_29
REMARK    9  A    between atoms: O_29  and  C_30
REMARK   10  A    between atoms: C_30  and  C_31
REMARK                            x       y       z     vdW  Elec       q    Type
REMARK                         _______ _______ _______ _____ _____    ______ ____
ROOT
ATOM      1  C   UNL     1       1.186   8.743  19.760  0.00  0.00    +0.000 C 
ATOM      2  C   UNL     1       2.088   8.714  18.739  0.00  0.00    +0.000 C 
ENDROOT
BRANCH   1   6
ATOM      3  C   UNL     1      -1.489  11.909  21.073  0.00  0.00    +0.000 A 
ATOM      4  C   UNL     1      -0.362  11.527  21.796  0.00  0.00    +0.000 A 
ATOM      5  C   UNL     1       0.508  10.538  21.306  0.00  0.00    +0.000 A 
ATOM      6  C   UNL     1       0.307   9.929  20.054  0.00  0.00    +0.000 A 
ATOM      7  C   UNL     1      -0.768  10.417  19.275  0.00  0.00    +0.000 A 
ATOM      8  C   UNL     1      -1.680  11.363  19.807  0.00  0.00    +0.000 A 
BRANCH   3   9
ATOM      9  O   UNL     1      -2.270  12.878  21.648  0.00  0.00    +0.000 OA
BRANCH   9  11
ATOM     10  C   UNL     1      -3.451  12.598  23.722  0.00  0.00    +0.000 C 
ATOM     11  C   UNL     1      -3.513  12.436  22.206  0.00  0.00    +0.000 C 
ENDBRANCH   9  11
ENDBRANCH   3   9
BRANCH   7  12
ATOM     12  O   UNL     1      -1.075  10.033  17.992  0.00  0.00    +0.000 OA
BRANCH  12  13
ATOM     13  C   UNL     1      -2.470   9.864  17.734  0.00  0.00    +0.000 C 
ATOM     14  C   UNL     1      -2.748  10.008  16.242  0.00  0.00    +0.000 C 
ENDBRANCH  12  13
ENDBRANCH   7  12
ENDBRANCH   1   6
BRANCH   2  15
ATOM     15  C   UNL     1       2.831   7.541  18.405  0.00  0.00    +0.000 A 
ATOM     16  N   UNL     1       3.588   7.350  17.333  0.00  0.00    +0.000 NA
ATOM     17  C   UNL     1       4.181   6.084  17.337  0.00  0.00    +0.000 A 
ATOM     18  C   UNL     1       3.845   5.318  18.433  0.00  0.00    +0.000 A 
ATOM     19  S   UNL     1       2.808   6.177  19.477  0.00  0.00    +0.000 S 
BRANCH  17  20
ATOM     20  C   UNL     1       5.030   5.694  16.225  0.00  0.00    +0.000 A 
ATOM     21  C   UNL     1       4.617   4.819  15.289  0.00  0.00    +0.000 A 
ATOM     22  C   UNL     1       5.481   4.405  14.196  0.00  0.00    +0.000 A 
ATOM     23  C   UNL     1       5.032   3.603  13.145  0.00  0.00    +0.000 A 
ATOM     24  C   UNL     1       5.921   3.203  12.140  0.00  0.00    +0.000 A 
ATOM     25  C   UNL     1       7.263   3.588  12.188  0.00  0.00    +0.000 A 
ATOM     26  C   UNL     1       7.716   4.391  13.229  0.00  0.00    +0.000 A 
ATOM     27  C   UNL     1       6.812   4.797  14.209  0.00  0.00    +0.000 A 
ATOM     28  O   UNL     1       7.283   5.667  15.199  0.00  0.00    +0.000 OA
ATOM     29  C   UNL     1       6.411   6.279  16.095  0.00  0.00    +0.000 A 
ATOM     30  O   UNL     1       6.801   7.246  16.741  0.00  0.00    +0.000 OA
ENDBRANCH  17  20
ENDBRANCH   2  15
BRANCH   2  31
ATOM     31  C   UNL     1       2.319  10.062  18.077  0.00  0.00    +0.000 C 
ATOM     32  N   UNL     1       2.512  11.181  17.528  0.00  0.00    +0.000 NA
ENDBRANCH   2  31
TORSDOF 8
ENDMDL
MODEL 8
REMARK VINA RESULT:      -7.1      1.521      1.720
REMARK  Name = 
REMARK  10 active torsions:
REMARK  status: ('A' for Active; 'I' for Inactive)
REMARK    1  A    between atoms: C_1  and  C_2
REMARK    2  A    between atoms: C_2  and  O_3
REMARK    3  A    between atoms: O_3  and  C_4
REMARK    4  A    between atoms: C_7  and  C_8
REMARK    5  A    between atoms: C_9  and  C_10
REMARK    6  A    between atoms: C_9  and  C_12
REMARK    7  A    between atoms: C_14  and  C_15
REMARK    8  A    between atoms: C_28  and  O_29
REMARK    9  A    between atoms: O_29  and  C_30
REMARK   10  A    between atoms: C_30  and  C_31
REMARK                            x       y       z     vdW  Elec       q    Type
REMARK                         _______ _______ _______ _____ _____    ______ ____
ROOT
ATOM      1  C   UNL     1       2.824   7.473  18.456  0.00  0.00    +0.000 C 
ATOM      2  C   UNL     1       2.108   7.437  19.616  0.00  0.00    +0.000 C 
ENDROOT
BRANCH   1   6
ATOM      3  C   UNL     1       5.054   4.353  16.409  0.00  0.00    +0.000 A 
ATOM      4  C   UNL     1       5.644   5.533  16.855  0.00  0.00    +0.000 A 
ATOM      5  C   UNL     1       4.899   6.489  17.564  0.00  0.00    +0.000 A 
ATOM      6  C   UNL     1       3.548   6.281  17.893  0.00  0.00    +0.000 A 
ATOM      7  C   UNL     1       2.996   5.025  17.547  0.00  0.00    +0.000 A 
ATOM      8  C   UNL     1       3.734   4.096  16.770  0.00  0.00    +0.000 A 
BRANCH   3   9
ATOM      9  O   UNL     1       5.872   3.493  15.724  0.00  0.00    +0.000 OA
BRANCH   9  11
ATOM     10  C   UNL     1       5.843   3.746  13.334  0.00  0.00    +0.000 C 
ATOM     11  C   UNL     1       6.597   4.057  14.624  0.00  0.00    +0.000 C 
ENDBRANCH   9  11
ENDBRANCH   3   9
BRANCH   7  12
ATOM     12  O   UNL     1       1.735   4.582  17.865  0.00  0.00    +0.000 OA
BRANCH  12  13
ATOM     13  C   UNL     1       1.632   3.174  18.085  0.00  0.00    +0.000 C 
ATOM     14  C   UNL     1       0.566   2.884  19.136  0.00  0.00    +0.000 C 
ENDBRANCH  12  13
ENDBRANCH   7  12
ENDBRANCH   1   6
BRANCH   2  15
ATOM     15  C   UNL     1       1.336   8.546  20.076  0.00  0.00    +0.000 A 
ATOM     16  N   UNL     1       1.266   9.754  19.533  0.00  0.00    +0.000 NA
ATOM     17  C   UNL     1       0.398  10.591  20.240  0.00  0.00    +0.000 A 
ATOM     18  C   UNL     1      -0.180   9.989  21.339  0.00  0.00    +0.000 A 
ATOM     19  S   UNL     1       0.337   8.372  21.484  0.00  0.00    +0.000 S 
BRANCH  17  20
ATOM     20  C   UNL     1       0.214  11.962  19.798  0.00  0.00    +0.000 A 
ATOM     21  C   UNL     1       1.259  12.780  19.573  0.00  0.00    +0.000 A 
ATOM     22  C   UNL     1       1.072  14.162  19.162  0.00  0.00    +0.000 A 
ATOM     23  C   UNL     1       2.135  14.990  18.798  0.00  0.00    +0.000 A 
ATOM     24  C   UNL     1       1.897  16.325  18.449  0.00  0.00    +0.000 A 
ATOM     25  C   UNL     1       0.600  16.843  18.478  0.00  0.00    +0.000 A 
ATOM     26  C   UNL     1      -0.465  16.023  18.835  0.00  0.00    +0.000 A 
ATOM     27  C   UNL     1      -0.212  14.692  19.158  0.00  0.00    +0.000 A 
ATOM     28  O   UNL     1      -1.314  13.875  19.437  0.00  0.00    +0.000 OA
ATOM     29  C   UNL     1      -1.174  12.498  19.573  0.00  0.00    +0.000 A 
ATOM     30  O   UNL     1      -2.173  11.788  19.517  0.00  0.00    +0.000 OA
ENDBRANCH  17  20
ENDBRANCH   2  15
BRANCH   2  31
ATOM     31  C   UNL     1       2.306   6.167  20.427  0.00  0.00    +0.000 C 
ATOM     32  N   UNL     1       2.471   5.114  21.100  0.00  0.00    +0.000 NA
ENDBRANCH   2  31
TORSDOF 8
ENDMDL
MODEL 9
REMARK VINA RESULT:      -7.0      3.144      5.037
REMARK  Name = 
REMARK  10 active torsions:
REMARK  status: ('A' for Active; 'I' for Inactive)
REMARK    1  A    between atoms: C_1  and  C_2
REMARK    2  A    between atoms: C_2  and  O_3
REMARK    3  A    between atoms: O_3  and  C_4
REMARK    4  A    between atoms: C_7  and  C_8
REMARK    5  A    between atoms: C_9  and  C_10
REMARK    6  A    between atoms: C_9  and  C_12
REMARK    7  A    between atoms: C_14  and  C_15
REMARK    8  A    between atoms: C_28  and  O_29
REMARK    9  A    between atoms: O_29  and  C_30
REMARK   10  A    between atoms: C_30  and  C_31
REMARK                            x       y       z     vdW  Elec       q    Type
REMARK                         _______ _______ _______ _____ _____    ______ ____
ROOT
ATOM      1  C   UNL     1       2.210   8.224  17.905  0.00  0.00    +0.000 C 
ATOM      2  C   UNL     1       1.483   8.795  18.907  0.00  0.00    +0.000 C 
ENDROOT
BRANCH   1   6
ATOM      3  C   UNL     1       4.179   4.470  18.866  0.00  0.00    +0.000 A 
ATOM      4  C   UNL     1       2.795   4.619  18.877  0.00  0.00    +0.000 A 
ATOM      5  C   UNL     1       2.197   5.835  18.503  0.00  0.00    +0.000 A 
ATOM      6  C   UNL     1       2.960   6.930  18.061  0.00  0.00    +0.000 A 
ATOM      7  C   UNL     1       4.354   6.724  17.933  0.00  0.00    +0.000 A 
ATOM      8  C   UNL     1       4.954   5.519  18.380  0.00  0.00    +0.000 A 
BRANCH   3   9
ATOM      9  O   UNL     1       4.654   3.244  19.255  0.00  0.00    +0.000 OA
BRANCH   9  11
ATOM     10  C   UNL     1       3.615   1.346  18.209  0.00  0.00    +0.000 C 
ATOM     11  C   UNL     1       3.669   2.223  19.456  0.00  0.00    +0.000 C 
ENDBRANCH   9  11
ENDBRANCH   3   9
BRANCH   7  12
ATOM     12  O   UNL     1       5.260   7.623  17.426  0.00  0.00    +0.000 OA
BRANCH  12  13
ATOM     13  C   UNL     1       6.567   7.092  17.195  0.00  0.00    +0.000 C 
ATOM     14  C   UNL     1       7.626   8.122  17.573  0.00  0.00    +0.000 C 
ENDBRANCH  12  13
ENDBRANCH   7  12
ENDBRANCH   1   6
BRANCH   2  15
ATOM     15  C   UNL     1       0.686   9.963  18.707  0.00  0.00    +0.000 A 
ATOM     16  N   UNL     1      -0.633  10.021  18.581  0.00  0.00    +0.000 NA
ATOM     17  C   UNL     1      -1.080  11.335  18.412  0.00  0.00    +0.000 A 
ATOM     18  C   UNL     1      -0.066  12.269  18.404  0.00  0.00    +0.000 A 
ATOM     19  S   UNL     1       1.449  11.519  18.628  0.00  0.00    +0.000 S 
BRANCH  17  20
ATOM     20  C   UNL     1      -2.499  11.585  18.237  0.00  0.00    +0.000 A 
ATOM     21  C   UNL     1      -3.264  12.067  19.234  0.00  0.00    +0.000 A 
ATOM     22  C   UNL     1      -4.691  12.285  19.066  0.00  0.00    +0.000 A 
ATOM     23  C   UNL     1      -5.478  12.903  20.039  0.00  0.00    +0.000 A 
ATOM     24  C   UNL     1      -6.855  13.051  19.838  0.00  0.00    +0.000 A 
ATOM     25  C   UNL     1      -7.455  12.569  18.672  0.00  0.00    +0.000 A 
ATOM     26  C   UNL     1      -6.677  11.957  17.695  0.00  0.00    +0.000 A 
ATOM     27  C   UNL     1      -5.305  11.837  17.904  0.00  0.00    +0.000 A 
ATOM     28  O   UNL     1      -4.541  11.287  16.869  0.00  0.00    +0.000 OA
ATOM     29  C   UNL     1      -3.150  11.312  16.907  0.00  0.00    +0.000 A 
ATOM     30  O   UNL     1      -2.521  11.102  15.875  0.00  0.00    +0.000 OA
ENDBRANCH  17  20
ENDBRANCH   2  15
BRANCH   2  31
ATOM     31  C   UNL     1       1.696   8.156  20.269  0.00  0.00    +0.000 C 
ATOM     32  N   UNL     1       1.874   7.625  21.399  0.00  0.00    +0.000 NA
ENDBRANCH   2  31
TORSDOF 8
ENDMDL
