MODEL 1
REMARK VINA RESULT:      -6.3      0.000      0.000
REMARK  Name = 
REMARK  10 active torsions:
REMARK  status: ('A' for Active; 'I' for Inactive)
REMARK    1  A    between atoms: C_2  and  C_3
REMARK    2  A    between atoms: C_4  and  C_5
REMARK    3  A    between atoms: C_5  and  C_6
REMARK    4  A    between atoms: C_6  and  C_7
REMARK    5  A    between atoms: C_8  and  C_9
REMARK    6  A    between atoms: C_10  and  C_11
REMARK    7  A    between atoms: N_13  and  C_14
REMARK    8  A    between atoms: C_14  and  C_15
REMARK    9  A    between atoms: C_15  and  C_16
REMARK   10  A    between atoms: C_15  and  C_17
REMARK                            x       y       z     vdW  Elec       q    Type
REMARK                         _______ _______ _______ _____ _____    ______ ____
ROOT
ATOM      1  C   UNL     1       6.623   4.760  18.055  0.00  0.00    +0.000 C 
ATOM      2  C   UNL     1       5.539   4.550  18.826  0.00  0.00    +0.000 C 
ENDROOT
BRANCH   2   3
ATOM      3  C   UNL     1       4.257   3.989  18.307  0.00  0.00    +0.000 C 
ATOM      4  O   UNL     1       4.166   2.900  17.759  0.00  0.00    +0.000 OA
ATOM      5  N   UNL     1       3.178   4.817  18.497  0.00  0.00    +0.000 N 
ATOM      6  H   UNL     1       3.276   5.691  18.993  0.00  0.00    +0.000 HD
BRANCH   5   7
ATOM      7  C   UNL     1       1.858   4.386  18.073  0.00  0.00    +0.000 C 
BRANCH   7   8
ATOM      8  C   UNL     1       1.007   3.807  19.217  0.00  0.00    +0.000 C 
ATOM      9  C   UNL     1       1.051   2.277  19.234  0.00  0.00    +0.000 C 
ATOM     10  C   UNL     1       1.508   4.357  20.553  0.00  0.00    +0.000 C 
ENDBRANCH   7   8
ENDBRANCH   5   7
ENDBRANCH   2   3
BRANCH   1  12
ATOM     11  C   UNL     1       6.835   5.407  15.678  0.00  0.00    +0.000 C 
ATOM     12  C   UNL     1       6.691   4.492  16.645  0.00  0.00    +0.000 C 
BRANCH  11  13
ATOM     13  C   UNL     1       6.948   4.970  14.244  0.00  0.00    +0.000 C 
BRANCH  13  14
ATOM     14  C   UNL     1       6.278   3.625  14.049  0.00  0.00    +0.000 C 
BRANCH  14  16
ATOM     15  C   UNL     1       4.563   3.638  11.806  0.00  0.00    +0.000 C 
ATOM     16  C   UNL     1       5.355   3.632  12.841  0.00  0.00    +0.000 C 
BRANCH  15  18
ATOM     17  C   UNL     1       2.895   3.652   9.633  0.00  0.00    +0.000 C 
ATOM     18  C   UNL     1       3.630   3.645  10.590  0.00  0.00    +0.000 C 
ENDBRANCH  15  18
ENDBRANCH  14  16
ENDBRANCH  13  14
ENDBRANCH  11  13
ENDBRANCH   1  12
TORSDOF 8
ENDMDL
MODEL 2
REMARK VINA RESULT:      -6.2      2.299      7.083
REMARK  Name = 
REMARK  10 active torsions:
REMARK  status: ('A' for Active; 'I' for Inactive)
REMARK    1  A    between atoms: C_2  and  C_3
REMARK    2  A    between atoms: C_4  and  C_5
REMARK    3  A    between atoms: C_5  and  C_6
REMARK    4  A    between atoms: C_6  and  C_7
REMARK    5  A    between atoms: C_8  and  C_9
REMARK    6  A    between atoms: C_10  and  C_11
REMARK    7  A    between atoms: N_13  and  C_14
REMARK    8  A    between atoms: C_14  and  C_15
REMARK    9  A    between atoms: C_15  and  C_16
REMARK   10  A    between atoms: C_15  and  C_17
REMARK                            x       y       z     vdW  Elec       q    Type
REMARK                         _______ _______ _______ _____ _____    ______ ____
ROOT
ATOM      1  C   UNL     1       6.360   5.042  18.209  0.00  0.00    +0.000 C 
ATOM      2  C   UNL     1       7.028   4.481  17.182  0.00  0.00    +0.000 C 
ENDROOT
BRANCH   2   3
ATOM      3  C   UNL     1       6.879   4.924  15.764  0.00  0.00    +0.000 C 
ATOM      4  O   UNL     1       7.585   5.774  15.241  0.00  0.00    +0.000 OA
ATOM      5  N   UNL     1       5.862   4.288  15.094  0.00  0.00    +0.000 N 
ATOM      6  H   UNL     1       5.325   3.558  15.538  0.00  0.00    +0.000 HD
BRANCH   5   7
ATOM      7  C   UNL     1       5.624   4.593  13.695  0.00  0.00    +0.000 C 
BRANCH   7   8
ATOM      8  C   UNL     1       5.809   3.382  12.764  0.00  0.00    +0.000 C 
ATOM      9  C   UNL     1       4.636   3.233  11.792  0.00  0.00    +0.000 C 
ATOM     10  C   UNL     1       7.116   3.536  11.984  0.00  0.00    +0.000 C 
ENDBRANCH   7   8
ENDBRANCH   5   7
ENDBRANCH   2   3
BRANCH   1  12
ATOM     11  C   UNL     1       4.100   5.986  17.872  0.00  0.00    +0.000 C 
ATOM     12  C   UNL     1       5.416   6.117  18.082  0.00  0.00    +0.000 C 
BRANCH  11  13
ATOM     13  C   UNL     1       3.223   7.206  17.819  0.00  0.00    +0.000 C 
BRANCH  13  14
ATOM     14  C   UNL     1       2.528   7.412  19.149  0.00  0.00    +0.000 C 
BRANCH  14  16
ATOM     15  C   UNL     1       1.999   4.951  20.431  0.00  0.00    +0.000 C 
ATOM     16  C   UNL     1       2.243   6.087  19.839  0.00  0.00    +0.000 C 
BRANCH  15  18
ATOM     17  C   UNL     1       1.489   2.565  21.674  0.00  0.00    +0.000 C 
ATOM     18  C   UNL     1       1.713   3.615  21.126  0.00  0.00    +0.000 C 
ENDBRANCH  15  18
ENDBRANCH  14  16
ENDBRANCH  13  14
ENDBRANCH  11  13
ENDBRANCH   1  12
TORSDOF 8
ENDMDL
MODEL 3
REMARK VINA RESULT:      -6.2      1.896      2.241
REMARK  Name = 
REMARK  10 active torsions:
REMARK  status: ('A' for Active; 'I' for Inactive)
REMARK    1  A    between atoms: C_2  and  C_3
REMARK    2  A    between atoms: C_4  and  C_5
REMARK    3  A    between atoms: C_5  and  C_6
REMARK    4  A    between atoms: C_6  and  C_7
REMARK    5  A    between atoms: C_8  and  C_9
REMARK    6  A    between atoms: C_10  and  C_11
REMARK    7  A    between atoms: N_13  and  C_14
REMARK    8  A    between atoms: C_14  and  C_15
REMARK    9  A    between atoms: C_15  and  C_16
REMARK   10  A    between atoms: C_15  and  C_17
REMARK                            x       y       z     vdW  Elec       q    Type
REMARK                         _______ _______ _______ _____ _____    ______ ____
ROOT
ATOM      1  C   UNL     1       4.015   7.000  16.959  0.00  0.00    +0.000 C 
ATOM      2  C   UNL     1       3.267   7.080  18.077  0.00  0.00    +0.000 C 
ENDROOT
BRANCH   2   3
ATOM      3  C   UNL     1       3.376   6.116  19.211  0.00  0.00    +0.000 C 
ATOM      4  O   UNL     1       4.439   5.676  19.627  0.00  0.00    +0.000 OA
ATOM      5  N   UNL     1       2.163   5.758  19.746  0.00  0.00    +0.000 N 
ATOM      6  H   UNL     1       1.306   6.172  19.412  0.00  0.00    +0.000 HD
BRANCH   5   7
ATOM      7  C   UNL     1       2.118   4.853  20.881  0.00  0.00    +0.000 C 
BRANCH   7   8
ATOM      8  C   UNL     1       1.973   3.375  20.479  0.00  0.00    +0.000 C 
ATOM      9  C   UNL     1       1.541   2.508  21.664  0.00  0.00    +0.000 C 
ATOM     10  C   UNL     1       0.954   3.254  19.345  0.00  0.00    +0.000 C 
ENDBRANCH   7   8
ENDBRANCH   5   7
ENDBRANCH   2   3
BRANCH   1  12
ATOM     11  C   UNL     1       4.743   4.740  16.272  0.00  0.00    +0.000 C 
ATOM     12  C   UNL     1       4.996   5.982  16.702  0.00  0.00    +0.000 C 
BRANCH  11  13
ATOM     13  C   UNL     1       5.881   3.798  15.990  0.00  0.00    +0.000 C 
BRANCH  13  14
ATOM     14  C   UNL     1       6.569   4.178  14.695  0.00  0.00    +0.000 C 
BRANCH  14  16
ATOM     15  C   UNL     1       4.921   3.664  12.459  0.00  0.00    +0.000 C 
ATOM     16  C   UNL     1       5.682   3.902  13.491  0.00  0.00    +0.000 C 
BRANCH  15  18
ATOM     17  C   UNL     1       3.324   3.163  10.291  0.00  0.00    +0.000 C 
ATOM     18  C   UNL     1       4.027   3.383  11.247  0.00  0.00    +0.000 C 
ENDBRANCH  15  18
ENDBRANCH  14  16
ENDBRANCH  13  14
ENDBRANCH  11  13
ENDBRANCH   1  12
TORSDOF 8
ENDMDL
MODEL 4
REMARK VINA RESULT:      -6.2      2.703      6.206
REMARK  Name = 
REMARK  10 active torsions:
REMARK  status: ('A' for Active; 'I' for Inactive)
REMARK    1  A    between atoms: C_2  and  C_3
REMARK    2  A    between atoms: C_4  and  C_5
REMARK    3  A    between atoms: C_5  and  C_6
REMARK    4  A    between atoms: C_6  and  C_7
REMARK    5  A    between atoms: C_8  and  C_9
REMARK    6  A    between atoms: C_10  and  C_11
REMARK    7  A    between atoms: N_13  and  C_14
REMARK    8  A    between atoms: C_14  and  C_15
REMARK    9  A    between atoms: C_15  and  C_16
REMARK   10  A    between atoms: C_15  and  C_17
REMARK                            x       y       z     vdW  Elec       q    Type
REMARK                         _______ _______ _______ _____ _____    ______ ____
ROOT
ATOM      1  C   UNL     1       7.070   5.720  19.140  0.00  0.00    +0.000 C 
ATOM      2  C   UNL     1       7.558   6.387  18.077  0.00  0.00    +0.000 C 
ENDROOT
BRANCH   2   3
ATOM      3  C   UNL     1       6.997   6.263  16.699  0.00  0.00    +0.000 C 
ATOM      4  O   UNL     1       6.123   6.994  16.254  0.00  0.00    +0.000 OA
ATOM      5  N   UNL     1       7.552   5.240  15.970  0.00  0.00    +0.000 N 
ATOM      6  H   UNL     1       8.303   4.682  16.347  0.00  0.00    +0.000 HD
BRANCH   5   7
ATOM      7  C   UNL     1       7.127   5.023  14.598  0.00  0.00    +0.000 C 
BRANCH   7   8
ATOM      8  C   UNL     1       6.248   3.774  14.419  0.00  0.00    +0.000 C 
ATOM      9  C   UNL     1       5.142   3.706  15.475  0.00  0.00    +0.000 C 
ATOM     10  C   UNL     1       5.632   3.782  13.019  0.00  0.00    +0.000 C 
ENDBRANCH   7   8
ENDBRANCH   5   7
ENDBRANCH   2   3
BRANCH   1  12
ATOM     11  C   UNL     1       4.708   5.064  19.465  0.00  0.00    +0.000 C 
ATOM     12  C   UNL     1       5.967   4.799  19.094  0.00  0.00    +0.000 C 
BRANCH  11  13
ATOM     13  C   UNL     1       3.643   4.015  19.307  0.00  0.00    +0.000 C 
BRANCH  13  14
ATOM     14  C   UNL     1       2.684   4.403  18.200  0.00  0.00    +0.000 C 
BRANCH  14  16
ATOM     15  C   UNL     1       2.349   7.204  18.058  0.00  0.00    +0.000 C 
ATOM     16  C   UNL     1       2.503   5.911  18.124  0.00  0.00    +0.000 C 
BRANCH  15  18
ATOM     17  C   UNL     1       2.027   9.920  17.917  0.00  0.00    +0.000 C 
ATOM     18  C   UNL     1       2.168   8.723  17.979  0.00  0.00    +0.000 C 
ENDBRANCH  15  18
ENDBRANCH  14  16
ENDBRANCH  13  14
ENDBRANCH  11  13
ENDBRANCH   1  12
TORSDOF 8
ENDMDL
MODEL 5
REMARK VINA RESULT:      -6.2      3.823      6.165
REMARK  Name = 
REMARK  10 active torsions:
REMARK  status: ('A' for Active; 'I' for Inactive)
REMARK    1  A    between atoms: C_2  and  C_3
REMARK    2  A    between atoms: C_4  and  C_5
REMARK    3  A    between atoms: C_5  and  C_6
REMARK    4  A    between atoms: C_6  and  C_7
REMARK    5  A    between atoms: C_8  and  C_9
REMARK    6  A    between atoms: C_10  and  C_11
REMARK    7  A    between atoms: N_13  and  C_14
REMARK    8  A    between atoms: C_14  and  C_15
REMARK    9  A    between atoms: C_15  and  C_16
REMARK   10  A    between atoms: C_15  and  C_17
REMARK                            x       y       z     vdW  Elec       q    Type
REMARK                         _______ _______ _______ _____ _____    ______ ____
ROOT
ATOM      1  C   UNL     1       4.718   5.107  17.437  0.00  0.00    +0.000 C 
ATOM      2  C   UNL     1       4.272   3.871  17.141  0.00  0.00    +0.000 C 
ENDROOT
BRANCH   2   3
ATOM      3  C   UNL     1       2.941   3.351  17.574  0.00  0.00    +0.000 C 
ATOM      4  O   UNL     1       1.928   3.432  16.895  0.00  0.00    +0.000 OA
ATOM      5  N   UNL     1       2.956   2.773  18.820  0.00  0.00    +0.000 N 
ATOM      6  H   UNL     1       3.817   2.680  19.339  0.00  0.00    +0.000 HD
BRANCH   5   7
ATOM      7  C   UNL     1       1.739   2.192  19.356  0.00  0.00    +0.000 C 
BRANCH   7   8
ATOM      8  C   UNL     1       1.240   2.886  20.635  0.00  0.00    +0.000 C 
ATOM      9  C   UNL     1       2.257   2.769  21.773  0.00  0.00    +0.000 C 
ATOM     10  C   UNL     1       0.959   4.359  20.337  0.00  0.00    +0.000 C 
ENDBRANCH   7   8
ENDBRANCH   5   7
ENDBRANCH   2   3
BRANCH   1  12
ATOM     11  C   UNL     1       3.070   6.924  17.741  0.00  0.00    +0.000 C 
ATOM     12  C   UNL     1       3.994   6.076  18.211  0.00  0.00    +0.000 C 
BRANCH  11  13
ATOM     13  C   UNL     1       2.350   7.847  18.684  0.00  0.00    +0.000 C 
BRANCH  13  14
ATOM     14  C   UNL     1       2.131   9.197  18.032  0.00  0.00    +0.000 C 
BRANCH  14  16
ATOM     15  C   UNL     1      -0.617   9.824  17.850  0.00  0.00    +0.000 C 
ATOM     16  C   UNL     1       0.652   9.535  17.934  0.00  0.00    +0.000 C 
BRANCH  15  18
ATOM     17  C   UNL     1      -3.281  10.433  17.675  0.00  0.00    +0.000 C 
ATOM     18  C   UNL     1      -2.107  10.165  17.752  0.00  0.00    +0.000 C 
ENDBRANCH  15  18
ENDBRANCH  14  16
ENDBRANCH  13  14
ENDBRANCH  11  13
ENDBRANCH   1  12
TORSDOF 8
ENDMDL
MODEL 6
REMARK VINA RESULT:      -6.1      1.162      1.186
REMARK  Name = 
REMARK  10 active torsions:
REMARK  status: ('A' for Active; 'I' for Inactive)
REMARK    1  A    between atoms: C_2  and  C_3
REMARK    2  A    between atoms: C_4  and  C_5
REMARK    3  A    between atoms: C_5  and  C_6
REMARK    4  A    between atoms: C_6  and  C_7
REMARK    5  A    between atoms: C_8  and  C_9
REMARK    6  A    between atoms: C_10  and  C_11
REMARK    7  A    between atoms: N_13  and  C_14
REMARK    8  A    between atoms: C_14  and  C_15
REMARK    9  A    between atoms: C_15  and  C_16
REMARK   10  A    between atoms: C_15  and  C_17
REMARK                            x       y       z     vdW  Elec       q    Type
REMARK                         _______ _______ _______ _____ _____    ______ ____
ROOT
ATOM      1  C   UNL     1       7.262   4.744  18.043  0.00  0.00    +0.000 C 
ATOM      2  C   UNL     1       6.266   4.767  18.949  0.00  0.00    +0.000 C 
ENDROOT
BRANCH   2   3
ATOM      3  C   UNL     1       4.837   5.016  18.596  0.00  0.00    +0.000 C 
ATOM      4  O   UNL     1       4.375   6.128  18.385  0.00  0.00    +0.000 OA
ATOM      5  N   UNL     1       4.079   3.873  18.535  0.00  0.00    +0.000 N 
ATOM      6  H   UNL     1       4.498   2.965  18.670  0.00  0.00    +0.000 HD
BRANCH   5   7
ATOM      7  C   UNL     1       2.677   3.959  18.168  0.00  0.00    +0.000 C 
BRANCH   7   8
ATOM      8  C   UNL     1       1.720   3.566  19.306  0.00  0.00    +0.000 C 
ATOM      9  C   UNL     1       0.743   2.473  18.869  0.00  0.00    +0.000 C 
ATOM     10  C   UNL     1       2.533   3.088  20.511  0.00  0.00    +0.000 C 
ENDBRANCH   7   8
ENDBRANCH   5   7
ENDBRANCH   2   3
BRANCH   1  12
ATOM     11  C   UNL     1       6.408   4.179  15.792  0.00  0.00    +0.000 C 
ATOM     12  C   UNL     1       7.092   4.965  16.633  0.00  0.00    +0.000 C 
BRANCH  11  13
ATOM     13  C   UNL     1       6.267   4.570  14.347  0.00  0.00    +0.000 C 
BRANCH  13  14
ATOM     14  C   UNL     1       6.155   3.335  13.478  0.00  0.00    +0.000 C 
BRANCH  14  16
ATOM     15  C   UNL     1       4.364   3.739  11.332  0.00  0.00    +0.000 C 
ATOM     16  C   UNL     1       5.191   3.552  12.322  0.00  0.00    +0.000 C 
BRANCH  15  18
ATOM     17  C   UNL     1       2.624   4.133   9.253  0.00  0.00    +0.000 C 
ATOM     18  C   UNL     1       3.391   3.958  10.169  0.00  0.00    +0.000 C 
ENDBRANCH  15  18
ENDBRANCH  14  16
ENDBRANCH  13  14
ENDBRANCH  11  13
ENDBRANCH   1  12
TORSDOF 8
ENDMDL
MODEL 7
REMARK VINA RESULT:      -6.1      4.580      6.879
REMARK  Name = 
REMARK  10 active torsions:
REMARK  status: ('A' for Active; 'I' for Inactive)
REMARK    1  A    between atoms: C_2  and  C_3
REMARK    2  A    between atoms: C_4  and  C_5
REMARK    3  A    between atoms: C_5  and  C_6
REMARK    4  A    between atoms: C_6  and  C_7
REMARK    5  A    between atoms: C_8  and  C_9
REMARK    6  A    between atoms: C_10  and  C_11
REMARK    7  A    between atoms: N_13  and  C_14
REMARK    8  A    between atoms: C_14  and  C_15
REMARK    9  A    between atoms: C_15  and  C_16
REMARK   10  A    between atoms: C_15  and  C_17
REMARK                            x       y       z     vdW  Elec       q    Type
REMARK                         _______ _______ _______ _____ _____    ______ ____
ROOT
ATOM      1  C   UNL     1       7.793   5.350  18.380  0.00  0.00    +0.000 C 
ATOM      2  C   UNL     1       6.692   4.581  18.274  0.00  0.00    +0.000 C 
ENDROOT
BRANCH   2   3
ATOM      3  C   UNL     1       5.305   5.130  18.245  0.00  0.00    +0.000 C 
ATOM      4  O   UNL     1       4.803   5.655  17.261  0.00  0.00    +0.000 OA
ATOM      5  N   UNL     1       4.637   4.998  19.438  0.00  0.00    +0.000 N 
ATOM      6  H   UNL     1       5.061   4.520  20.220  0.00  0.00    +0.000 HD
BRANCH   5   7
ATOM      7  C   UNL     1       3.263   5.456  19.546  0.00  0.00    +0.000 C 
BRANCH   7   8
ATOM      8  C   UNL     1       2.228   4.326  19.413  0.00  0.00    +0.000 C 
ATOM      9  C   UNL     1       1.151   4.417  20.495  0.00  0.00    +0.000 C 
ATOM     10  C   UNL     1       1.582   4.390  18.027  0.00  0.00    +0.000 C 
ENDBRANCH   7   8
ENDBRANCH   5   7
ENDBRANCH   2   3
BRANCH   1  12
ATOM     11  C   UNL     1       7.817   7.650  17.474  0.00  0.00    +0.000 C 
ATOM     12  C   UNL     1       7.784   6.782  18.493  0.00  0.00    +0.000 C 
BRANCH  11  13
ATOM     13  C   UNL     1       7.744   9.128  17.745  0.00  0.00    +0.000 C 
BRANCH  13  14
ATOM     14  C   UNL     1       8.814   9.534  18.737  0.00  0.00    +0.000 C 
BRANCH  14  16
ATOM     15  C   UNL     1      10.319  11.731  17.796  0.00  0.00    +0.000 C 
ATOM     16  C   UNL     1       9.624  10.716  18.230  0.00  0.00    +0.000 C 
BRANCH  15  18
ATOM     17  C   UNL     1      11.781  13.861  16.886  0.00  0.00    +0.000 C 
ATOM     18  C   UNL     1      11.136  12.923  17.286  0.00  0.00    +0.000 C 
ENDBRANCH  15  18
ENDBRANCH  14  16
ENDBRANCH  13  14
ENDBRANCH  11  13
ENDBRANCH   1  12
TORSDOF 8
ENDMDL
MODEL 8
REMARK VINA RESULT:      -6.1      3.283      5.494
REMARK  Name = 
REMARK  10 active torsions:
REMARK  status: ('A' for Active; 'I' for Inactive)
REMARK    1  A    between atoms: C_2  and  C_3
REMARK    2  A    between atoms: C_4  and  C_5
REMARK    3  A    between atoms: C_5  and  C_6
REMARK    4  A    between atoms: C_6  and  C_7
REMARK    5  A    between atoms: C_8  and  C_9
REMARK    6  A    between atoms: C_10  and  C_11
REMARK    7  A    between atoms: N_13  and  C_14
REMARK    8  A    between atoms: C_14  and  C_15
REMARK    9  A    between atoms: C_15  and  C_16
REMARK   10  A    between atoms: C_15  and  C_17
REMARK                            x       y       z     vdW  Elec       q    Type
REMARK                         _______ _______ _______ _____ _____    ______ ____
ROOT
ATOM      1  C   UNL     1       3.272   7.025  17.853  0.00  0.00    +0.000 C 
ATOM      2  C   UNL     1       2.089   6.474  18.183  0.00  0.00    +0.000 C 
ENDROOT
BRANCH   2   3
ATOM      3  C   UNL     1       1.867   5.001  18.282  0.00  0.00    +0.000 C 
ATOM      4  O   UNL     1       1.328   4.336  17.409  0.00  0.00    +0.000 OA
ATOM      5  N   UNL     1       2.321   4.455  19.458  0.00  0.00    +0.000 N 
ATOM      6  H   UNL     1       2.802   5.021  20.141  0.00  0.00    +0.000 HD
BRANCH   5   7
ATOM      7  C   UNL     1       2.203   3.025  19.678  0.00  0.00    +0.000 C 
BRANCH   7   8
ATOM      8  C   UNL     1       3.521   2.261  19.461  0.00  0.00    +0.000 C 
ATOM      9  C   UNL     1       3.567   1.594  18.085  0.00  0.00    +0.000 C 
ATOM     10  C   UNL     1       4.698   3.227  19.612  0.00  0.00    +0.000 C 
ENDBRANCH   7   8
ENDBRANCH   5   7
ENDBRANCH   2   3
BRANCH   1  12
ATOM     11  C   UNL     1       5.109   6.294  16.369  0.00  0.00    +0.000 C 
ATOM     12  C   UNL     1       4.463   6.285  17.542  0.00  0.00    +0.000 C 
BRANCH  11  13
ATOM     13  C   UNL     1       6.381   5.509  16.206  0.00  0.00    +0.000 C 
BRANCH  13  14
ATOM     14  C   UNL     1       7.223   5.608  17.462  0.00  0.00    +0.000 C 
BRANCH  14  16
ATOM     15  C   UNL     1       8.117   8.250  17.904  0.00  0.00    +0.000 C 
ATOM     16  C   UNL     1       7.704   7.030  17.700  0.00  0.00    +0.000 C 
BRANCH  15  18
ATOM     17  C   UNL     1       8.987  10.812  18.327  0.00  0.00    +0.000 C 
ATOM     18  C   UNL     1       8.604   9.684  18.141  0.00  0.00    +0.000 C 
ENDBRANCH  15  18
ENDBRANCH  14  16
ENDBRANCH  13  14
ENDBRANCH  11  13
ENDBRANCH   1  12
TORSDOF 8
ENDMDL
MODEL 9
REMARK VINA RESULT:      -6.1      1.356      1.552
REMARK  Name = 
REMARK  10 active torsions:
REMARK  status: ('A' for Active; 'I' for Inactive)
REMARK    1  A    between atoms: C_2  and  C_3
REMARK    2  A    between atoms: C_4  and  C_5
REMARK    3  A    between atoms: C_5  and  C_6
REMARK    4  A    between atoms: C_6  and  C_7
REMARK    5  A    between atoms: C_8  and  C_9
REMARK    6  A    between atoms: C_10  and  C_11
REMARK    7  A    between atoms: N_13  and  C_14
REMARK    8  A    between atoms: C_14  and  C_15
REMARK    9  A    between atoms: C_15  and  C_16
REMARK   10  A    between atoms: C_15  and  C_17
REMARK                            x       y       z     vdW  Elec       q    Type
REMARK                         _______ _______ _______ _____ _____    ______ ____
ROOT
ATOM      1  C   UNL     1       5.829   5.320  18.766  0.00  0.00    +0.000 C 
ATOM      2  C   UNL     1       4.772   5.867  19.395  0.00  0.00    +0.000 C 
ENDROOT
BRANCH   2   3
ATOM      3  C   UNL     1       3.355   5.515  19.083  0.00  0.00    +0.000 C 
ATOM      4  O   UNL     1       2.803   5.795  18.029  0.00  0.00    +0.000 OA
ATOM      5  N   UNL     1       2.719   4.846  20.100  0.00  0.00    +0.000 N 
ATOM      6  H   UNL     1       3.213   4.588  20.941  0.00  0.00    +0.000 HD
BRANCH   5   7
ATOM      7  C   UNL     1       1.346   4.408  19.922  0.00  0.00    +0.000 C 
BRANCH   7   8
ATOM      8  C   UNL     1       1.130   2.920  20.249  0.00  0.00    +0.000 C 
ATOM      9  C   UNL     1       1.747   2.013  19.182  0.00  0.00    +0.000 C 
ATOM     10  C   UNL     1       1.740   2.607  21.616  0.00  0.00    +0.000 C 
ENDBRANCH   7   8
ENDBRANCH   5   7
ENDBRANCH   2   3
BRANCH   1  12
ATOM     11  C   UNL     1       5.766   4.608  16.399  0.00  0.00    +0.000 C 
ATOM     12  C   UNL     1       5.742   4.347  17.713  0.00  0.00    +0.000 C 
BRANCH  11  13
ATOM     13  C   UNL     1       5.723   3.477  15.409  0.00  0.00    +0.000 C 
BRANCH  13  14
ATOM     14  C   UNL     1       6.408   3.882  14.120  0.00  0.00    +0.000 C 
BRANCH  14  16
ATOM     15  C   UNL     1       4.658   3.679  11.912  0.00  0.00    +0.000 C 
ATOM     16  C   UNL     1       5.466   3.772  12.931  0.00  0.00    +0.000 C 
BRANCH  15  18
ATOM     17  C   UNL     1       2.960   3.487   9.771  0.00  0.00    +0.000 C 
ATOM     18  C   UNL     1       3.708   3.570  10.714  0.00  0.00    +0.000 C 
ENDBRANCH  15  18
ENDBRANCH  14  16
ENDBRANCH  13  14
ENDBRANCH  11  13
ENDBRANCH   1  12
TORSDOF 8
ENDMDL
