MODEL 1
REMARK VINA RESULT:      -8.7      0.000      0.000
REMARK  Name = 
REMARK  3 active torsions:
REMARK  status: ('A' for Active; 'I' for Inactive)
REMARK    1  A    between atoms: C_7  and  N_8
REMARK    2  A    between atoms: N_8  and  C_9
REMARK    3  A    between atoms: C_16  and  C_17
REMARK                            x       y       z     vdW  Elec       q    Type
REMARK                         _______ _______ _______ _____ _____    ______ ____
ROOT
ATOM      1  C   UNL     1       2.349   5.286  19.962  0.00  0.00    +0.000 A 
ATOM      2  N   UNL     1       1.342   4.828  20.732  0.00  0.00    +0.000 NA
ATOM      3  C   UNL     1       0.873   3.612  20.459  0.00  0.00    +0.000 A 
ATOM      4  N   UNL     1       1.303   2.810  19.485  0.00  0.00    +0.000 NA
ATOM      5  C   UNL     1       2.315   3.264  18.741  0.00  0.00    +0.000 A 
ATOM      6  C   UNL     1       2.756   2.477  17.690  0.00  0.00    +0.000 A 
ATOM      7  C   UNL     1       3.803   2.879  16.853  0.00  0.00    +0.000 A 
ATOM      8  C   UNL     1       4.460   4.095  17.060  0.00  0.00    +0.000 A 
ATOM      9  C   UNL     1       4.006   4.904  18.113  0.00  0.00    +0.000 A 
ATOM     10  C   UNL     1       2.928   4.505  18.949  0.00  0.00    +0.000 A 
ENDROOT
BRANCH   8  11
ATOM     11  C   UNL     1       5.564   4.546  16.201  0.00  0.00    +0.000 A 
ATOM     12  C   UNL     1       6.683   5.301  16.520  0.00  0.00    +0.000 A 
ATOM     13  N   UNL     1       7.573   5.551  15.493  0.00  0.00    +0.000 NA
ATOM     14  C   UNL     1       7.129   4.983  14.396  0.00  0.00    +0.000 A 
ATOM     15  S   UNL     1       5.650   4.133  14.530  0.00  0.00    +0.000 S 
ENDBRANCH   8  11
BRANCH   1  16
ATOM     16  N   UNL     1       2.770   6.626  20.160  0.00  0.00    +0.000 N 
ATOM     17  H   UNL     1       3.102   6.767  21.110  0.00  0.00    +0.000 HD
BRANCH  16  24
ATOM     18  F   UNL     1       1.170   8.237  21.798  0.00  0.00    +0.000 F 
ATOM     19  C   UNL     1       1.279   8.547  20.496  0.00  0.00    +0.000 A 
ATOM     20  C   UNL     1       0.582   9.652  20.005  0.00  0.00    +0.000 A 
ATOM     21  C   UNL     1       0.688   9.993  18.657  0.00  0.00    +0.000 A 
ATOM     22  C   UNL     1       1.511   9.249  17.817  0.00  0.00    +0.000 A 
ATOM     23  C   UNL     1       2.210   8.151  18.321  0.00  0.00    +0.000 A 
ATOM     24  C   UNL     1       2.067   7.752  19.659  0.00  0.00    +0.000 A 
ENDBRANCH  16  24
ENDBRANCH   1  16
TORSDOF 3
ENDMDL
MODEL 2
REMARK VINA RESULT:      -8.5      0.981      1.400
REMARK  Name = 
REMARK  3 active torsions:
REMARK  status: ('A' for Active; 'I' for Inactive)
REMARK    1  A    between atoms: C_7  and  N_8
REMARK    2  A    between atoms: N_8  and  C_9
REMARK    3  A    between atoms: C_16  and  C_17
REMARK                            x       y       z     vdW  Elec       q    Type
REMARK                         _______ _______ _______ _____ _____    ______ ____
ROOT
ATOM      1  C   UNL     1       2.354   5.346  19.896  0.00  0.00    +0.000 A 
ATOM      2  N   UNL     1       1.341   4.897  20.665  0.00  0.00    +0.000 NA
ATOM      3  C   UNL     1       0.856   3.689  20.386  0.00  0.00    +0.000 A 
ATOM      4  N   UNL     1       1.274   2.886  19.408  0.00  0.00    +0.000 NA
ATOM      5  C   UNL     1       2.292   3.330  18.665  0.00  0.00    +0.000 A 
ATOM      6  C   UNL     1       2.721   2.542  17.610  0.00  0.00    +0.000 A 
ATOM      7  C   UNL     1       3.772   2.934  16.774  0.00  0.00    +0.000 A 
ATOM      8  C   UNL     1       4.446   4.140  16.986  0.00  0.00    +0.000 A 
ATOM      9  C   UNL     1       4.005   4.950  18.044  0.00  0.00    +0.000 A 
ATOM     10  C   UNL     1       2.922   4.562  18.878  0.00  0.00    +0.000 A 
ENDROOT
BRANCH   8  11
ATOM     11  C   UNL     1       5.556   4.579  16.129  0.00  0.00    +0.000 A 
ATOM     12  C   UNL     1       6.640   5.391  16.429  0.00  0.00    +0.000 A 
ATOM     13  N   UNL     1       7.547   5.613  15.410  0.00  0.00    +0.000 NA
ATOM     14  C   UNL     1       7.150   4.968  14.338  0.00  0.00    +0.000 A 
ATOM     15  S   UNL     1       5.699   4.075  14.486  0.00  0.00    +0.000 S 
ENDBRANCH   8  11
BRANCH   1  16
ATOM     16  N   UNL     1       2.794   6.679  20.100  0.00  0.00    +0.000 N 
ATOM     17  H   UNL     1       3.250   6.778  21.003  0.00  0.00    +0.000 HD
BRANCH  16  24
ATOM     18  F   UNL     1       2.782   7.734  17.507  0.00  0.00    +0.000 F 
ATOM     19  C   UNL     1       2.031   8.328  18.449  0.00  0.00    +0.000 A 
ATOM     20  C   UNL     1       1.282   9.453  18.105  0.00  0.00    +0.000 A 
ATOM     21  C   UNL     1       0.491  10.079  19.069  0.00  0.00    +0.000 A 
ATOM     22  C   UNL     1       0.428   9.558  20.358  0.00  0.00    +0.000 A 
ATOM     23  C   UNL     1       1.175   8.426  20.688  0.00  0.00    +0.000 A 
ATOM     24  C   UNL     1       2.028   7.820  19.752  0.00  0.00    +0.000 A 
ENDBRANCH  16  24
ENDBRANCH   1  16
TORSDOF 3
ENDMDL
MODEL 3
REMARK VINA RESULT:      -8.0      3.170      5.679
REMARK  Name = 
REMARK  3 active torsions:
REMARK  status: ('A' for Active; 'I' for Inactive)
REMARK    1  A    between atoms: C_7  and  N_8
REMARK    2  A    between atoms: N_8  and  C_9
REMARK    3  A    between atoms: C_16  and  C_17
REMARK                            x       y       z     vdW  Elec       q    Type
REMARK                         _______ _______ _______ _____ _____    ______ ____
ROOT
ATOM      1  C   UNL     1       4.542   3.835  18.706  0.00  0.00    +0.000 A 
ATOM      2  N   UNL     1       4.769   2.588  19.167  0.00  0.00    +0.000 NA
ATOM      3  C   UNL     1       4.039   2.182  20.205  0.00  0.00    +0.000 A 
ATOM      4  N   UNL     1       3.111   2.901  20.835  0.00  0.00    +0.000 NA
ATOM      5  C   UNL     1       2.878   4.126  20.359  0.00  0.00    +0.000 A 
ATOM      6  C   UNL     1       1.954   4.918  21.019  0.00  0.00    +0.000 A 
ATOM      7  C   UNL     1       1.656   6.218  20.596  0.00  0.00    +0.000 A 
ATOM      8  C   UNL     1       2.275   6.764  19.468  0.00  0.00    +0.000 A 
ATOM      9  C   UNL     1       3.225   5.972  18.804  0.00  0.00    +0.000 A 
ATOM     10  C   UNL     1       3.543   4.661  19.248  0.00  0.00    +0.000 A 
ENDROOT
BRANCH   8  11
ATOM     11  C   UNL     1       1.983   8.125  18.995  0.00  0.00    +0.000 A 
ATOM     12  C   UNL     1       2.317   8.737  17.796  0.00  0.00    +0.000 A 
ATOM     13  N   UNL     1       1.879  10.036  17.621  0.00  0.00    +0.000 NA
ATOM     14  C   UNL     1       1.211  10.407  18.689  0.00  0.00    +0.000 A 
ATOM     15  S   UNL     1       1.070   9.244  19.935  0.00  0.00    +0.000 S 
ENDBRANCH   8  11
BRANCH   1  16
ATOM     16  N   UNL     1       5.398   4.325  17.687  0.00  0.00    +0.000 N 
ATOM     17  H   UNL     1       5.797   3.561  17.149  0.00  0.00    +0.000 HD
BRANCH  16  24
ATOM     18  F   UNL     1       5.375   6.615  16.077  0.00  0.00    +0.000 F 
ATOM     19  C   UNL     1       6.281   6.530  17.064  0.00  0.00    +0.000 A 
ATOM     20  C   UNL     1       7.183   7.577  17.245  0.00  0.00    +0.000 A 
ATOM     21  C   UNL     1       8.127   7.509  18.269  0.00  0.00    +0.000 A 
ATOM     22  C   UNL     1       8.142   6.412  19.125  0.00  0.00    +0.000 A 
ATOM     23  C   UNL     1       7.228   5.373  18.940  0.00  0.00    +0.000 A 
ATOM     24  C   UNL     1       6.313   5.391  17.876  0.00  0.00    +0.000 A 
ENDBRANCH  16  24
ENDBRANCH   1  16
TORSDOF 3
ENDMDL
MODEL 4
REMARK VINA RESULT:      -8.0      3.109      5.911
REMARK  Name = 
REMARK  3 active torsions:
REMARK  status: ('A' for Active; 'I' for Inactive)
REMARK    1  A    between atoms: C_7  and  N_8
REMARK    2  A    between atoms: N_8  and  C_9
REMARK    3  A    between atoms: C_16  and  C_17
REMARK                            x       y       z     vdW  Elec       q    Type
REMARK                         _______ _______ _______ _____ _____    ______ ____
ROOT
ATOM      1  C   UNL     1       4.885   3.891  19.380  0.00  0.00    +0.000 A 
ATOM      2  N   UNL     1       5.057   2.632  19.833  0.00  0.00    +0.000 NA
ATOM      3  C   UNL     1       4.081   2.116  20.578  0.00  0.00    +0.000 A 
ATOM      4  N   UNL     1       2.953   2.735  20.925  0.00  0.00    +0.000 NA
ATOM      5  C   UNL     1       2.782   3.973  20.456  0.00  0.00    +0.000 A 
ATOM      6  C   UNL     1       1.643   4.664  20.836  0.00  0.00    +0.000 A 
ATOM      7  C   UNL     1       1.388   5.969  20.400  0.00  0.00    +0.000 A 
ATOM      8  C   UNL     1       2.276   6.623  19.541  0.00  0.00    +0.000 A 
ATOM      9  C   UNL     1       3.440   5.935  19.166  0.00  0.00    +0.000 A 
ATOM     10  C   UNL     1       3.709   4.618  19.627  0.00  0.00    +0.000 A 
ENDROOT
BRANCH   8  11
ATOM     11  C   UNL     1       2.037   7.993  19.063  0.00  0.00    +0.000 A 
ATOM     12  C   UNL     1       2.442   8.603  17.884  0.00  0.00    +0.000 A 
ATOM     13  N   UNL     1       2.042   9.912  17.697  0.00  0.00    +0.000 NA
ATOM     14  C   UNL     1       1.332  10.293  18.734  0.00  0.00    +0.000 A 
ATOM     15  S   UNL     1       1.106   9.128  19.966  0.00  0.00    +0.000 S 
ENDBRANCH   8  11
BRANCH   1  16
ATOM     16  N   UNL     1       5.968   4.497  18.695  0.00  0.00    +0.000 N 
ATOM     17  H   UNL     1       6.248   5.362  19.150  0.00  0.00    +0.000 HD
BRANCH  16  24
ATOM     18  F   UNL     1       7.838   6.135  17.408  0.00  0.00    +0.000 F 
ATOM     19  C   UNL     1       7.006   5.394  16.659  0.00  0.00    +0.000 A 
ATOM     20  C   UNL     1       7.094   5.475  15.269  0.00  0.00    +0.000 A 
ATOM     21  C   UNL     1       6.242   4.708  14.475  0.00  0.00    +0.000 A 
ATOM     22  C   UNL     1       5.331   3.842  15.073  0.00  0.00    +0.000 A 
ATOM     23  C   UNL     1       5.258   3.763  16.465  0.00  0.00    +0.000 A 
ATOM     24  C   UNL     1       6.060   4.574  17.282  0.00  0.00    +0.000 A 
ENDBRANCH  16  24
ENDBRANCH   1  16
TORSDOF 3
ENDMDL
MODEL 5
REMARK VINA RESULT:      -7.9      3.030      5.794
REMARK  Name = 
REMARK  3 active torsions:
REMARK  status: ('A' for Active; 'I' for Inactive)
REMARK    1  A    between atoms: C_7  and  N_8
REMARK    2  A    between atoms: N_8  and  C_9
REMARK    3  A    between atoms: C_16  and  C_17
REMARK                            x       y       z     vdW  Elec       q    Type
REMARK                         _______ _______ _______ _____ _____    ______ ____
ROOT
ATOM      1  C   UNL     1       3.840   3.752  17.776  0.00  0.00    +0.000 A 
ATOM      2  N   UNL     1       4.018   2.416  17.743  0.00  0.00    +0.000 NA
ATOM      3  C   UNL     1       3.362   1.693  18.649  0.00  0.00    +0.000 A 
ATOM      4  N   UNL     1       2.552   2.172  19.592  0.00  0.00    +0.000 NA
ATOM      5  C   UNL     1       2.365   3.495  19.604  0.00  0.00    +0.000 A 
ATOM      6  C   UNL     1       1.567   4.032  20.600  0.00  0.00    +0.000 A 
ATOM      7  C   UNL     1       1.326   5.407  20.695  0.00  0.00    +0.000 A 
ATOM      8  C   UNL     1       1.874   6.296  19.766  0.00  0.00    +0.000 A 
ATOM      9  C   UNL     1       2.697   5.759  18.764  0.00  0.00    +0.000 A 
ATOM     10  C   UNL     1       2.960   4.365  18.683  0.00  0.00    +0.000 A 
ENDROOT
BRANCH   8  11
ATOM     11  C   UNL     1       1.639   7.745  19.835  0.00  0.00    +0.000 A 
ATOM     12  C   UNL     1       1.743   8.709  18.843  0.00  0.00    +0.000 A 
ATOM     13  N   UNL     1       1.432  10.006  19.204  0.00  0.00    +0.000 NA
ATOM     14  C   UNL     1       1.090  10.024  20.471  0.00  0.00    +0.000 A 
ATOM     15  S   UNL     1       1.119   8.520  21.285  0.00  0.00    +0.000 S 
ENDBRANCH   8  11
BRANCH   1  16
ATOM     16  N   UNL     1       4.630   4.542  16.902  0.00  0.00    +0.000 N 
ATOM     17  H   UNL     1       4.838   4.039  16.045  0.00  0.00    +0.000 HD
BRANCH  16  24
ATOM     18  F   UNL     1       5.055   7.129  15.920  0.00  0.00    +0.000 F 
ATOM     19  C   UNL     1       5.905   6.639  16.837  0.00  0.00    +0.000 A 
ATOM     20  C   UNL     1       6.975   7.430  17.257  0.00  0.00    +0.000 A 
ATOM     21  C   UNL     1       7.864   6.940  18.214  0.00  0.00    +0.000 A 
ATOM     22  C   UNL     1       7.662   5.678  18.765  0.00  0.00    +0.000 A 
ATOM     23  C   UNL     1       6.583   4.899  18.343  0.00  0.00    +0.000 A 
ATOM     24  C   UNL     1       5.714   5.346  17.336  0.00  0.00    +0.000 A 
ENDBRANCH  16  24
ENDBRANCH   1  16
TORSDOF 3
ENDMDL
MODEL 6
REMARK VINA RESULT:      -7.6      2.726      6.012
REMARK  Name = 
REMARK  3 active torsions:
REMARK  status: ('A' for Active; 'I' for Inactive)
REMARK    1  A    between atoms: C_7  and  N_8
REMARK    2  A    between atoms: N_8  and  C_9
REMARK    3  A    between atoms: C_16  and  C_17
REMARK                            x       y       z     vdW  Elec       q    Type
REMARK                         _______ _______ _______ _____ _____    ______ ____
ROOT
ATOM      1  C   UNL     1       4.849   4.115  19.138  0.00  0.00    +0.000 A 
ATOM      2  N   UNL     1       5.131   2.837  19.463  0.00  0.00    +0.000 NA
ATOM      3  C   UNL     1       4.268   2.207  20.257  0.00  0.00    +0.000 A 
ATOM      4  N   UNL     1       3.154   2.730  20.770  0.00  0.00    +0.000 NA
ATOM      5  C   UNL     1       2.872   3.990  20.426  0.00  0.00    +0.000 A 
ATOM      6  C   UNL     1       1.747   4.580  20.978  0.00  0.00    +0.000 A 
ATOM      7  C   UNL     1       1.383   5.898  20.682  0.00  0.00    +0.000 A 
ATOM      8  C   UNL     1       2.139   6.669  19.795  0.00  0.00    +0.000 A 
ATOM      9  C   UNL     1       3.290   6.082  19.245  0.00  0.00    +0.000 A 
ATOM     10  C   UNL     1       3.671   4.751  19.564  0.00  0.00    +0.000 A 
ENDROOT
BRANCH   8  11
ATOM     11  C   UNL     1       1.783   8.055  19.460  0.00  0.00    +0.000 A 
ATOM     12  C   UNL     1       1.159   9.022  20.235  0.00  0.00    +0.000 A 
ATOM     13  N   UNL     1       0.974  10.260  19.650  0.00  0.00    +0.000 NA
ATOM     14  C   UNL     1       1.460  10.231  18.431  0.00  0.00    +0.000 A 
ATOM     15  S   UNL     1       2.154   8.751  17.927  0.00  0.00    +0.000 S 
ENDBRANCH   8  11
BRANCH   1  16
ATOM     16  N   UNL     1       5.822   4.836  18.399  0.00  0.00    +0.000 N 
ATOM     17  H   UNL     1       5.860   5.806  18.697  0.00  0.00    +0.000 HD
BRANCH  16  24
ATOM     18  F   UNL     1       3.774   3.974  16.695  0.00  0.00    +0.000 F 
ATOM     19  C   UNL     1       4.974   4.264  16.167  0.00  0.00    +0.000 A 
ATOM     20  C   UNL     1       5.161   4.116  14.792  0.00  0.00    +0.000 A 
ATOM     21  C   UNL     1       6.398   4.419  14.225  0.00  0.00    +0.000 A 
ATOM     22  C   UNL     1       7.429   4.898  15.028  0.00  0.00    +0.000 A 
ATOM     23  C   UNL     1       7.228   5.051  16.400  0.00  0.00    +0.000 A 
ATOM     24  C   UNL     1       6.013   4.690  17.001  0.00  0.00    +0.000 A 
ENDBRANCH  16  24
ENDBRANCH   1  16
TORSDOF 3
ENDMDL
MODEL 7
REMARK VINA RESULT:      -7.5      3.049      5.810
REMARK  Name = 
REMARK  3 active torsions:
REMARK  status: ('A' for Active; 'I' for Inactive)
REMARK    1  A    between atoms: C_7  and  N_8
REMARK    2  A    between atoms: N_8  and  C_9
REMARK    3  A    between atoms: C_16  and  C_17
REMARK                            x       y       z     vdW  Elec       q    Type
REMARK                         _______ _______ _______ _____ _____    ______ ____
ROOT
ATOM      1  C   UNL     1       4.925   3.746  19.421  0.00  0.00    +0.000 A 
ATOM      2  N   UNL     1       5.082   2.495  19.899  0.00  0.00    +0.000 NA
ATOM      3  C   UNL     1       4.096   2.003  20.647  0.00  0.00    +0.000 A 
ATOM      4  N   UNL     1       2.972   2.640  20.975  0.00  0.00    +0.000 NA
ATOM      5  C   UNL     1       2.817   3.871  20.480  0.00  0.00    +0.000 A 
ATOM      6  C   UNL     1       1.683   4.580  20.839  0.00  0.00    +0.000 A 
ATOM      7  C   UNL     1       1.444   5.878  20.377  0.00  0.00    +0.000 A 
ATOM      8  C   UNL     1       2.344   6.507  19.511  0.00  0.00    +0.000 A 
ATOM      9  C   UNL     1       3.503   5.800  19.157  0.00  0.00    +0.000 A 
ATOM     10  C   UNL     1       3.755   4.490  19.645  0.00  0.00    +0.000 A 
ENDROOT
BRANCH   8  11
ATOM     11  C   UNL     1       2.122   7.869  19.004  0.00  0.00    +0.000 A 
ATOM     12  C   UNL     1       2.511   8.442  17.803  0.00  0.00    +0.000 A 
ATOM     13  N   UNL     1       2.134   9.755  17.592  0.00  0.00    +0.000 NA
ATOM     14  C   UNL     1       1.456  10.176  18.635  0.00  0.00    +0.000 A 
ATOM     15  S   UNL     1       1.235   9.046  19.900  0.00  0.00    +0.000 S 
ENDBRANCH   8  11
BRANCH   1  16
ATOM     16  N   UNL     1       6.020   4.328  18.731  0.00  0.00    +0.000 N 
ATOM     17  H   UNL     1       6.355   5.157  19.214  0.00  0.00    +0.000 HD
BRANCH  16  24
ATOM     18  F   UNL     1       4.264   2.965  17.030  0.00  0.00    +0.000 F 
ATOM     19  C   UNL     1       5.186   3.778  16.489  0.00  0.00    +0.000 A 
ATOM     20  C   UNL     1       5.243   3.905  15.101  0.00  0.00    +0.000 A 
ATOM     21  C   UNL     1       6.190   4.749  14.521  0.00  0.00    +0.000 A 
ATOM     22  C   UNL     1       7.050   5.484  15.332  0.00  0.00    +0.000 A 
ATOM     23  C   UNL     1       6.977   5.356  16.720  0.00  0.00    +0.000 A 
ATOM     24  C   UNL     1       6.077   4.463  17.321  0.00  0.00    +0.000 A 
ENDBRANCH  16  24
ENDBRANCH   1  16
TORSDOF 3
ENDMDL
MODEL 8
REMARK VINA RESULT:      -7.5      3.175      6.085
REMARK  Name = 
REMARK  3 active torsions:
REMARK  status: ('A' for Active; 'I' for Inactive)
REMARK    1  A    between atoms: C_7  and  N_8
REMARK    2  A    between atoms: N_8  and  C_9
REMARK    3  A    between atoms: C_16  and  C_17
REMARK                            x       y       z     vdW  Elec       q    Type
REMARK                         _______ _______ _______ _____ _____    ______ ____
ROOT
ATOM      1  C   UNL     1       3.196   3.375  17.779  0.00  0.00    +0.000 A 
ATOM      2  N   UNL     1       3.300   2.083  18.151  0.00  0.00    +0.000 NA
ATOM      3  C   UNL     1       2.934   1.777  19.394  0.00  0.00    +0.000 A 
ATOM      4  N   UNL     1       2.483   2.635  20.309  0.00  0.00    +0.000 NA
ATOM      5  C   UNL     1       2.363   3.909  19.925  0.00  0.00    +0.000 A 
ATOM      6  C   UNL     1       1.942   4.836  20.864  0.00  0.00    +0.000 A 
ATOM      7  C   UNL     1       1.799   6.193  20.552  0.00  0.00    +0.000 A 
ATOM      8  C   UNL     1       2.063   6.663  19.262  0.00  0.00    +0.000 A 
ATOM      9  C   UNL     1       2.506   5.731  18.311  0.00  0.00    +0.000 A 
ATOM     10  C   UNL     1       2.672   4.357  18.635  0.00  0.00    +0.000 A 
ENDROOT
BRANCH   8  11
ATOM     11  C   UNL     1       1.920   8.081  18.901  0.00  0.00    +0.000 A 
ATOM     12  C   UNL     1       2.332   8.750  17.757  0.00  0.00    +0.000 A 
ATOM     13  N   UNL     1       2.033  10.097  17.688  0.00  0.00    +0.000 NA
ATOM     14  C   UNL     1       1.394  10.449  18.779  0.00  0.00    +0.000 A 
ATOM     15  S   UNL     1       1.117   9.210  19.926  0.00  0.00    +0.000 S 
ENDBRANCH   8  11
BRANCH   1  16
ATOM     16  N   UNL     1       3.702   3.734  16.504  0.00  0.00    +0.000 N 
ATOM     17  H   UNL     1       3.361   3.101  15.786  0.00  0.00    +0.000 HD
BRANCH  16  24
ATOM     18  F   UNL     1       4.717   4.154  13.929  0.00  0.00    +0.000 F 
ATOM     19  C   UNL     1       5.526   4.352  14.982  0.00  0.00    +0.000 A 
ATOM     20  C   UNL     1       6.845   4.747  14.755  0.00  0.00    +0.000 A 
ATOM     21  C   UNL     1       7.698   4.963  15.837  0.00  0.00    +0.000 A 
ATOM     22  C   UNL     1       7.221   4.814  17.136  0.00  0.00    +0.000 A 
ATOM     23  C   UNL     1       5.898   4.427  17.351  0.00  0.00    +0.000 A 
ATOM     24  C   UNL     1       5.041   4.141  16.277  0.00  0.00    +0.000 A 
ENDBRANCH  16  24
ENDBRANCH   1  16
TORSDOF 3
ENDMDL
MODEL 9
REMARK VINA RESULT:      -7.4      2.988      6.000
REMARK  Name = 
REMARK  3 active torsions:
REMARK  status: ('A' for Active; 'I' for Inactive)
REMARK    1  A    between atoms: C_7  and  N_8
REMARK    2  A    between atoms: N_8  and  C_9
REMARK    3  A    between atoms: C_16  and  C_17
REMARK                            x       y       z     vdW  Elec       q    Type
REMARK                         _______ _______ _______ _____ _____    ______ ____
ROOT
ATOM      1  C   UNL     1       4.803   4.319  19.212  0.00  0.00    +0.000 A 
ATOM      2  N   UNL     1       5.113   3.028  19.445  0.00  0.00    +0.000 NA
ATOM      3  C   UNL     1       4.253   2.319  20.174  0.00  0.00    +0.000 A 
ATOM      4  N   UNL     1       3.118   2.773  20.704  0.00  0.00    +0.000 NA
ATOM      5  C   UNL     1       2.809   4.048  20.451  0.00  0.00    +0.000 A 
ATOM      6  C   UNL     1       1.661   4.567  21.025  0.00  0.00    +0.000 A 
ATOM      7  C   UNL     1       1.267   5.894  20.823  0.00  0.00    +0.000 A 
ATOM      8  C   UNL     1       2.017   6.748  20.010  0.00  0.00    +0.000 A 
ATOM      9  C   UNL     1       3.191   6.233  19.439  0.00  0.00    +0.000 A 
ATOM     10  C   UNL     1       3.602   4.891  19.664  0.00  0.00    +0.000 A 
ENDROOT
BRANCH   8  11
ATOM     11  C   UNL     1       1.630   8.147  19.774  0.00  0.00    +0.000 A 
ATOM     12  C   UNL     1       1.738   8.915  18.624  0.00  0.00    +0.000 A 
ATOM     13  N   UNL     1       1.261  10.209  18.698  0.00  0.00    +0.000 NA
ATOM     14  C   UNL     1       0.791  10.422  19.905  0.00  0.00    +0.000 A 
ATOM     15  S   UNL     1       0.888   9.109  20.997  0.00  0.00    +0.000 S 
ENDBRANCH   8  11
BRANCH   1  16
ATOM     16  N   UNL     1       5.768   5.117  18.547  0.00  0.00    +0.000 N 
ATOM     17  H   UNL     1       5.796   6.055  18.937  0.00  0.00    +0.000 HD
BRANCH  16  24
ATOM     18  F   UNL     1       4.260   6.727  16.823  0.00  0.00    +0.000 F 
ATOM     19  C   UNL     1       5.201   5.925  16.299  0.00  0.00    +0.000 A 
ATOM     20  C   UNL     1       5.385   5.914  14.916  0.00  0.00    +0.000 A 
ATOM     21  C   UNL     1       6.363   5.093  14.355  0.00  0.00    +0.000 A 
ATOM     22  C   UNL     1       7.169   4.313  15.179  0.00  0.00    +0.000 A 
ATOM     23  C   UNL     1       6.981   4.339  16.562  0.00  0.00    +0.000 A 
ATOM     24  C   UNL     1       5.961   5.108  17.142  0.00  0.00    +0.000 A 
ENDBRANCH  16  24
ENDBRANCH   1  16
TORSDOF 3
ENDMDL
