MODEL 1
REMARK VINA RESULT:      -6.5      0.000      0.000
REMARK  Name = 
REMARK  11 active torsions:
REMARK  status: ('A' for Active; 'I' for Inactive)
REMARK    1  A    between atoms: C_1  and  C_2
REMARK    2  A    between atoms: C_2  and  C_3
REMARK    3  A    between atoms: C_2  and  N_4
REMARK    4  A    between atoms: N_4  and  C_5
REMARK    5  A    between atoms: N_4  and  C_28
REMARK    6  A    between atoms: C_5  and  C_6
REMARK    7  A    between atoms: C_6  and  S_7
REMARK    8  A    between atoms: S_7  and  C_8
REMARK    9  A    between atoms: C_13  and  C_14
REMARK   10  A    between atoms: C_28  and  C_29
REMARK   11  A    between atoms: C_28  and  C_30
REMARK                            x       y       z     vdW  Elec       q    Type
REMARK                         _______ _______ _______ _____ _____    ______ ____
ROOT
ATOM      1  C   UNL     1      -3.356  13.725  21.390  0.00  0.00    +0.000 C 
ATOM      2  O   UNL     1      -2.645  14.219  20.521  0.00  0.00    +0.000 OA
ATOM      3  N   UNL     1      -4.583  13.056  21.149  0.00  0.00    +0.000 N 
ATOM      4  C   UNL     1      -4.779  12.279  19.929  0.00  0.00    +0.000 A 
ATOM      5  C   UNL     1      -3.721  12.097  19.001  0.00  0.00    +0.000 A 
ATOM      6  C   UNL     1      -3.854  11.362  17.800  0.00  0.00    +0.000 A 
ATOM      7  C   UNL     1      -5.074  10.762  17.514  0.00  0.00    +0.000 A 
ATOM      8  C   UNL     1      -6.123  10.884  18.415  0.00  0.00    +0.000 A 
ATOM      9  C   UNL     1      -5.980  11.618  19.613  0.00  0.00    +0.000 A 
ATOM     10  S   UNL     1      -7.398  11.547  20.663  0.00  0.00    +0.000 S 
ATOM     11  C   UNL     1      -6.930  12.659  21.937  0.00  0.00    +0.000 A 
ATOM     12  C   UNL     1      -7.915  12.907  22.912  0.00  0.00    +0.000 A 
ATOM     13  C   UNL     1      -7.673  13.785  23.955  0.00  0.00    +0.000 A 
ATOM     14  C   UNL     1      -6.463  14.428  23.958  0.00  0.00    +0.000 A 
ATOM     15  N   UNL     1      -5.514  14.227  23.019  0.00  0.00    +0.000 NA
ATOM     16  C   UNL     1      -5.697  13.299  22.040  0.00  0.00    +0.000 A 
ENDROOT
BRANCH   6  17
ATOM     17  C   UNL     1      -2.703  11.204  16.834  0.00  0.00    +0.000 C 
ATOM     18  F   UNL     1      -2.051  10.014  16.940  0.00  0.00    +0.000 F 
ATOM     19  F   UNL     1      -3.104  11.295  15.535  0.00  0.00    +0.000 F 
ATOM     20  F   UNL     1      -1.754  12.168  16.998  0.00  0.00    +0.000 F 
ENDBRANCH   6  17
BRANCH   1  21
ATOM     21  S   UNL     1      -2.715  13.654  23.059  0.00  0.00    +0.000 S 
BRANCH  21  22
ATOM     22  C   UNL     1      -1.010  13.109  22.726  0.00  0.00    +0.000 C 
BRANCH  22  23
ATOM     23  C   UNL     1      -0.972  11.883  21.786  0.00  0.00    +0.000 C 
BRANCH  23  24
ATOM     24  N   UNL     1       0.330  11.138  21.737  0.00  0.00    +0.000 NA
BRANCH  24  26
ATOM     25  C   UNL     1       0.245  11.236  19.214  0.00  0.00    +0.000 C 
ATOM     26  C   UNL     1       1.094  11.467  20.489  0.00  0.00    +0.000 C 
ATOM     27  C   UNL     1       1.609  12.912  20.377  0.00  0.00    +0.000 C 
ENDBRANCH  24  26
BRANCH  24  28
ATOM     28  C   UNL     1       0.125   9.685  22.045  0.00  0.00    +0.000 C 
ATOM     29  C   UNL     1       1.310   8.752  21.745  0.00  0.00    +0.000 C 
ATOM     30  C   UNL     1      -0.196   9.440  23.542  0.00  0.00    +0.000 C 
ENDBRANCH  24  28
ENDBRANCH  23  24
ENDBRANCH  22  23
ENDBRANCH  21  22
ENDBRANCH   1  21
TORSDOF 7
ENDMDL
MODEL 2
REMARK VINA RESULT:      -6.5      5.166      7.161
REMARK  Name = 
REMARK  11 active torsions:
REMARK  status: ('A' for Active; 'I' for Inactive)
REMARK    1  A    between atoms: C_1  and  C_2
REMARK    2  A    between atoms: C_2  and  C_3
REMARK    3  A    between atoms: C_2  and  N_4
REMARK    4  A    between atoms: N_4  and  C_5
REMARK    5  A    between atoms: N_4  and  C_28
REMARK    6  A    between atoms: C_5  and  C_6
REMARK    7  A    between atoms: C_6  and  S_7
REMARK    8  A    between atoms: S_7  and  C_8
REMARK    9  A    between atoms: C_13  and  C_14
REMARK   10  A    between atoms: C_28  and  C_29
REMARK   11  A    between atoms: C_28  and  C_30
REMARK                            x       y       z     vdW  Elec       q    Type
REMARK                         _______ _______ _______ _____ _____    ______ ____
ROOT
ATOM      1  C   UNL     1       1.509  11.356  18.931  0.00  0.00    +0.000 C 
ATOM      2  O   UNL     1       2.492  11.883  18.421  0.00  0.00    +0.000 OA
ATOM      3  N   UNL     1       0.793  11.881  20.038  0.00  0.00    +0.000 N 
ATOM      4  C   UNL     1       0.663  13.323  20.224  0.00  0.00    +0.000 A 
ATOM      5  C   UNL     1       1.169  14.232  19.259  0.00  0.00    +0.000 A 
ATOM      6  C   UNL     1       1.079  15.638  19.388  0.00  0.00    +0.000 A 
ATOM      7  C   UNL     1       0.444  16.168  20.505  0.00  0.00    +0.000 A 
ATOM      8  C   UNL     1      -0.098  15.311  21.453  0.00  0.00    +0.000 A 
ATOM      9  C   UNL     1      -0.006  13.909  21.314  0.00  0.00    +0.000 A 
ATOM     10  S   UNL     1      -0.861  13.013  22.572  0.00  0.00    +0.000 S 
ATOM     11  C   UNL     1      -0.414  11.364  22.174  0.00  0.00    +0.000 A 
ATOM     12  C   UNL     1      -0.870  10.381  23.075  0.00  0.00    +0.000 A 
ATOM     13  C   UNL     1      -0.560   9.046  22.881  0.00  0.00    +0.000 A 
ATOM     14  C   UNL     1       0.244   8.742  21.813  0.00  0.00    +0.000 A 
ATOM     15  N   UNL     1       0.714   9.670  20.953  0.00  0.00    +0.000 NA
ATOM     16  C   UNL     1       0.345  10.974  21.072  0.00  0.00    +0.000 A 
ENDROOT
BRANCH   6  17
ATOM     17  C   UNL     1       1.643  16.569  18.340  0.00  0.00    +0.000 C 
ATOM     18  F   UNL     1       0.700  17.135  17.539  0.00  0.00    +0.000 F 
ATOM     19  F   UNL     1       2.335  17.605  18.891  0.00  0.00    +0.000 F 
ATOM     20  F   UNL     1       2.517  15.941  17.506  0.00  0.00    +0.000 F 
ENDBRANCH   6  17
BRANCH   1  21
ATOM     21  S   UNL     1       0.794   9.937  18.109  0.00  0.00    +0.000 S 
BRANCH  21  22
ATOM     22  C   UNL     1       2.304   8.996  17.720  0.00  0.00    +0.000 C 
BRANCH  22  23
ATOM     23  C   UNL     1       2.409   7.706  18.565  0.00  0.00    +0.000 C 
BRANCH  23  24
ATOM     24  N   UNL     1       3.022   6.522  17.875  0.00  0.00    +0.000 NA
BRANCH  24  26
ATOM     25  C   UNL     1       2.011   5.480  19.942  0.00  0.00    +0.000 C 
ATOM     26  C   UNL     1       2.610   5.240  18.534  0.00  0.00    +0.000 C 
ATOM     27  C   UNL     1       1.559   4.404  17.784  0.00  0.00    +0.000 C 
ENDBRANCH  24  26
BRANCH  24  28
ATOM     28  C   UNL     1       4.490   6.733  17.656  0.00  0.00    +0.000 C 
ATOM     29  C   UNL     1       5.433   5.753  18.373  0.00  0.00    +0.000 C 
ATOM     30  C   UNL     1       4.884   6.631  16.160  0.00  0.00    +0.000 C 
ENDBRANCH  24  28
ENDBRANCH  23  24
ENDBRANCH  22  23
ENDBRANCH  21  22
ENDBRANCH   1  21
TORSDOF 7
ENDMDL
MODEL 3
REMARK VINA RESULT:      -6.5      3.363      5.196
REMARK  Name = 
REMARK  11 active torsions:
REMARK  status: ('A' for Active; 'I' for Inactive)
REMARK    1  A    between atoms: C_1  and  C_2
REMARK    2  A    between atoms: C_2  and  C_3
REMARK    3  A    between atoms: C_2  and  N_4
REMARK    4  A    between atoms: N_4  and  C_5
REMARK    5  A    between atoms: N_4  and  C_28
REMARK    6  A    between atoms: C_5  and  C_6
REMARK    7  A    between atoms: C_6  and  S_7
REMARK    8  A    between atoms: S_7  and  C_8
REMARK    9  A    between atoms: C_13  and  C_14
REMARK   10  A    between atoms: C_28  and  C_29
REMARK   11  A    between atoms: C_28  and  C_30
REMARK                            x       y       z     vdW  Elec       q    Type
REMARK                         _______ _______ _______ _____ _____    ______ ____
ROOT
ATOM      1  C   UNL     1      -0.187  10.496  19.039  0.00  0.00    +0.000 C 
ATOM      2  O   UNL     1       0.294  10.474  17.911  0.00  0.00    +0.000 OA
ATOM      3  N   UNL     1      -1.397  11.149  19.391  0.00  0.00    +0.000 N 
ATOM      4  C   UNL     1      -2.503  11.227  18.442  0.00  0.00    +0.000 A 
ATOM      5  C   UNL     1      -2.432  10.577  17.182  0.00  0.00    +0.000 A 
ATOM      6  C   UNL     1      -3.468  10.624  16.221  0.00  0.00    +0.000 A 
ATOM      7  C   UNL     1      -4.631  11.322  16.522  0.00  0.00    +0.000 A 
ATOM      8  C   UNL     1      -4.754  11.940  17.759  0.00  0.00    +0.000 A 
ATOM      9  C   UNL     1      -3.716  11.885  18.715  0.00  0.00    +0.000 A 
ATOM     10  S   UNL     1      -4.129  12.639  20.257  0.00  0.00    +0.000 S 
ATOM     11  C   UNL     1      -2.601  12.519  21.110  0.00  0.00    +0.000 A 
ATOM     12  C   UNL     1      -2.568  13.136  22.376  0.00  0.00    +0.000 A 
ATOM     13  C   UNL     1      -1.411  13.130  23.136  0.00  0.00    +0.000 A 
ATOM     14  C   UNL     1      -0.303  12.547  22.578  0.00  0.00    +0.000 A 
ATOM     15  N   UNL     1      -0.304  11.974  21.356  0.00  0.00    +0.000 NA
ATOM     16  C   UNL     1      -1.455  11.887  20.634  0.00  0.00    +0.000 A 
ENDROOT
BRANCH   6  17
ATOM     17  C   UNL     1      -3.344   9.925  14.886  0.00  0.00    +0.000 C 
ATOM     18  F   UNL     1      -4.538   9.627  14.305  0.00  0.00    +0.000 F 
ATOM     19  F   UNL     1      -2.661  10.673  13.975  0.00  0.00    +0.000 F 
ATOM     20  F   UNL     1      -2.667   8.747  14.980  0.00  0.00    +0.000 F 
ENDBRANCH   6  17
BRANCH   1  21
ATOM     21  S   UNL     1       0.567   9.468  20.294  0.00  0.00    +0.000 S 
BRANCH  21  22
ATOM     22  C   UNL     1       1.776   8.558  19.281  0.00  0.00    +0.000 C 
BRANCH  22  23
ATOM     23  C   UNL     1       2.079   7.160  19.867  0.00  0.00    +0.000 C 
BRANCH  23  24
ATOM     24  N   UNL     1       2.642   6.156  18.903  0.00  0.00    +0.000 NA
BRANCH  24  26
ATOM     25  C   UNL     1       1.321   4.742  20.526  0.00  0.00    +0.000 C 
ATOM     26  C   UNL     1       2.224   4.763  19.268  0.00  0.00    +0.000 C 
ATOM     27  C   UNL     1       1.440   3.992  18.193  0.00  0.00    +0.000 C 
ENDBRANCH  24  26
BRANCH  24  28
ATOM     28  C   UNL     1       4.107   6.391  18.683  0.00  0.00    +0.000 C 
ATOM     29  C   UNL     1       5.056   5.296  19.197  0.00  0.00    +0.000 C 
ATOM     30  C   UNL     1       4.460   6.543  17.182  0.00  0.00    +0.000 C 
ENDBRANCH  24  28
ENDBRANCH  23  24
ENDBRANCH  22  23
ENDBRANCH  21  22
ENDBRANCH   1  21
TORSDOF 7
ENDMDL
MODEL 4
REMARK VINA RESULT:      -6.4      0.577      1.948
REMARK  Name = 
REMARK  11 active torsions:
REMARK  status: ('A' for Active; 'I' for Inactive)
REMARK    1  A    between atoms: C_1  and  C_2
REMARK    2  A    between atoms: C_2  and  C_3
REMARK    3  A    between atoms: C_2  and  N_4
REMARK    4  A    between atoms: N_4  and  C_5
REMARK    5  A    between atoms: N_4  and  C_28
REMARK    6  A    between atoms: C_5  and  C_6
REMARK    7  A    between atoms: C_6  and  S_7
REMARK    8  A    between atoms: S_7  and  C_8
REMARK    9  A    between atoms: C_13  and  C_14
REMARK   10  A    between atoms: C_28  and  C_29
REMARK   11  A    between atoms: C_28  and  C_30
REMARK                            x       y       z     vdW  Elec       q    Type
REMARK                         _______ _______ _______ _____ _____    ______ ____
ROOT
ATOM      1  C   UNL     1      -3.368  13.595  21.269  0.00  0.00    +0.000 C 
ATOM      2  O   UNL     1      -2.699  14.086  20.366  0.00  0.00    +0.000 OA
ATOM      3  N   UNL     1      -4.625  12.960  21.092  0.00  0.00    +0.000 N 
ATOM      4  C   UNL     1      -4.913  12.209  19.874  0.00  0.00    +0.000 A 
ATOM      5  C   UNL     1      -3.918  12.017  18.881  0.00  0.00    +0.000 A 
ATOM      6  C   UNL     1      -4.141  11.305  17.679  0.00  0.00    +0.000 A 
ATOM      7  C   UNL     1      -5.391  10.740  17.458  0.00  0.00    +0.000 A 
ATOM      8  C   UNL     1      -6.380  10.872  18.423  0.00  0.00    +0.000 A 
ATOM      9  C   UNL     1      -6.147  11.582  19.621  0.00  0.00    +0.000 A 
ATOM     10  S   UNL     1      -7.501  11.527  20.754  0.00  0.00    +0.000 S 
ATOM     11  C   UNL     1      -6.929  12.605  22.014  0.00  0.00    +0.000 A 
ATOM     12  C   UNL     1      -7.847  12.860  23.052  0.00  0.00    +0.000 A 
ATOM     13  C   UNL     1      -7.521  13.714  24.091  0.00  0.00    +0.000 A 
ATOM     14  C   UNL     1      -6.296  14.328  24.031  0.00  0.00    +0.000 A 
ATOM     15  N   UNL     1      -5.412  14.120  23.033  0.00  0.00    +0.000 NA
ATOM     16  C   UNL     1      -5.676  13.214  22.052  0.00  0.00    +0.000 A 
ENDROOT
BRANCH   6  17
ATOM     17  C   UNL     1      -3.054  11.136  16.643  0.00  0.00    +0.000 C 
ATOM     18  F   UNL     1      -3.442  11.450  15.377  0.00  0.00    +0.000 F 
ATOM     19  F   UNL     1      -1.968  11.917  16.904  0.00  0.00    +0.000 F 
ATOM     20  F   UNL     1      -2.587   9.858  16.587  0.00  0.00    +0.000 F 
ENDBRANCH   6  17
BRANCH   1  21
ATOM     21  S   UNL     1      -2.630  13.480  22.895  0.00  0.00    +0.000 S 
BRANCH  21  22
ATOM     22  C   UNL     1      -1.869  11.829  22.786  0.00  0.00    +0.000 C 
BRANCH  22  23
ATOM     23  C   UNL     1      -0.486  11.878  22.099  0.00  0.00    +0.000 C 
BRANCH  23  24
ATOM     24  N   UNL     1      -0.094  10.649  21.331  0.00  0.00    +0.000 NA
BRANCH  24  26
ATOM     25  C   UNL     1       0.095   9.357  23.493  0.00  0.00    +0.000 C 
ATOM     26  C   UNL     1       0.775   9.750  22.158  0.00  0.00    +0.000 C 
ATOM     27  C   UNL     1       1.183   8.420  21.503  0.00  0.00    +0.000 C 
ENDBRANCH  24  26
BRANCH  24  28
ATOM     28  C   UNL     1       0.408  11.011  19.965  0.00  0.00    +0.000 C 
ATOM     29  C   UNL     1      -0.179  10.210  18.791  0.00  0.00    +0.000 C 
ATOM     30  C   UNL     1       0.126  12.493  19.607  0.00  0.00    +0.000 C 
ENDBRANCH  24  28
ENDBRANCH  23  24
ENDBRANCH  22  23
ENDBRANCH  21  22
ENDBRANCH   1  21
TORSDOF 7
ENDMDL
MODEL 5
REMARK VINA RESULT:      -6.4      1.665      2.291
REMARK  Name = 
REMARK  11 active torsions:
REMARK  status: ('A' for Active; 'I' for Inactive)
REMARK    1  A    between atoms: C_1  and  C_2
REMARK    2  A    between atoms: C_2  and  C_3
REMARK    3  A    between atoms: C_2  and  N_4
REMARK    4  A    between atoms: N_4  and  C_5
REMARK    5  A    between atoms: N_4  and  C_28
REMARK    6  A    between atoms: C_5  and  C_6
REMARK    7  A    between atoms: C_6  and  S_7
REMARK    8  A    between atoms: S_7  and  C_8
REMARK    9  A    between atoms: C_13  and  C_14
REMARK   10  A    between atoms: C_28  and  C_29
REMARK   11  A    between atoms: C_28  and  C_30
REMARK                            x       y       z     vdW  Elec       q    Type
REMARK                         _______ _______ _______ _____ _____    ______ ____
ROOT
ATOM      1  C   UNL     1      -1.646  13.654  20.430  0.00  0.00    +0.000 C 
ATOM      2  O   UNL     1      -1.223  13.788  19.287  0.00  0.00    +0.000 OA
ATOM      3  N   UNL     1      -3.005  13.428  20.769  0.00  0.00    +0.000 N 
ATOM      4  C   UNL     1      -3.873  12.653  19.887  0.00  0.00    +0.000 A 
ATOM      5  C   UNL     1      -3.359  12.031  18.719  0.00  0.00    +0.000 A 
ATOM      6  C   UNL     1      -4.152  11.275  17.825  0.00  0.00    +0.000 A 
ATOM      7  C   UNL     1      -5.502  11.107  18.105  0.00  0.00    +0.000 A 
ATOM      8  C   UNL     1      -6.035  11.667  19.258  0.00  0.00    +0.000 A 
ATOM      9  C   UNL     1      -5.235  12.418  20.147  0.00  0.00    +0.000 A 
ATOM     10  S   UNL     1      -6.088  12.940  21.603  0.00  0.00    +0.000 S 
ATOM     11  C   UNL     1      -4.866  13.938  22.369  0.00  0.00    +0.000 A 
ATOM     12  C   UNL     1      -5.279  14.601  23.542  0.00  0.00    +0.000 A 
ATOM     13  C   UNL     1      -4.412  15.438  24.223  0.00  0.00    +0.000 A 
ATOM     14  C   UNL     1      -3.168  15.623  23.678  0.00  0.00    +0.000 A 
ATOM     15  N   UNL     1      -2.761  15.020  22.541  0.00  0.00    +0.000 NA
ATOM     16  C   UNL     1      -3.565  14.122  21.908  0.00  0.00    +0.000 A 
ENDROOT
BRANCH   6  17
ATOM     17  C   UNL     1      -3.564  10.640  16.586  0.00  0.00    +0.000 C 
ATOM     18  F   UNL     1      -4.431  10.561  15.541  0.00  0.00    +0.000 F 
ATOM     19  F   UNL     1      -2.481  11.324  16.122  0.00  0.00    +0.000 F 
ATOM     20  F   UNL     1      -3.131   9.369  16.812  0.00  0.00    +0.000 F 
ENDBRANCH   6  17
BRANCH   1  21
ATOM     21  S   UNL     1      -0.454  13.526  21.758  0.00  0.00    +0.000 S 
BRANCH  21  22
ATOM     22  C   UNL     1       0.746  12.383  21.004  0.00  0.00    +0.000 C 
BRANCH  22  23
ATOM     23  C   UNL     1       0.138  10.981  20.775  0.00  0.00    +0.000 C 
BRANCH  23  24
ATOM     24  N   UNL     1       1.108   9.903  20.384  0.00  0.00    +0.000 NA
BRANCH  24  26
ATOM     25  C   UNL     1      -0.347  10.091  18.328  0.00  0.00    +0.000 C 
ATOM     26  C   UNL     1       0.979   9.563  18.930  0.00  0.00    +0.000 C 
ATOM     27  C   UNL     1       2.086  10.106  18.011  0.00  0.00    +0.000 C 
ENDBRANCH  24  26
BRANCH  24  28
ATOM     28  C   UNL     1       1.060   8.763  21.357  0.00  0.00    +0.000 C 
ATOM     29  C   UNL     1      -0.310   8.466  21.988  0.00  0.00    +0.000 C 
ATOM     30  C   UNL     1       1.495   7.422  20.714  0.00  0.00    +0.000 C 
ENDBRANCH  24  28
ENDBRANCH  23  24
ENDBRANCH  22  23
ENDBRANCH  21  22
ENDBRANCH   1  21
TORSDOF 7
ENDMDL
MODEL 6
REMARK VINA RESULT:      -6.3      3.329      5.457
REMARK  Name = 
REMARK  11 active torsions:
REMARK  status: ('A' for Active; 'I' for Inactive)
REMARK    1  A    between atoms: C_1  and  C_2
REMARK    2  A    between atoms: C_2  and  C_3
REMARK    3  A    between atoms: C_2  and  N_4
REMARK    4  A    between atoms: N_4  and  C_5
REMARK    5  A    between atoms: N_4  and  C_28
REMARK    6  A    between atoms: C_5  and  C_6
REMARK    7  A    between atoms: C_6  and  S_7
REMARK    8  A    between atoms: S_7  and  C_8
REMARK    9  A    between atoms: C_13  and  C_14
REMARK   10  A    between atoms: C_28  and  C_29
REMARK   11  A    between atoms: C_28  and  C_30
REMARK                            x       y       z     vdW  Elec       q    Type
REMARK                         _______ _______ _______ _____ _____    ______ ____
ROOT
ATOM      1  C   UNL     1      -2.487  12.303  20.577  0.00  0.00    +0.000 C 
ATOM      2  O   UNL     1      -2.424  12.001  21.763  0.00  0.00    +0.000 OA
ATOM      3  N   UNL     1      -3.656  12.208  19.778  0.00  0.00    +0.000 N 
ATOM      4  C   UNL     1      -4.975  12.439  20.359  0.00  0.00    +0.000 A 
ATOM      5  C   UNL     1      -5.116  12.852  21.709  0.00  0.00    +0.000 A 
ATOM      6  C   UNL     1      -6.366  13.084  22.328  0.00  0.00    +0.000 A 
ATOM      7  C   UNL     1      -7.525  12.922  21.578  0.00  0.00    +0.000 A 
ATOM      8  C   UNL     1      -7.427  12.556  20.242  0.00  0.00    +0.000 A 
ATOM      9  C   UNL     1      -6.174  12.330  19.632  0.00  0.00    +0.000 A 
ATOM     10  S   UNL     1      -6.278  11.986  17.903  0.00  0.00    +0.000 S 
ATOM     11  C   UNL     1      -4.603  11.622  17.532  0.00  0.00    +0.000 A 
ATOM     12  C   UNL     1      -4.357  11.200  16.210  0.00  0.00    +0.000 A 
ATOM     13  C   UNL     1      -3.078  10.860  15.803  0.00  0.00    +0.000 A 
ATOM     14  C   UNL     1      -2.090  10.905  16.752  0.00  0.00    +0.000 A 
ATOM     15  N   UNL     1      -2.307  11.280  18.030  0.00  0.00    +0.000 NA
ATOM     16  C   UNL     1      -3.538  11.707  18.426  0.00  0.00    +0.000 A 
ENDROOT
BRANCH   6  17
ATOM     17  C   UNL     1      -6.469  13.513  23.773  0.00  0.00    +0.000 C 
ATOM     18  F   UNL     1      -5.845  14.690  24.047  0.00  0.00    +0.000 F 
ATOM     19  F   UNL     1      -7.762  13.674  24.172  0.00  0.00    +0.000 F 
ATOM     20  F   UNL     1      -5.931  12.596  24.625  0.00  0.00    +0.000 F 
ENDBRANCH   6  17
BRANCH   1  21
ATOM     21  S   UNL     1      -1.073  13.115  19.840  0.00  0.00    +0.000 S 
BRANCH  21  22
ATOM     22  C   UNL     1       0.171  12.839  21.141  0.00  0.00    +0.000 C 
BRANCH  22  23
ATOM     23  C   UNL     1       1.170  11.725  20.754  0.00  0.00    +0.000 C 
BRANCH  23  24
ATOM     24  N   UNL     1       0.587  10.551  20.023  0.00  0.00    +0.000 NA
BRANCH  24  26
ATOM     25  C   UNL     1       1.630   9.480  22.059  0.00  0.00    +0.000 C 
ATOM     26  C   UNL     1       0.686   9.300  20.844  0.00  0.00    +0.000 C 
ATOM     27  C   UNL     1      -0.634   8.773  21.431  0.00  0.00    +0.000 C 
ENDBRANCH  24  26
BRANCH  24  28
ATOM     28  C   UNL     1       1.107  10.485  18.618  0.00  0.00    +0.000 C 
ATOM     29  C   UNL     1       2.193  11.507  18.247  0.00  0.00    +0.000 C 
ATOM     30  C   UNL     1       1.734   9.108  18.286  0.00  0.00    +0.000 C 
ENDBRANCH  24  28
ENDBRANCH  23  24
ENDBRANCH  22  23
ENDBRANCH  21  22
ENDBRANCH   1  21
TORSDOF 7
ENDMDL
MODEL 7
REMARK VINA RESULT:      -6.1      3.353      5.307
REMARK  Name = 
REMARK  11 active torsions:
REMARK  status: ('A' for Active; 'I' for Inactive)
REMARK    1  A    between atoms: C_1  and  C_2
REMARK    2  A    between atoms: C_2  and  C_3
REMARK    3  A    between atoms: C_2  and  N_4
REMARK    4  A    between atoms: N_4  and  C_5
REMARK    5  A    between atoms: N_4  and  C_28
REMARK    6  A    between atoms: C_5  and  C_6
REMARK    7  A    between atoms: C_6  and  S_7
REMARK    8  A    between atoms: S_7  and  C_8
REMARK    9  A    between atoms: C_13  and  C_14
REMARK   10  A    between atoms: C_28  and  C_29
REMARK   11  A    between atoms: C_28  and  C_30
REMARK                            x       y       z     vdW  Elec       q    Type
REMARK                         _______ _______ _______ _____ _____    ______ ____
ROOT
ATOM      1  C   UNL     1      -2.497  12.367  20.499  0.00  0.00    +0.000 C 
ATOM      2  O   UNL     1      -2.432  12.097  21.694  0.00  0.00    +0.000 OA
ATOM      3  N   UNL     1      -3.670  12.259  19.707  0.00  0.00    +0.000 N 
ATOM      4  C   UNL     1      -4.984  12.516  20.287  0.00  0.00    +0.000 A 
ATOM      5  C   UNL     1      -5.117  12.968  21.626  0.00  0.00    +0.000 A 
ATOM      6  C   UNL     1      -6.363  13.227  22.242  0.00  0.00    +0.000 A 
ATOM      7  C   UNL     1      -7.526  13.054  21.501  0.00  0.00    +0.000 A 
ATOM      8  C   UNL     1      -7.436  12.651  20.175  0.00  0.00    +0.000 A 
ATOM      9  C   UNL     1      -6.187  12.398  19.567  0.00  0.00    +0.000 A 
ATOM     10  S   UNL     1      -6.300  12.008  17.849  0.00  0.00    +0.000 S 
ATOM     11  C   UNL     1      -4.629  11.620  17.481  0.00  0.00    +0.000 A 
ATOM     12  C   UNL     1      -4.392  11.161  16.171  0.00  0.00    +0.000 A 
ATOM     13  C   UNL     1      -3.118  10.799  15.769  0.00  0.00    +0.000 A 
ATOM     14  C   UNL     1      -2.125  10.862  16.713  0.00  0.00    +0.000 A 
ATOM     15  N   UNL     1      -2.335  11.273  17.981  0.00  0.00    +0.000 NA
ATOM     16  C   UNL     1      -3.560  11.721  18.369  0.00  0.00    +0.000 A 
ENDROOT
BRANCH   6  17
ATOM     17  C   UNL     1      -6.457  13.696  23.676  0.00  0.00    +0.000 C 
ATOM     18  F   UNL     1      -5.316  13.514  24.393  0.00  0.00    +0.000 F 
ATOM     19  F   UNL     1      -6.747  15.024  23.765  0.00  0.00    +0.000 F 
ATOM     20  F   UNL     1      -7.441  13.055  24.366  0.00  0.00    +0.000 F 
ENDBRANCH   6  17
BRANCH   1  21
ATOM     21  S   UNL     1      -1.079  13.146  19.735  0.00  0.00    +0.000 S 
BRANCH  21  22
ATOM     22  C   UNL     1       0.248  12.046  20.323  0.00  0.00    +0.000 C 
BRANCH  22  23
ATOM     23  C   UNL     1      -0.062  10.561  20.025  0.00  0.00    +0.000 C 
BRANCH  23  24
ATOM     24  N   UNL     1       1.096   9.615  20.147  0.00  0.00    +0.000 NA
BRANCH  24  26
ATOM     25  C   UNL     1       2.026   9.895  17.816  0.00  0.00    +0.000 C 
ATOM     26  C   UNL     1       1.377   8.933  18.842  0.00  0.00    +0.000 C 
ATOM     27  C   UNL     1       2.316   7.716  18.906  0.00  0.00    +0.000 C 
ENDBRANCH  24  26
BRANCH  24  28
ATOM     28  C   UNL     1       0.943   8.737  21.353  0.00  0.00    +0.000 C 
ATOM     29  C   UNL     1       1.539   9.273  22.665  0.00  0.00    +0.000 C 
ATOM     30  C   UNL     1      -0.543   8.449  21.687  0.00  0.00    +0.000 C 
ENDBRANCH  24  28
ENDBRANCH  23  24
ENDBRANCH  22  23
ENDBRANCH  21  22
ENDBRANCH   1  21
TORSDOF 7
ENDMDL
MODEL 8
REMARK VINA RESULT:      -6.1      4.095      6.409
REMARK  Name = 
REMARK  11 active torsions:
REMARK  status: ('A' for Active; 'I' for Inactive)
REMARK    1  A    between atoms: C_1  and  C_2
REMARK    2  A    between atoms: C_2  and  C_3
REMARK    3  A    between atoms: C_2  and  N_4
REMARK    4  A    between atoms: N_4  and  C_5
REMARK    5  A    between atoms: N_4  and  C_28
REMARK    6  A    between atoms: C_5  and  C_6
REMARK    7  A    between atoms: C_6  and  S_7
REMARK    8  A    between atoms: S_7  and  C_8
REMARK    9  A    between atoms: C_13  and  C_14
REMARK   10  A    between atoms: C_28  and  C_29
REMARK   11  A    between atoms: C_28  and  C_30
REMARK                            x       y       z     vdW  Elec       q    Type
REMARK                         _______ _______ _______ _____ _____    ______ ____
ROOT
ATOM      1  C   UNL     1      -1.248  12.305  19.875  0.00  0.00    +0.000 C 
ATOM      2  O   UNL     1      -0.747  12.019  20.957  0.00  0.00    +0.000 OA
ATOM      3  N   UNL     1      -2.637  12.259  19.588  0.00  0.00    +0.000 N 
ATOM      4  C   UNL     1      -3.620  12.569  20.621  0.00  0.00    +0.000 A 
ATOM      5  C   UNL     1      -3.214  13.011  21.907  0.00  0.00    +0.000 A 
ATOM      6  C   UNL     1      -4.119  13.319  22.949  0.00  0.00    +0.000 A 
ATOM      7  C   UNL     1      -5.483  13.208  22.706  0.00  0.00    +0.000 A 
ATOM      8  C   UNL     1      -5.922  12.815  21.448  0.00  0.00    +0.000 A 
ATOM      9  C   UNL     1      -5.010  12.513  20.413  0.00  0.00    +0.000 A 
ATOM     10  S   UNL     1      -5.784  12.147  18.869  0.00  0.00    +0.000 S 
ATOM     11  C   UNL     1      -4.398  11.688  17.898  0.00  0.00    +0.000 A 
ATOM     12  C   UNL     1      -4.697  11.232  16.599  0.00  0.00    +0.000 A 
ATOM     13  C   UNL     1      -3.689  10.818  15.745  0.00  0.00    +0.000 A 
ATOM     14  C   UNL     1      -2.411  10.826  16.242  0.00  0.00    +0.000 A 
ATOM     15  N   UNL     1      -2.104  11.232  17.492  0.00  0.00    +0.000 NA
ATOM     16  C   UNL     1      -3.069  11.731  18.313  0.00  0.00    +0.000 A 
ENDROOT
BRANCH   6  17
ATOM     17  C   UNL     1      -3.641  13.776  24.308  0.00  0.00    +0.000 C 
ATOM     18  F   UNL     1      -2.295  13.960  24.387  0.00  0.00    +0.000 F 
ATOM     19  F   UNL     1      -4.202  14.961  24.680  0.00  0.00    +0.000 F 
ATOM     20  F   UNL     1      -3.958  12.891  25.293  0.00  0.00    +0.000 F 
ENDBRANCH   6  17
BRANCH   1  21
ATOM     21  S   UNL     1      -0.192  13.027  18.624  0.00  0.00    +0.000 S 
BRANCH  21  22
ATOM     22  C   UNL     1       0.940  13.991  19.677  0.00  0.00    +0.000 C 
BRANCH  22  23
ATOM     23  C   UNL     1       0.537  15.482  19.738  0.00  0.00    +0.000 C 
BRANCH  23  24
ATOM     24  N   UNL     1       0.647  16.242  18.447  0.00  0.00    +0.000 NA
BRANCH  24  26
ATOM     25  C   UNL     1       2.416  17.389  19.839  0.00  0.00    +0.000 C 
ATOM     26  C   UNL     1       1.895  17.072  18.415  0.00  0.00    +0.000 C 
ATOM     27  C   UNL     1       3.094  16.458  17.672  0.00  0.00    +0.000 C 
ENDBRANCH  24  26
BRANCH  24  28
ATOM     28  C   UNL     1      -0.642  16.938  18.125  0.00  0.00    +0.000 C 
ATOM     29  C   UNL     1      -1.440  17.478  19.323  0.00  0.00    +0.000 C 
ATOM     30  C   UNL     1      -0.433  18.168  17.207  0.00  0.00    +0.000 C 
ENDBRANCH  24  28
ENDBRANCH  23  24
ENDBRANCH  22  23
ENDBRANCH  21  22
ENDBRANCH   1  21
TORSDOF 7
ENDMDL
MODEL 9
REMARK VINA RESULT:      -6.1      3.289      6.561
REMARK  Name = 
REMARK  11 active torsions:
REMARK  status: ('A' for Active; 'I' for Inactive)
REMARK    1  A    between atoms: C_1  and  C_2
REMARK    2  A    between atoms: C_2  and  C_3
REMARK    3  A    between atoms: C_2  and  N_4
REMARK    4  A    between atoms: N_4  and  C_5
REMARK    5  A    between atoms: N_4  and  C_28
REMARK    6  A    between atoms: C_5  and  C_6
REMARK    7  A    between atoms: C_6  and  S_7
REMARK    8  A    between atoms: S_7  and  C_8
REMARK    9  A    between atoms: C_13  and  C_14
REMARK   10  A    between atoms: C_28  and  C_29
REMARK   11  A    between atoms: C_28  and  C_30
REMARK                            x       y       z     vdW  Elec       q    Type
REMARK                         _______ _______ _______ _____ _____    ______ ____
ROOT
ATOM      1  C   UNL     1      -1.342  14.332  22.846  0.00  0.00    +0.000 C 
ATOM      2  O   UNL     1      -0.849  13.766  23.816  0.00  0.00    +0.000 OA
ATOM      3  N   UNL     1      -0.922  14.151  21.503  0.00  0.00    +0.000 N 
ATOM      4  C   UNL     1      -0.424  12.857  21.048  0.00  0.00    +0.000 A 
ATOM      5  C   UNL     1      -0.432  11.727  21.907  0.00  0.00    +0.000 A 
ATOM      6  C   UNL     1       0.045  10.452  21.525  0.00  0.00    +0.000 A 
ATOM      7  C   UNL     1       0.528  10.277  20.234  0.00  0.00    +0.000 A 
ATOM      8  C   UNL     1       0.517  11.348  19.350  0.00  0.00    +0.000 A 
ATOM      9  C   UNL     1       0.036  12.617  19.740  0.00  0.00    +0.000 A 
ATOM     10  S   UNL     1       0.008  13.800  18.429  0.00  0.00    +0.000 S 
ATOM     11  C   UNL     1      -0.483  15.246  19.291  0.00  0.00    +0.000 A 
ATOM     12  C   UNL     1      -0.508  16.427  18.523  0.00  0.00    +0.000 A 
ATOM     13  C   UNL     1      -0.856  17.637  19.097  0.00  0.00    +0.000 A 
ATOM     14  C   UNL     1      -1.121  17.635  20.442  0.00  0.00    +0.000 A 
ATOM     15  N   UNL     1      -1.077  16.521  21.203  0.00  0.00    +0.000 NA
ATOM     16  C   UNL     1      -0.829  15.308  20.640  0.00  0.00    +0.000 A 
ENDROOT
BRANCH   6  17
ATOM     17  C   UNL     1       0.027   9.279  22.478  0.00  0.00    +0.000 C 
ATOM     18  F   UNL     1      -0.393   9.593  23.733  0.00  0.00    +0.000 F 
ATOM     19  F   UNL     1      -0.792   8.279  22.049  0.00  0.00    +0.000 F 
ATOM     20  F   UNL     1       1.258   8.713  22.624  0.00  0.00    +0.000 F 
ENDBRANCH   6  17
BRANCH   1  21
ATOM     21  S   UNL     1      -2.826  15.298  23.102  0.00  0.00    +0.000 S 
BRANCH  21  22
ATOM     22  C   UNL     1      -3.635  14.307  24.399  0.00  0.00    +0.000 C 
BRANCH  22  23
ATOM     23  C   UNL     1      -4.594  13.252  23.800  0.00  0.00    +0.000 C 
BRANCH  23  24
ATOM     24  N   UNL     1      -5.286  13.646  22.528  0.00  0.00    +0.000 NA
BRANCH  24  26
ATOM     25  C   UNL     1      -7.282  13.500  24.069  0.00  0.00    +0.000 C 
ATOM     26  C   UNL     1      -6.673  14.146  22.800  0.00  0.00    +0.000 C 
ATOM     27  C   UNL     1      -6.812  15.664  23.011  0.00  0.00    +0.000 C 
ENDBRANCH  24  26
BRANCH  24  28
ATOM     28  C   UNL     1      -5.141  12.575  21.488  0.00  0.00    +0.000 C 
ATOM     29  C   UNL     1      -6.430  12.147  20.769  0.00  0.00    +0.000 C 
ATOM     30  C   UNL     1      -4.176  12.988  20.348  0.00  0.00    +0.000 C 
ENDBRANCH  24  28
ENDBRANCH  23  24
ENDBRANCH  22  23
ENDBRANCH  21  22
ENDBRANCH   1  21
TORSDOF 7
ENDMDL
