MODEL 1
REMARK VINA RESULT:      -7.6      0.000      0.000
REMARK  Name = 
REMARK  11 active torsions:
REMARK  status: ('A' for Active; 'I' for Inactive)
REMARK    1  A    between atoms: C_1  and  C_2
REMARK    2  A    between atoms: C_2  and  N_3
REMARK    3  A    between atoms: C_4  and  C_5
REMARK    4  A    between atoms: C_5  and  O_6
REMARK    5  A    between atoms: O_6  and  C_7
REMARK    6  A    between atoms: C_10  and  O_11
REMARK    7  A    between atoms: O_11  and  C_12
REMARK    8  A    between atoms: C_17  and  S_18
REMARK    9  A    between atoms: S_18  and  C_19
REMARK   10  A    between atoms: C_19  and  C_20
REMARK   11  A    between atoms: C_22  and  O_23
REMARK                            x       y       z     vdW  Elec       q    Type
REMARK                         _______ _______ _______ _____ _____    ______ ____
ROOT
ATOM      1  N   UNL     1       3.117   3.418  18.745  0.00  0.00    +0.000 N 
ATOM      2  C   UNL     1       3.336   3.277  17.386  0.00  0.00    +0.000 A 
ATOM      3  N   UNL     1       2.182   3.436  16.763  0.00  0.00    +0.000 NA
ATOM      4  N   UNL     1       1.203   3.669  17.702  0.00  0.00    +0.000 NA
ATOM      5  C   UNL     1       1.768   3.647  18.885  0.00  0.00    +0.000 A 
ENDROOT
BRANCH   1   7
ATOM      6  C   UNL     1       4.540   1.868  20.065  0.00  0.00    +0.000 C 
ATOM      7  C   UNL     1       4.117   3.304  19.786  0.00  0.00    +0.000 C 
ENDBRANCH   1   7
BRANCH   2   8
ATOM      8  C   UNL     1       4.665   3.064  16.721  0.00  0.00    +0.000 C 
BRANCH   8   9
ATOM      9  O   UNL     1       5.069   4.302  16.128  0.00  0.00    +0.000 OA
BRANCH   9  10
ATOM     10  C   UNL     1       5.936   5.076  16.856  0.00  0.00    +0.000 A 
ATOM     11  C   UNL     1       5.852   6.449  16.610  0.00  0.00    +0.000 A 
ATOM     12  C   UNL     1       6.715   7.342  17.254  0.00  0.00    +0.000 A 
ATOM     13  C   UNL     1       7.648   6.888  18.184  0.00  0.00    +0.000 A 
ATOM     14  C   UNL     1       7.708   5.524  18.469  0.00  0.00    +0.000 A 
ATOM     15  C   UNL     1       6.853   4.621  17.808  0.00  0.00    +0.000 A 
BRANCH  13  16
ATOM     16  O   UNL     1       8.466   7.854  18.699  0.00  0.00    +0.000 OA
ATOM     17  C   UNL     1       8.396   9.143  18.103  0.00  0.00    +0.000 C 
ENDBRANCH  13  16
ENDBRANCH   9  10
ENDBRANCH   8   9
ENDBRANCH   2   8
BRANCH   5  18
ATOM     18  S   UNL     1       0.983   3.948  20.401  0.00  0.00    +0.000 S 
BRANCH  18  19
ATOM     19  C   UNL     1       2.011   5.271  21.148  0.00  0.00    +0.000 C 
BRANCH  19  20
ATOM     20  C   UNL     1       1.950   6.633  20.476  0.00  0.00    +0.000 A 
ATOM     21  N   UNL     1       2.506   6.773  19.258  0.00  0.00    +0.000 NA
ATOM     22  C   UNL     1       2.253   7.930  18.645  0.00  0.00    +0.000 A 
ATOM     23  C   UNL     1       1.492   8.967  19.139  0.00  0.00    +0.000 A 
ATOM     24  C   UNL     1       1.169  10.134  18.409  0.00  0.00    +0.000 A 
ATOM     25  C   UNL     1       0.463  11.166  19.011  0.00  0.00    +0.000 A 
ATOM     26  C   UNL     1       0.108  11.045  20.349  0.00  0.00    +0.000 A 
ATOM     27  C   UNL     1       0.403   9.865  21.050  0.00  0.00    +0.000 A 
ATOM     28  C   UNL     1       1.062   8.787  20.454  0.00  0.00    +0.000 A 
ATOM     29  N   UNL     1       1.276   7.624  21.114  0.00  0.00    +0.000 NA
BRANCH  22  30
ATOM     30  O   UNL     1       2.897   8.027  17.452  0.00  0.00    +0.000 OA
ATOM     31  H   UNL     1       3.400   8.848  17.609  0.00  0.00    +0.000 HD
ENDBRANCH  22  30
ENDBRANCH  19  20
ENDBRANCH  18  19
ENDBRANCH   5  18
TORSDOF 9
ENDMDL
MODEL 2
REMARK VINA RESULT:      -7.5      2.425      7.204
REMARK  Name = 
REMARK  11 active torsions:
REMARK  status: ('A' for Active; 'I' for Inactive)
REMARK    1  A    between atoms: C_1  and  C_2
REMARK    2  A    between atoms: C_2  and  N_3
REMARK    3  A    between atoms: C_4  and  C_5
REMARK    4  A    between atoms: C_5  and  O_6
REMARK    5  A    between atoms: O_6  and  C_7
REMARK    6  A    between atoms: C_10  and  O_11
REMARK    7  A    between atoms: O_11  and  C_12
REMARK    8  A    between atoms: C_17  and  S_18
REMARK    9  A    between atoms: S_18  and  C_19
REMARK   10  A    between atoms: C_19  and  C_20
REMARK   11  A    between atoms: C_22  and  O_23
REMARK                            x       y       z     vdW  Elec       q    Type
REMARK                         _______ _______ _______ _____ _____    ______ ____
ROOT
ATOM      1  N   UNL     1       1.739   5.240  19.728  0.00  0.00    +0.000 N 
ATOM      2  C   UNL     1       1.920   6.607  19.837  0.00  0.00    +0.000 A 
ATOM      3  N   UNL     1       2.451   7.045  18.710  0.00  0.00    +0.000 NA
ATOM      4  N   UNL     1       2.631   5.975  17.863  0.00  0.00    +0.000 NA
ATOM      5  C   UNL     1       2.213   4.898  18.482  0.00  0.00    +0.000 A 
ENDROOT
BRANCH   1   7
ATOM      6  C   UNL     1       2.254   3.535  21.460  0.00  0.00    +0.000 C 
ATOM      7  C   UNL     1       1.195   4.367  20.747  0.00  0.00    +0.000 C 
ENDBRANCH   1   7
BRANCH   2   8
ATOM      8  C   UNL     1       1.510   7.464  21.000  0.00  0.00    +0.000 C 
BRANCH   8   9
ATOM      9  O   UNL     1       1.629   8.834  20.606  0.00  0.00    +0.000 OA
BRANCH   9  10
ATOM     10  C   UNL     1       0.828   9.733  21.264  0.00  0.00    +0.000 A 
ATOM     11  C   UNL     1       0.138   9.217  22.363  0.00  0.00    +0.000 A 
ATOM     12  C   UNL     1      -0.748  10.019  23.090  0.00  0.00    +0.000 A 
ATOM     13  C   UNL     1      -0.929  11.361  22.760  0.00  0.00    +0.000 A 
ATOM     14  C   UNL     1      -0.210  11.897  21.692  0.00  0.00    +0.000 A 
ATOM     15  C   UNL     1       0.668  11.085  20.948  0.00  0.00    +0.000 A 
BRANCH  13  16
ATOM     16  O   UNL     1      -1.862  12.018  23.512  0.00  0.00    +0.000 OA
ATOM     17  C   UNL     1      -3.112  12.294  22.894  0.00  0.00    +0.000 C 
ENDBRANCH  13  16
ENDBRANCH   9  10
ENDBRANCH   8   9
ENDBRANCH   2   8
BRANCH   5  18
ATOM     18  S   UNL     1       2.164   3.293  17.828  0.00  0.00    +0.000 S 
BRANCH  18  19
ATOM     19  C   UNL     1       3.924   2.773  17.866  0.00  0.00    +0.000 C 
BRANCH  19  20
ATOM     20  C   UNL     1       4.953   3.850  17.562  0.00  0.00    +0.000 A 
ATOM     21  N   UNL     1       4.940   4.425  16.345  0.00  0.00    +0.000 NA
ATOM     22  C   UNL     1       5.734   5.486  16.207  0.00  0.00    +0.000 A 
ATOM     23  C   UNL     1       6.547   6.030  17.178  0.00  0.00    +0.000 A 
ATOM     24  C   UNL     1       7.296   7.218  17.014  0.00  0.00    +0.000 A 
ATOM     25  C   UNL     1       8.150   7.653  18.017  0.00  0.00    +0.000 A 
ATOM     26  C   UNL     1       8.280   6.886  19.168  0.00  0.00    +0.000 A 
ATOM     27  C   UNL     1       7.501   5.729  19.333  0.00  0.00    +0.000 A 
ATOM     28  C   UNL     1       6.591   5.298  18.364  0.00  0.00    +0.000 A 
ATOM     29  N   UNL     1       5.790   4.224  18.562  0.00  0.00    +0.000 NA
BRANCH  22  30
ATOM     30  O   UNL     1       5.720   5.974  14.938  0.00  0.00    +0.000 OA
ATOM     31  H   UNL     1       5.028   5.404  14.555  0.00  0.00    +0.000 HD
ENDBRANCH  22  30
ENDBRANCH  19  20
ENDBRANCH  18  19
ENDBRANCH   5  18
TORSDOF 9
ENDMDL
MODEL 3
REMARK VINA RESULT:      -7.4      2.813      4.250
REMARK  Name = 
REMARK  11 active torsions:
REMARK  status: ('A' for Active; 'I' for Inactive)
REMARK    1  A    between atoms: C_1  and  C_2
REMARK    2  A    between atoms: C_2  and  N_3
REMARK    3  A    between atoms: C_4  and  C_5
REMARK    4  A    between atoms: C_5  and  O_6
REMARK    5  A    between atoms: O_6  and  C_7
REMARK    6  A    between atoms: C_10  and  O_11
REMARK    7  A    between atoms: O_11  and  C_12
REMARK    8  A    between atoms: C_17  and  S_18
REMARK    9  A    between atoms: S_18  and  C_19
REMARK   10  A    between atoms: C_19  and  C_20
REMARK   11  A    between atoms: C_22  and  O_23
REMARK                            x       y       z     vdW  Elec       q    Type
REMARK                         _______ _______ _______ _____ _____    ______ ____
ROOT
ATOM      1  N   UNL     1       4.634   5.064  17.613  0.00  0.00    +0.000 N 
ATOM      2  C   UNL     1       5.741   5.682  17.057  0.00  0.00    +0.000 A 
ATOM      3  N   UNL     1       5.479   6.972  16.943  0.00  0.00    +0.000 NA
ATOM      4  N   UNL     1       4.204   7.205  17.407  0.00  0.00    +0.000 NA
ATOM      5  C   UNL     1       3.702   6.059  17.796  0.00  0.00    +0.000 A 
ENDROOT
BRANCH   1   7
ATOM      6  C   UNL     1       4.679   3.308  19.369  0.00  0.00    +0.000 C 
ATOM      7  C   UNL     1       4.500   3.650  17.896  0.00  0.00    +0.000 C 
ENDBRANCH   1   7
BRANCH   2   8
ATOM      8  C   UNL     1       7.047   5.023  16.720  0.00  0.00    +0.000 C 
BRANCH   8   9
ATOM      9  O   UNL     1       7.480   5.519  15.450  0.00  0.00    +0.000 OA
BRANCH   9  10
ATOM     10  C   UNL     1       6.978   4.884  14.341  0.00  0.00    +0.000 A 
ATOM     11  C   UNL     1       5.755   4.238  14.532  0.00  0.00    +0.000 A 
ATOM     12  C   UNL     1       5.161   3.514  13.492  0.00  0.00    +0.000 A 
ATOM     13  C   UNL     1       5.755   3.458  12.232  0.00  0.00    +0.000 A 
ATOM     14  C   UNL     1       6.953   4.139  12.020  0.00  0.00    +0.000 A 
ATOM     15  C   UNL     1       7.562   4.852  13.071  0.00  0.00    +0.000 A 
BRANCH  13  16
ATOM     16  O   UNL     1       5.102   2.674  11.322  0.00  0.00    +0.000 OA
ATOM     17  C   UNL     1       3.773   3.048  10.985  0.00  0.00    +0.000 C 
ENDBRANCH  13  16
ENDBRANCH   9  10
ENDBRANCH   8   9
ENDBRANCH   2   8
BRANCH   5  18
ATOM     18  S   UNL     1       2.146   5.814  18.520  0.00  0.00    +0.000 S 
BRANCH  18  19
ATOM     19  C   UNL     1       2.312   6.633  20.154  0.00  0.00    +0.000 C 
BRANCH  19  20
ATOM     20  C   UNL     1       1.650   7.993  20.298  0.00  0.00    +0.000 A 
ATOM     21  N   UNL     1       1.563   8.783  19.210  0.00  0.00    +0.000 NA
ATOM     22  C   UNL     1       0.807   9.871  19.355  0.00  0.00    +0.000 A 
ATOM     23  C   UNL     1       0.127  10.249  20.493  0.00  0.00    +0.000 A 
ATOM     24  C   UNL     1      -0.743  11.360  20.568  0.00  0.00    +0.000 A 
ATOM     25  C   UNL     1      -1.327  11.715  21.775  0.00  0.00    +0.000 A 
ATOM     26  C   UNL     1      -1.017  10.980  22.913  0.00  0.00    +0.000 A 
ATOM     27  C   UNL     1      -0.181   9.856  22.816  0.00  0.00    +0.000 A 
ATOM     28  C   UNL     1       0.375   9.442  21.604  0.00  0.00    +0.000 A 
ATOM     29  N   UNL     1       1.119   8.314  21.505  0.00  0.00    +0.000 NA
BRANCH  22  30
ATOM     30  O   UNL     1       0.817  10.652  18.243  0.00  0.00    +0.000 OA
ATOM     31  H   UNL     1      -0.135  10.852  18.179  0.00  0.00    +0.000 HD
ENDBRANCH  22  30
ENDBRANCH  19  20
ENDBRANCH  18  19
ENDBRANCH   5  18
TORSDOF 9
ENDMDL
MODEL 4
REMARK VINA RESULT:      -7.4      2.390      7.056
REMARK  Name = 
REMARK  11 active torsions:
REMARK  status: ('A' for Active; 'I' for Inactive)
REMARK    1  A    between atoms: C_1  and  C_2
REMARK    2  A    between atoms: C_2  and  N_3
REMARK    3  A    between atoms: C_4  and  C_5
REMARK    4  A    between atoms: C_5  and  O_6
REMARK    5  A    between atoms: O_6  and  C_7
REMARK    6  A    between atoms: C_10  and  O_11
REMARK    7  A    between atoms: O_11  and  C_12
REMARK    8  A    between atoms: C_17  and  S_18
REMARK    9  A    between atoms: S_18  and  C_19
REMARK   10  A    between atoms: C_19  and  C_20
REMARK   11  A    between atoms: C_22  and  O_23
REMARK                            x       y       z     vdW  Elec       q    Type
REMARK                         _______ _______ _______ _____ _____    ______ ____
ROOT
ATOM      1  N   UNL     1       2.014   5.505  19.128  0.00  0.00    +0.000 N 
ATOM      2  C   UNL     1       1.894   5.889  20.452  0.00  0.00    +0.000 A 
ATOM      3  N   UNL     1       1.957   4.805  21.204  0.00  0.00    +0.000 NA
ATOM      4  N   UNL     1       2.106   3.709  20.384  0.00  0.00    +0.000 NA
ATOM      5  C   UNL     1       2.129   4.134  19.145  0.00  0.00    +0.000 A 
ENDROOT
BRANCH   1   7
ATOM      6  C   UNL     1       3.046   7.476  18.023  0.00  0.00    +0.000 C 
ATOM      7  C   UNL     1       1.984   6.385  17.979  0.00  0.00    +0.000 C 
ENDBRANCH   1   7
BRANCH   2   8
ATOM      8  C   UNL     1       1.794   7.299  20.959  0.00  0.00    +0.000 C 
BRANCH   8   9
ATOM      9  O   UNL     1       0.418   7.572  21.242  0.00  0.00    +0.000 OA
BRANCH   9  10
ATOM     10  C   UNL     1       0.106   8.867  21.571  0.00  0.00    +0.000 A 
ATOM     11  C   UNL     1       0.428   9.818  20.601  0.00  0.00    +0.000 A 
ATOM     12  C   UNL     1       0.203  11.179  20.833  0.00  0.00    +0.000 A 
ATOM     13  C   UNL     1      -0.385  11.612  22.021  0.00  0.00    +0.000 A 
ATOM     14  C   UNL     1      -0.751  10.665  22.977  0.00  0.00    +0.000 A 
ATOM     15  C   UNL     1      -0.508   9.296  22.752  0.00  0.00    +0.000 A 
BRANCH  13  16
ATOM     16  O   UNL     1      -0.498  12.968  22.147  0.00  0.00    +0.000 OA
ATOM     17  C   UNL     1      -1.297  13.453  23.218  0.00  0.00    +0.000 C 
ENDBRANCH  13  16
ENDBRANCH   9  10
ENDBRANCH   8   9
ENDBRANCH   2   8
BRANCH   5  18
ATOM     18  S   UNL     1       2.361   3.159  17.731  0.00  0.00    +0.000 S 
BRANCH  18  19
ATOM     19  C   UNL     1       4.166   2.824  17.746  0.00  0.00    +0.000 C 
BRANCH  19  20
ATOM     20  C   UNL     1       5.074   4.009  17.464  0.00  0.00    +0.000 A 
ATOM     21  N   UNL     1       4.855   4.736  16.351  0.00  0.00    +0.000 NA
ATOM     22  C   UNL     1       5.556   5.866  16.261  0.00  0.00    +0.000 A 
ATOM     23  C   UNL     1       6.463   6.341  17.184  0.00  0.00    +0.000 A 
ATOM     24  C   UNL     1       7.108   7.596  17.092  0.00  0.00    +0.000 A 
ATOM     25  C   UNL     1       8.067   7.963  18.025  0.00  0.00    +0.000 A 
ATOM     26  C   UNL     1       8.404   7.065  19.030  0.00  0.00    +0.000 A 
ATOM     27  C   UNL     1       7.728   5.837  19.131  0.00  0.00    +0.000 A 
ATOM     28  C   UNL     1       6.719   5.466  18.240  0.00  0.00    +0.000 A 
ATOM     29  N   UNL     1       6.020   4.315  18.388  0.00  0.00    +0.000 NA
BRANCH  22  30
ATOM     30  O   UNL     1       5.334   6.513  15.086  0.00  0.00    +0.000 OA
ATOM     31  H   UNL     1       5.770   5.889  14.476  0.00  0.00    +0.000 HD
ENDBRANCH  22  30
ENDBRANCH  19  20
ENDBRANCH  18  19
ENDBRANCH   5  18
TORSDOF 9
ENDMDL
MODEL 5
REMARK VINA RESULT:      -7.4      1.229      1.838
REMARK  Name = 
REMARK  11 active torsions:
REMARK  status: ('A' for Active; 'I' for Inactive)
REMARK    1  A    between atoms: C_1  and  C_2
REMARK    2  A    between atoms: C_2  and  N_3
REMARK    3  A    between atoms: C_4  and  C_5
REMARK    4  A    between atoms: C_5  and  O_6
REMARK    5  A    between atoms: O_6  and  C_7
REMARK    6  A    between atoms: C_10  and  O_11
REMARK    7  A    between atoms: O_11  and  C_12
REMARK    8  A    between atoms: C_17  and  S_18
REMARK    9  A    between atoms: S_18  and  C_19
REMARK   10  A    between atoms: C_19  and  C_20
REMARK   11  A    between atoms: C_22  and  O_23
REMARK                            x       y       z     vdW  Elec       q    Type
REMARK                         _______ _______ _______ _____ _____    ______ ____
ROOT
ATOM      1  N   UNL     1       3.178   3.885  18.676  0.00  0.00    +0.000 N 
ATOM      2  C   UNL     1       3.247   3.400  17.383  0.00  0.00    +0.000 A 
ATOM      3  N   UNL     1       2.090   3.634  16.791  0.00  0.00    +0.000 NA
ATOM      4  N   UNL     1       1.255   4.259  17.689  0.00  0.00    +0.000 NA
ATOM      5  C   UNL     1       1.909   4.397  18.817  0.00  0.00    +0.000 A 
ENDROOT
BRANCH   1   7
ATOM      6  C   UNL     1       4.395   2.437  20.286  0.00  0.00    +0.000 C 
ATOM      7  C   UNL     1       4.230   3.820  19.669  0.00  0.00    +0.000 C 
ENDBRANCH   1   7
BRANCH   2   8
ATOM      8  C   UNL     1       4.453   2.788  16.731  0.00  0.00    +0.000 C 
BRANCH   8   9
ATOM      9  O   UNL     1       5.012   3.754  15.835  0.00  0.00    +0.000 OA
BRANCH   9  10
ATOM     10  C   UNL     1       5.726   4.777  16.405  0.00  0.00    +0.000 A 
ATOM     11  C   UNL     1       6.853   4.381  17.129  0.00  0.00    +0.000 A 
ATOM     12  C   UNL     1       7.639   5.326  17.798  0.00  0.00    +0.000 A 
ATOM     13  C   UNL     1       7.340   6.685  17.721  0.00  0.00    +0.000 A 
ATOM     14  C   UNL     1       6.243   7.093  16.963  0.00  0.00    +0.000 A 
ATOM     15  C   UNL     1       5.440   6.142  16.305  0.00  0.00    +0.000 A 
BRANCH  13  16
ATOM     16  O   UNL     1       8.152   7.496  18.464  0.00  0.00    +0.000 OA
ATOM     17  C   UNL     1       8.242   8.858  18.067  0.00  0.00    +0.000 C 
ENDBRANCH  13  16
ENDBRANCH   9  10
ENDBRANCH   8   9
ENDBRANCH   2   8
BRANCH   5  18
ATOM     18  S   UNL     1       1.327   5.181  20.249  0.00  0.00    +0.000 S 
BRANCH  18  19
ATOM     19  C   UNL     1       2.379   6.680  20.362  0.00  0.00    +0.000 C 
BRANCH  19  20
ATOM     20  C   UNL     1       1.649   8.011  20.454  0.00  0.00    +0.000 A 
ATOM     21  N   UNL     1       1.500   8.740  19.332  0.00  0.00    +0.000 NA
ATOM     22  C   UNL     1       0.692   9.794  19.440  0.00  0.00    +0.000 A 
ATOM     23  C   UNL     1       0.014  10.192  20.573  0.00  0.00    +0.000 A 
ATOM     24  C   UNL     1      -0.911  11.260  20.612  0.00  0.00    +0.000 A 
ATOM     25  C   UNL     1      -1.490  11.644  21.813  0.00  0.00    +0.000 A 
ATOM     26  C   UNL     1      -1.121  10.982  22.978  0.00  0.00    +0.000 A 
ATOM     27  C   UNL     1      -0.229   9.899  22.918  0.00  0.00    +0.000 A 
ATOM     28  C   UNL     1       0.325   9.454  21.715  0.00  0.00    +0.000 A 
ATOM     29  N   UNL     1       1.125   8.363  21.656  0.00  0.00    +0.000 NA
BRANCH  22  30
ATOM     30  O   UNL     1       0.640  10.519  18.291  0.00  0.00    +0.000 OA
ATOM     31  H   UNL     1       1.595  10.614  18.119  0.00  0.00    +0.000 HD
ENDBRANCH  22  30
ENDBRANCH  19  20
ENDBRANCH  18  19
ENDBRANCH   5  18
TORSDOF 9
ENDMDL
MODEL 6
REMARK VINA RESULT:      -7.3      2.400      4.123
REMARK  Name = 
REMARK  11 active torsions:
REMARK  status: ('A' for Active; 'I' for Inactive)
REMARK    1  A    between atoms: C_1  and  C_2
REMARK    2  A    between atoms: C_2  and  N_3
REMARK    3  A    between atoms: C_4  and  C_5
REMARK    4  A    between atoms: C_5  and  O_6
REMARK    5  A    between atoms: O_6  and  C_7
REMARK    6  A    between atoms: C_10  and  O_11
REMARK    7  A    between atoms: O_11  and  C_12
REMARK    8  A    between atoms: C_17  and  S_18
REMARK    9  A    between atoms: S_18  and  C_19
REMARK   10  A    between atoms: C_19  and  C_20
REMARK   11  A    between atoms: C_22  and  O_23
REMARK                            x       y       z     vdW  Elec       q    Type
REMARK                         _______ _______ _______ _____ _____    ______ ____
ROOT
ATOM      1  N   UNL     1       5.880   6.114  17.926  0.00  0.00    +0.000 N 
ATOM      2  C   UNL     1       7.114   6.389  18.488  0.00  0.00    +0.000 A 
ATOM      3  N   UNL     1       7.249   5.646  19.572  0.00  0.00    +0.000 NA
ATOM      4  N   UNL     1       6.108   4.893  19.734  0.00  0.00    +0.000 NA
ATOM      5  C   UNL     1       5.291   5.184  18.751  0.00  0.00    +0.000 A 
ENDROOT
BRANCH   1   7
ATOM      6  C   UNL     1       5.530   5.881  15.478  0.00  0.00    +0.000 C 
ATOM      7  C   UNL     1       5.333   6.722  16.731  0.00  0.00    +0.000 C 
ENDBRANCH   1   7
BRANCH   2   8
ATOM      8  C   UNL     1       8.158   7.308  17.924  0.00  0.00    +0.000 C 
BRANCH   8   9
ATOM      9  O   UNL     1       7.571   8.603  17.765  0.00  0.00    +0.000 OA
BRANCH   9  10
ATOM     10  C   UNL     1       8.318   9.672  18.191  0.00  0.00    +0.000 A 
ATOM     11  C   UNL     1       8.070  10.872  17.521  0.00  0.00    +0.000 A 
ATOM     12  C   UNL     1       8.800  12.025  17.828  0.00  0.00    +0.000 A 
ATOM     13  C   UNL     1       9.761  12.012  18.838  0.00  0.00    +0.000 A 
ATOM     14  C   UNL     1       9.983  10.830  19.543  0.00  0.00    +0.000 A 
ATOM     15  C   UNL     1       9.262   9.664  19.221  0.00  0.00    +0.000 A 
BRANCH  13  16
ATOM     16  O   UNL     1      10.440  13.187  19.002  0.00  0.00    +0.000 OA
ATOM     17  C   UNL     1      10.020  14.291  18.211  0.00  0.00    +0.000 C 
ENDBRANCH  13  16
ENDBRANCH   9  10
ENDBRANCH   8   9
ENDBRANCH   2   8
BRANCH   5  18
ATOM     18  S   UNL     1       3.742   4.463  18.458  0.00  0.00    +0.000 S 
BRANCH  18  19
ATOM     19  C   UNL     1       2.716   5.102  19.839  0.00  0.00    +0.000 C 
BRANCH  19  20
ATOM     20  C   UNL     1       2.312   6.565  19.759  0.00  0.00    +0.000 A 
ATOM     21  N   UNL     1       2.494   7.218  18.596  0.00  0.00    +0.000 NA
ATOM     22  C   UNL     1       1.947   8.432  18.532  0.00  0.00    +0.000 A 
ATOM     23  C   UNL     1       1.231   9.060  19.529  0.00  0.00    +0.000 A 
ATOM     24  C   UNL     1       0.584  10.308  19.378  0.00  0.00    +0.000 A 
ATOM     25  C   UNL     1      -0.050  10.905  20.458  0.00  0.00    +0.000 A 
ATOM     26  C   UNL     1      -0.011  10.271  21.694  0.00  0.00    +0.000 A 
ATOM     27  C   UNL     1       0.603   9.014  21.820  0.00  0.00    +0.000 A 
ATOM     28  C   UNL     1       1.199   8.363  20.737  0.00  0.00    +0.000 A 
ATOM     29  N   UNL     1       1.723   7.119  20.849  0.00  0.00    +0.000 NA
BRANCH  22  30
ATOM     30  O   UNL     1       2.226   9.058  17.358  0.00  0.00    +0.000 OA
ATOM     31  H   UNL     1       2.040   8.327  16.740  0.00  0.00    +0.000 HD
ENDBRANCH  22  30
ENDBRANCH  19  20
ENDBRANCH  18  19
ENDBRANCH   5  18
TORSDOF 9
ENDMDL
MODEL 7
REMARK VINA RESULT:      -7.2      2.414      7.244
REMARK  Name = 
REMARK  11 active torsions:
REMARK  status: ('A' for Active; 'I' for Inactive)
REMARK    1  A    between atoms: C_1  and  C_2
REMARK    2  A    between atoms: C_2  and  N_3
REMARK    3  A    between atoms: C_4  and  C_5
REMARK    4  A    between atoms: C_5  and  O_6
REMARK    5  A    between atoms: O_6  and  C_7
REMARK    6  A    between atoms: C_10  and  O_11
REMARK    7  A    between atoms: O_11  and  C_12
REMARK    8  A    between atoms: C_17  and  S_18
REMARK    9  A    between atoms: S_18  and  C_19
REMARK   10  A    between atoms: C_19  and  C_20
REMARK   11  A    between atoms: C_22  and  O_23
REMARK                            x       y       z     vdW  Elec       q    Type
REMARK                         _______ _______ _______ _____ _____    ______ ____
ROOT
ATOM      1  N   UNL     1       2.018   5.482  19.036  0.00  0.00    +0.000 N 
ATOM      2  C   UNL     1       1.852   6.076  20.274  0.00  0.00    +0.000 A 
ATOM      3  N   UNL     1       1.715   5.120  21.176  0.00  0.00    +0.000 NA
ATOM      4  N   UNL     1       1.779   3.901  20.538  0.00  0.00    +0.000 NA
ATOM      5  C   UNL     1       1.950   4.126  19.258  0.00  0.00    +0.000 A 
ENDROOT
BRANCH   1   7
ATOM      6  C   UNL     1       3.238   7.276  17.826  0.00  0.00    +0.000 C 
ATOM      7  C   UNL     1       2.189   6.173  17.775  0.00  0.00    +0.000 C 
ENDBRANCH   1   7
BRANCH   2   8
ATOM      8  C   UNL     1       1.901   7.548  20.563  0.00  0.00    +0.000 C 
BRANCH   8   9
ATOM      9  O   UNL     1       1.036   7.812  21.672  0.00  0.00    +0.000 OA
BRANCH   9  10
ATOM     10  C   UNL     1       0.379   9.016  21.663  0.00  0.00    +0.000 A 
ATOM     11  C   UNL     1      -0.105   9.435  22.905  0.00  0.00    +0.000 A 
ATOM     12  C   UNL     1      -0.835  10.623  23.022  0.00  0.00    +0.000 A 
ATOM     13  C   UNL     1      -1.059  11.435  21.911  0.00  0.00    +0.000 A 
ATOM     14  C   UNL     1      -0.540  11.047  20.676  0.00  0.00    +0.000 A 
ATOM     15  C   UNL     1       0.178   9.842  20.553  0.00  0.00    +0.000 A 
BRANCH  13  16
ATOM     16  O   UNL     1      -1.832  12.537  22.149  0.00  0.00    +0.000 OA
ATOM     17  C   UNL     1      -3.062  12.328  22.829  0.00  0.00    +0.000 C 
ENDBRANCH  13  16
ENDBRANCH   9  10
ENDBRANCH   8   9
ENDBRANCH   2   8
BRANCH   5  18
ATOM     18  S   UNL     1       2.155   2.925  18.026  0.00  0.00    +0.000 S 
BRANCH  18  19
ATOM     19  C   UNL     1       3.942   2.519  18.131  0.00  0.00    +0.000 C 
BRANCH  19  20
ATOM     20  C   UNL     1       4.908   3.610  17.699  0.00  0.00    +0.000 A 
ATOM     21  N   UNL     1       4.827   4.077  16.438  0.00  0.00    +0.000 NA
ATOM     22  C   UNL     1       5.565   5.157  16.181  0.00  0.00    +0.000 A 
ATOM     23  C   UNL     1       6.384   5.818  17.071  0.00  0.00    +0.000 A 
ATOM     24  C   UNL     1       7.070   7.019  16.779  0.00  0.00    +0.000 A 
ATOM     25  C   UNL     1       7.936   7.576  17.708  0.00  0.00    +0.000 A 
ATOM     26  C   UNL     1       8.141   6.918  18.915  0.00  0.00    +0.000 A 
ATOM     27  C   UNL     1       7.424   5.746  19.206  0.00  0.00    +0.000 A 
ATOM     28  C   UNL     1       6.503   5.193  18.313  0.00  0.00    +0.000 A 
ATOM     29  N   UNL     1       5.761   4.106  18.631  0.00  0.00    +0.000 NA
BRANCH  22  30
ATOM     30  O   UNL     1       5.485   5.532  14.877  0.00  0.00    +0.000 OA
ATOM     31  H   UNL     1       4.904   4.824  14.542  0.00  0.00    +0.000 HD
ENDBRANCH  22  30
ENDBRANCH  19  20
ENDBRANCH  18  19
ENDBRANCH   5  18
TORSDOF 9
ENDMDL
MODEL 8
REMARK VINA RESULT:      -7.2      3.164      4.804
REMARK  Name = 
REMARK  11 active torsions:
REMARK  status: ('A' for Active; 'I' for Inactive)
REMARK    1  A    between atoms: C_1  and  C_2
REMARK    2  A    between atoms: C_2  and  N_3
REMARK    3  A    between atoms: C_4  and  C_5
REMARK    4  A    between atoms: C_5  and  O_6
REMARK    5  A    between atoms: O_6  and  C_7
REMARK    6  A    between atoms: C_10  and  O_11
REMARK    7  A    between atoms: O_11  and  C_12
REMARK    8  A    between atoms: C_17  and  S_18
REMARK    9  A    between atoms: S_18  and  C_19
REMARK   10  A    between atoms: C_19  and  C_20
REMARK   11  A    between atoms: C_22  and  O_23
REMARK                            x       y       z     vdW  Elec       q    Type
REMARK                         _______ _______ _______ _____ _____    ______ ____
ROOT
ATOM      1  N   UNL     1       4.775   5.670  17.636  0.00  0.00    +0.000 N 
ATOM      2  C   UNL     1       5.924   6.013  16.944  0.00  0.00    +0.000 A 
ATOM      3  N   UNL     1       5.857   7.298  16.643  0.00  0.00    +0.000 NA
ATOM      4  N   UNL     1       4.667   7.800  17.120  0.00  0.00    +0.000 NA
ATOM      5  C   UNL     1       4.022   6.819  17.704  0.00  0.00    +0.000 A 
ENDROOT
BRANCH   1   7
ATOM      6  C   UNL     1       3.614   3.525  17.167  0.00  0.00    +0.000 C 
ATOM      7  C   UNL     1       4.444   4.353  18.139  0.00  0.00    +0.000 C 
ENDBRANCH   1   7
BRANCH   2   8
ATOM      8  C   UNL     1       7.087   5.109  16.657  0.00  0.00    +0.000 C 
BRANCH   8   9
ATOM      9  O   UNL     1       7.637   5.482  15.390  0.00  0.00    +0.000 OA
BRANCH   9  10
ATOM     10  C   UNL     1       7.159   4.813  14.292  0.00  0.00    +0.000 A 
ATOM     11  C   UNL     1       6.013   4.047  14.520  0.00  0.00    +0.000 A 
ATOM     12  C   UNL     1       5.453   3.279  13.493  0.00  0.00    +0.000 A 
ATOM     13  C   UNL     1       6.001   3.294  12.211  0.00  0.00    +0.000 A 
ATOM     14  C   UNL     1       7.117   4.092  11.964  0.00  0.00    +0.000 A 
ATOM     15  C   UNL     1       7.693   4.850  13.001  0.00  0.00    +0.000 A 
BRANCH  13  16
ATOM     16  O   UNL     1       5.394   2.459  11.316  0.00  0.00    +0.000 OA
ATOM     17  C   UNL     1       5.999   1.191  11.103  0.00  0.00    +0.000 C 
ENDBRANCH  13  16
ENDBRANCH   9  10
ENDBRANCH   8   9
ENDBRANCH   2   8
BRANCH   5  18
ATOM     18  S   UNL     1       2.499   6.939  18.523  0.00  0.00    +0.000 S 
BRANCH  18  19
ATOM     19  C   UNL     1       1.820   8.531  17.913  0.00  0.00    +0.000 C 
BRANCH  19  20
ATOM     20  C   UNL     1       1.209   9.449  18.959  0.00  0.00    +0.000 A 
ATOM     21  N   UNL     1       0.781  10.666  18.573  0.00  0.00    +0.000 NA
ATOM     22  C   UNL     1       0.086  11.343  19.487  0.00  0.00    +0.000 A 
ATOM     23  C   UNL     1      -0.224  10.914  20.760  0.00  0.00    +0.000 A 
ATOM     24  C   UNL     1      -1.050  11.626  21.660  0.00  0.00    +0.000 A 
ATOM     25  C   UNL     1      -1.247  11.160  22.951  0.00  0.00    +0.000 A 
ATOM     26  C   UNL     1      -0.594  10.001  23.354  0.00  0.00    +0.000 A 
ATOM     27  C   UNL     1       0.194   9.285  22.438  0.00  0.00    +0.000 A 
ATOM     28  C   UNL     1       0.364   9.700  21.115  0.00  0.00    +0.000 A 
ATOM     29  N   UNL     1       1.063   8.964  20.218  0.00  0.00    +0.000 NA
BRANCH  22  30
ATOM     30  O   UNL     1      -0.256  12.585  19.054  0.00  0.00    +0.000 OA
ATOM     31  H   UNL     1      -0.788  12.341  18.275  0.00  0.00    +0.000 HD
ENDBRANCH  22  30
ENDBRANCH  19  20
ENDBRANCH  18  19
ENDBRANCH   5  18
TORSDOF 9
ENDMDL
MODEL 9
REMARK VINA RESULT:      -7.1      3.089      4.330
REMARK  Name = 
REMARK  11 active torsions:
REMARK  status: ('A' for Active; 'I' for Inactive)
REMARK    1  A    between atoms: C_1  and  C_2
REMARK    2  A    between atoms: C_2  and  N_3
REMARK    3  A    between atoms: C_4  and  C_5
REMARK    4  A    between atoms: C_5  and  O_6
REMARK    5  A    between atoms: O_6  and  C_7
REMARK    6  A    between atoms: C_10  and  O_11
REMARK    7  A    between atoms: O_11  and  C_12
REMARK    8  A    between atoms: C_17  and  S_18
REMARK    9  A    between atoms: S_18  and  C_19
REMARK   10  A    between atoms: C_19  and  C_20
REMARK   11  A    between atoms: C_22  and  O_23
REMARK                            x       y       z     vdW  Elec       q    Type
REMARK                         _______ _______ _______ _____ _____    ______ ____
ROOT
ATOM      1  N   UNL     1       1.945   5.949  19.647  0.00  0.00    +0.000 N 
ATOM      2  C   UNL     1       2.619   5.548  18.507  0.00  0.00    +0.000 A 
ATOM      3  N   UNL     1       3.033   6.628  17.869  0.00  0.00    +0.000 NA
ATOM      4  N   UNL     1       2.625   7.738  18.574  0.00  0.00    +0.000 NA
ATOM      5  C   UNL     1       1.968   7.325  19.630  0.00  0.00    +0.000 A 
ENDROOT
BRANCH   1   7
ATOM      6  C   UNL     1       2.318   4.233  21.403  0.00  0.00    +0.000 C 
ATOM      7  C   UNL     1       1.321   5.078  20.620  0.00  0.00    +0.000 C 
ENDBRANCH   1   7
BRANCH   2   8
ATOM      8  C   UNL     1       2.908   4.131  18.103  0.00  0.00    +0.000 C 
BRANCH   8   9
ATOM      9  O   UNL     1       4.278   3.852  18.410  0.00  0.00    +0.000 OA
BRANCH   9  10
ATOM     10  C   UNL     1       5.212   4.309  17.516  0.00  0.00    +0.000 A 
ATOM     11  C   UNL     1       4.954   3.997  16.179  0.00  0.00    +0.000 A 
ATOM     12  C   UNL     1       5.854   4.365  15.173  0.00  0.00    +0.000 A 
ATOM     13  C   UNL     1       7.007   5.087  15.478  0.00  0.00    +0.000 A 
ATOM     14  C   UNL     1       7.250   5.442  16.805  0.00  0.00    +0.000 A 
ATOM     15  C   UNL     1       6.354   5.056  17.820  0.00  0.00    +0.000 A 
BRANCH  13  16
ATOM     16  O   UNL     1       7.829   5.336  14.415  0.00  0.00    +0.000 OA
ATOM     17  C   UNL     1       7.404   4.858  13.145  0.00  0.00    +0.000 C 
ENDBRANCH  13  16
ENDBRANCH   9  10
ENDBRANCH   8   9
ENDBRANCH   2   8
BRANCH   5  18
ATOM     18  S   UNL     1       1.299   8.325  20.878  0.00  0.00    +0.000 S 
BRANCH  18  19
ATOM     19  C   UNL     1       1.135   9.960  20.059  0.00  0.00    +0.000 C 
BRANCH  19  20
ATOM     20  C   UNL     1      -0.250  10.323  19.548  0.00  0.00    +0.000 A 
ATOM     21  N   UNL     1      -1.004  11.163  20.282  0.00  0.00    +0.000 NA
ATOM     22  C   UNL     1      -2.120  11.591  19.691  0.00  0.00    +0.000 A 
ATOM     23  C   UNL     1      -2.557  11.254  18.428  0.00  0.00    +0.000 A 
ATOM     24  C   UNL     1      -3.697  11.812  17.805  0.00  0.00    +0.000 A 
ATOM     25  C   UNL     1      -4.110  11.359  16.561  0.00  0.00    +0.000 A 
ATOM     26  C   UNL     1      -3.404  10.327  15.953  0.00  0.00    +0.000 A 
ATOM     27  C   UNL     1      -2.252   9.809  16.567  0.00  0.00    +0.000 A 
ATOM     28  C   UNL     1      -1.780  10.285  17.792  0.00  0.00    +0.000 A 
ATOM     29  N   UNL     1      -0.627   9.832  18.340  0.00  0.00    +0.000 NA
BRANCH  22  30
ATOM     30  O   UNL     1      -2.863  12.380  20.511  0.00  0.00    +0.000 OA
ATOM     31  H   UNL     1      -3.587  12.609  19.900  0.00  0.00    +0.000 HD
ENDBRANCH  22  30
ENDBRANCH  19  20
ENDBRANCH  18  19
ENDBRANCH   5  18
TORSDOF 9
ENDMDL
