MODEL 1
REMARK VINA RESULT:      -8.7      0.000      0.000
REMARK  Name = 
REMARK  8 active torsions:
REMARK  status: ('A' for Active; 'I' for Inactive)
REMARK    1  A    between atoms: C_1  and  C_2
REMARK    2  A    between atoms: C_2  and  C_4
REMARK    3  A    between atoms: C_7  and  N_8
REMARK    4  A    between atoms: C_9  and  C_11
REMARK    5  A    between atoms: C_11  and  N_12
REMARK    6  A    between atoms: N_12  and  C_13
REMARK    7  A    between atoms: N_12  and  S_14
REMARK    8  A    between atoms: S_14  and  C_17
REMARK                            x       y       z     vdW  Elec       q    Type
REMARK                         _______ _______ _______ _____ _____    ______ ____
ROOT
ATOM      1  N   UNL     1       2.495   2.664  20.178  0.00  0.00    +0.000 NA
ATOM      2  C   UNL     1       1.085   2.537  19.760  0.00  0.00    +0.000 C 
ENDROOT
BRANCH   1   3
ATOM      3  S   UNL     1       3.664   2.169  19.013  0.00  0.00    +0.000 S 
ATOM      4  O   UNL     1       4.590   1.268  19.644  0.00  0.00    +0.000 OA
ATOM      5  O   UNL     1       2.911   1.739  17.844  0.00  0.00    +0.000 OA
BRANCH   3   6
ATOM      6  C   UNL     1       4.560   3.633  18.518  0.00  0.00    +0.000 A 
ATOM      7  C   UNL     1       5.839   3.890  19.062  0.00  0.00    +0.000 A 
ATOM      8  C   UNL     1       6.619   4.891  18.489  0.00  0.00    +0.000 A 
ATOM      9  C   UNL     1       6.218   5.446  17.276  0.00  0.00    +0.000 A 
ATOM     10  C   UNL     1       4.917   5.318  16.837  0.00  0.00    +0.000 A 
ATOM     11  C   UNL     1       4.047   4.498  17.549  0.00  0.00    +0.000 A 
ATOM     12 CL   UNL     1       2.363   4.804  17.312  0.00  0.00    +0.000 Cl
ATOM     13  N   UNL     1       7.119   6.288  16.590  0.00  0.00    +0.000 N 
ATOM     14  C   UNL     1       7.572   7.292  17.429  0.00  0.00    +0.000 C 
ATOM     15  O   UNL     1       7.615   8.469  17.094  0.00  0.00    +0.000 OA
ATOM     16  C   UNL     1       7.992   6.757  18.812  0.00  0.00    +0.000 C 
ATOM     17  O   UNL     1       7.758   5.355  19.097  0.00  0.00    +0.000 OA
ATOM     18  H   UNL     1       7.954   5.718  16.434  0.00  0.00    +0.000 HD
ENDBRANCH   3   6
ENDBRANCH   1   3
BRANCH   1  19
ATOM     19  C   UNL     1       2.786   3.916  20.916  0.00  0.00    +0.000 C 
BRANCH  19  21
ATOM     20  N   UNL     1       2.653   6.278  20.273  0.00  0.00    +0.000 N 
ATOM     21  C   UNL     1       1.945   5.132  20.587  0.00  0.00    +0.000 C 
ATOM     22  O   UNL     1       0.718   5.025  20.612  0.00  0.00    +0.000 OA
ATOM     23  H   UNL     1       3.664   6.228  20.351  0.00  0.00    +0.000 HD
BRANCH  20  27
ATOM     24  C   UNL     1       0.944  10.008  19.175  0.00  0.00    +0.000 A 
ATOM     25  C   UNL     1       1.650   9.267  18.232  0.00  0.00    +0.000 A 
ATOM     26  C   UNL     1       2.218   8.039  18.584  0.00  0.00    +0.000 A 
ATOM     27  C   UNL     1       2.092   7.517  19.877  0.00  0.00    +0.000 A 
ATOM     28  C   UNL     1       1.381   8.265  20.823  0.00  0.00    +0.000 A 
ATOM     29  C   UNL     1       0.812   9.503  20.475  0.00  0.00    +0.000 A 
BRANCH  24  31
ATOM     30  C   UNL     1      -1.090  11.360  18.314  0.00  0.00    +0.000 C 
ATOM     31  C   UNL     1       0.332  11.325  18.827  0.00  0.00    +0.000 C 
ATOM     32  O   UNL     1       0.978  12.360  18.979  0.00  0.00    +0.000 OA
ENDBRANCH  24  31
ENDBRANCH  20  27
ENDBRANCH  19  21
ENDBRANCH   1  19
TORSDOF 6
ENDMDL
MODEL 2
REMARK VINA RESULT:      -8.5      4.262      7.479
REMARK  Name = 
REMARK  8 active torsions:
REMARK  status: ('A' for Active; 'I' for Inactive)
REMARK    1  A    between atoms: C_1  and  C_2
REMARK    2  A    between atoms: C_2  and  C_4
REMARK    3  A    between atoms: C_7  and  N_8
REMARK    4  A    between atoms: C_9  and  C_11
REMARK    5  A    between atoms: C_11  and  N_12
REMARK    6  A    between atoms: N_12  and  C_13
REMARK    7  A    between atoms: N_12  and  S_14
REMARK    8  A    between atoms: S_14  and  C_17
REMARK                            x       y       z     vdW  Elec       q    Type
REMARK                         _______ _______ _______ _____ _____    ______ ____
ROOT
ATOM      1  N   UNL     1       6.967   6.901  17.971  0.00  0.00    +0.000 NA
ATOM      2  C   UNL     1       5.852   7.193  17.048  0.00  0.00    +0.000 C 
ENDROOT
BRANCH   1   3
ATOM      3  S   UNL     1       7.165   5.244  18.397  0.00  0.00    +0.000 S 
ATOM      4  O   UNL     1       7.979   4.605  17.398  0.00  0.00    +0.000 OA
ATOM      5  O   UNL     1       7.582   5.232  19.791  0.00  0.00    +0.000 OA
BRANCH   3   6
ATOM      6  C   UNL     1       5.543   4.497  18.355  0.00  0.00    +0.000 A 
ATOM      7  C   UNL     1       4.807   4.351  19.553  0.00  0.00    +0.000 A 
ATOM      8  C   UNL     1       3.463   3.997  19.471  0.00  0.00    +0.000 A 
ATOM      9  C   UNL     1       2.835   4.020  18.229  0.00  0.00    +0.000 A 
ATOM     10  C   UNL     1       3.574   4.002  17.064  0.00  0.00    +0.000 A 
ATOM     11  C   UNL     1       4.958   4.113  17.147  0.00  0.00    +0.000 A 
ATOM     12 CL   UNL     1       5.841   3.535  15.779  0.00  0.00    +0.000 Cl
ATOM     13  N   UNL     1       1.431   3.885  18.180  0.00  0.00    +0.000 N 
ATOM     14  C   UNL     1       1.032   2.758  18.878  0.00  0.00    +0.000 C 
ATOM     15  O   UNL     1       0.228   1.950  18.432  0.00  0.00    +0.000 OA
ATOM     16  C   UNL     1       1.724   2.641  20.251  0.00  0.00    +0.000 C 
ATOM     17  O   UNL     1       2.749   3.611  20.578  0.00  0.00    +0.000 OA
ATOM     18  H   UNL     1       1.068   4.654  18.750  0.00  0.00    +0.000 HD
ENDBRANCH   3   6
ENDBRANCH   1   3
BRANCH   1  19
ATOM     19  C   UNL     1       8.205   7.658  17.668  0.00  0.00    +0.000 C 
BRANCH  19  21
ATOM     20  N   UNL     1       9.249   9.360  19.092  0.00  0.00    +0.000 N 
ATOM     21  C   UNL     1       8.277   9.095  18.144  0.00  0.00    +0.000 C 
ATOM     22  O   UNL     1       7.494   9.916  17.664  0.00  0.00    +0.000 OA
ATOM     23  H   UNL     1       9.783   8.567  19.435  0.00  0.00    +0.000 HD
BRANCH  20  27
ATOM     24  C   UNL     1      10.180  13.195  20.659  0.00  0.00    +0.000 A 
ATOM     25  C   UNL     1       9.459  12.290  21.432  0.00  0.00    +0.000 A 
ATOM     26  C   UNL     1       9.145  11.025  20.925  0.00  0.00    +0.000 A 
ATOM     27  C   UNL     1       9.546  10.630  19.643  0.00  0.00    +0.000 A 
ATOM     28  C   UNL     1      10.271  11.544  18.869  0.00  0.00    +0.000 A 
ATOM     29  C   UNL     1      10.584  12.818  19.373  0.00  0.00    +0.000 A 
BRANCH  24  31
ATOM     30  C   UNL     1      11.379  15.466  20.326  0.00  0.00    +0.000 C 
ATOM     31  C   UNL     1      10.522  14.555  21.175  0.00  0.00    +0.000 C 
ATOM     32  O   UNL     1      10.092  14.923  22.266  0.00  0.00    +0.000 OA
ENDBRANCH  24  31
ENDBRANCH  20  27
ENDBRANCH  19  21
ENDBRANCH   1  19
TORSDOF 6
ENDMDL
MODEL 3
REMARK VINA RESULT:      -8.5      4.231      7.373
REMARK  Name = 
REMARK  8 active torsions:
REMARK  status: ('A' for Active; 'I' for Inactive)
REMARK    1  A    between atoms: C_1  and  C_2
REMARK    2  A    between atoms: C_2  and  C_4
REMARK    3  A    between atoms: C_7  and  N_8
REMARK    4  A    between atoms: C_9  and  C_11
REMARK    5  A    between atoms: C_11  and  N_12
REMARK    6  A    between atoms: N_12  and  C_13
REMARK    7  A    between atoms: N_12  and  S_14
REMARK    8  A    between atoms: S_14  and  C_17
REMARK                            x       y       z     vdW  Elec       q    Type
REMARK                         _______ _______ _______ _____ _____    ______ ____
ROOT
ATOM      1  N   UNL     1       6.940   6.907  17.967  0.00  0.00    +0.000 NA
ATOM      2  C   UNL     1       5.895   7.115  16.944  0.00  0.00    +0.000 C 
ENDROOT
BRANCH   1   3
ATOM      3  S   UNL     1       7.107   5.292  18.542  0.00  0.00    +0.000 S 
ATOM      4  O   UNL     1       7.983   4.575  17.654  0.00  0.00    +0.000 OA
ATOM      5  O   UNL     1       7.433   5.398  19.956  0.00  0.00    +0.000 OA
BRANCH   3   6
ATOM      6  C   UNL     1       5.490   4.537  18.458  0.00  0.00    +0.000 A 
ATOM      7  C   UNL     1       4.728   4.378  19.637  0.00  0.00    +0.000 A 
ATOM      8  C   UNL     1       3.388   4.019  19.523  0.00  0.00    +0.000 A 
ATOM      9  C   UNL     1       2.788   4.049  18.268  0.00  0.00    +0.000 A 
ATOM     10  C   UNL     1       3.552   4.044  17.119  0.00  0.00    +0.000 A 
ATOM     11  C   UNL     1       4.934   4.161  17.234  0.00  0.00    +0.000 A 
ATOM     12 CL   UNL     1       5.850   3.599  15.881  0.00  0.00    +0.000 Cl
ATOM     13  N   UNL     1       1.386   3.908  18.186  0.00  0.00    +0.000 N 
ATOM     14  C   UNL     1       0.977   2.774  18.865  0.00  0.00    +0.000 C 
ATOM     15  O   UNL     1       0.187   1.965  18.395  0.00  0.00    +0.000 OA
ATOM     16  C   UNL     1       1.639   2.648  20.253  0.00  0.00    +0.000 C 
ATOM     17  O   UNL     1       2.652   3.620  20.611  0.00  0.00    +0.000 OA
ATOM     18  H   UNL     1       1.006   4.671  18.754  0.00  0.00    +0.000 HD
ENDBRANCH   3   6
ENDBRANCH   1   3
BRANCH   1  19
ATOM     19  C   UNL     1       8.196   7.645  17.694  0.00  0.00    +0.000 C 
BRANCH  19  21
ATOM     20  N   UNL     1       9.212   9.399  19.074  0.00  0.00    +0.000 N 
ATOM     21  C   UNL     1       8.257   9.099  18.119  0.00  0.00    +0.000 C 
ATOM     22  O   UNL     1       7.480   9.899  17.597  0.00  0.00    +0.000 OA
ATOM     23  H   UNL     1       9.742   8.621  19.453  0.00  0.00    +0.000 HD
BRANCH  20  27
ATOM     24  C   UNL     1      10.042  13.238  20.689  0.00  0.00    +0.000 A 
ATOM     25  C   UNL     1      10.320  12.977  19.351  0.00  0.00    +0.000 A 
ATOM     26  C   UNL     1      10.052  11.716  18.810  0.00  0.00    +0.000 A 
ATOM     27  C   UNL     1       9.497  10.690  19.584  0.00  0.00    +0.000 A 
ATOM     28  C   UNL     1       9.219  10.956  20.930  0.00  0.00    +0.000 A 
ATOM     29  C   UNL     1       9.491  12.221  21.479  0.00  0.00    +0.000 A 
BRANCH  24  31
ATOM     30  C   UNL     1       9.465  15.056  22.441  0.00  0.00    +0.000 C 
ATOM     31  C   UNL     1      10.324  14.575  21.293  0.00  0.00    +0.000 C 
ATOM     32  O   UNL     1      11.255  15.255  20.869  0.00  0.00    +0.000 OA
ENDBRANCH  24  31
ENDBRANCH  20  27
ENDBRANCH  19  21
ENDBRANCH   1  19
TORSDOF 6
ENDMDL
MODEL 4
REMARK VINA RESULT:      -8.0      2.163      5.069
REMARK  Name = 
REMARK  8 active torsions:
REMARK  status: ('A' for Active; 'I' for Inactive)
REMARK    1  A    between atoms: C_1  and  C_2
REMARK    2  A    between atoms: C_2  and  C_4
REMARK    3  A    between atoms: C_7  and  N_8
REMARK    4  A    between atoms: C_9  and  C_11
REMARK    5  A    between atoms: C_11  and  N_12
REMARK    6  A    between atoms: N_12  and  C_13
REMARK    7  A    between atoms: N_12  and  S_14
REMARK    8  A    between atoms: S_14  and  C_17
REMARK                            x       y       z     vdW  Elec       q    Type
REMARK                         _______ _______ _______ _____ _____    ______ ____
ROOT
ATOM      1  N   UNL     1       6.469   6.055  15.839  0.00  0.00    +0.000 NA
ATOM      2  C   UNL     1       7.434   6.923  16.544  0.00  0.00    +0.000 C 
ENDROOT
BRANCH   1   3
ATOM      3  S   UNL     1       6.575   4.375  16.202  0.00  0.00    +0.000 S 
ATOM      4  O   UNL     1       6.301   3.627  15.005  0.00  0.00    +0.000 OA
ATOM      5  O   UNL     1       7.838   4.192  16.901  0.00  0.00    +0.000 OA
BRANCH   3   6
ATOM      6  C   UNL     1       5.290   4.016  17.390  0.00  0.00    +0.000 A 
ATOM      7  C   UNL     1       4.055   3.489  16.950  0.00  0.00    +0.000 A 
ATOM      8  C   UNL     1       3.167   2.990  17.898  0.00  0.00    +0.000 A 
ATOM      9  C   UNL     1       3.606   2.817  19.208  0.00  0.00    +0.000 A 
ATOM     10  C   UNL     1       4.733   3.470  19.666  0.00  0.00    +0.000 A 
ATOM     11  C   UNL     1       5.509   4.184  18.759  0.00  0.00    +0.000 A 
ATOM     12 CL   UNL     1       6.533   5.398  19.439  0.00  0.00    +0.000 Cl
ATOM     13  N   UNL     1       2.785   2.104  20.107  0.00  0.00    +0.000 N 
ATOM     14  C   UNL     1       1.508   2.638  20.116  0.00  0.00    +0.000 C 
ATOM     15  O   UNL     1       0.895   2.878  21.149  0.00  0.00    +0.000 OA
ATOM     16  C   UNL     1       0.969   2.899  18.695  0.00  0.00    +0.000 C 
ATOM     17  O   UNL     1       1.868   2.681  17.579  0.00  0.00    +0.000 OA
ATOM     18  H   UNL     1       2.652   1.185  19.678  0.00  0.00    +0.000 HD
ENDBRANCH   3   6
ENDBRANCH   1   3
BRANCH   1  19
ATOM     19  C   UNL     1       5.105   6.629  15.754  0.00  0.00    +0.000 C 
BRANCH  19  21
ATOM     20  N   UNL     1       3.209   7.388  17.112  0.00  0.00    +0.000 N 
ATOM     21  C   UNL     1       4.585   7.376  16.966  0.00  0.00    +0.000 C 
ATOM     22  O   UNL     1       5.397   7.904  17.727  0.00  0.00    +0.000 OA
ATOM     23  H   UNL     1       2.666   6.957  16.371  0.00  0.00    +0.000 HD
BRANCH  20  27
ATOM     24  C   UNL     1       1.095   9.053  20.397  0.00  0.00    +0.000 A 
ATOM     25  C   UNL     1       1.157   9.747  19.193  0.00  0.00    +0.000 A 
ATOM     26  C   UNL     1       1.853   9.208  18.106  0.00  0.00    +0.000 A 
ATOM     27  C   UNL     1       2.495   7.967  18.189  0.00  0.00    +0.000 A 
ATOM     28  C   UNL     1       2.429   7.272  19.402  0.00  0.00    +0.000 A 
ATOM     29  C   UNL     1       1.736   7.812  20.499  0.00  0.00    +0.000 A 
BRANCH  24  31
ATOM     30  C   UNL     1      -0.624   8.727  22.307  0.00  0.00    +0.000 C 
ATOM     31  C   UNL     1       0.364   9.608  21.575  0.00  0.00    +0.000 C 
ATOM     32  O   UNL     1       0.584  10.759  21.947  0.00  0.00    +0.000 OA
ENDBRANCH  24  31
ENDBRANCH  20  27
ENDBRANCH  19  21
ENDBRANCH   1  19
TORSDOF 6
ENDMDL
MODEL 5
REMARK VINA RESULT:      -7.8      3.762      7.375
REMARK  Name = 
REMARK  8 active torsions:
REMARK  status: ('A' for Active; 'I' for Inactive)
REMARK    1  A    between atoms: C_1  and  C_2
REMARK    2  A    between atoms: C_2  and  C_4
REMARK    3  A    between atoms: C_7  and  N_8
REMARK    4  A    between atoms: C_9  and  C_11
REMARK    5  A    between atoms: C_11  and  N_12
REMARK    6  A    between atoms: N_12  and  C_13
REMARK    7  A    between atoms: N_12  and  S_14
REMARK    8  A    between atoms: S_14  and  C_17
REMARK                            x       y       z     vdW  Elec       q    Type
REMARK                         _______ _______ _______ _____ _____    ______ ____
ROOT
ATOM      1  N   UNL     1       7.258   5.823  16.888  0.00  0.00    +0.000 NA
ATOM      2  C   UNL     1       7.904   4.501  17.011  0.00  0.00    +0.000 C 
ENDROOT
BRANCH   1   3
ATOM      3  S   UNL     1       5.706   5.826  16.142  0.00  0.00    +0.000 S 
ATOM      4  O   UNL     1       5.335   7.186  15.855  0.00  0.00    +0.000 OA
ATOM      5  O   UNL     1       5.772   4.848  15.067  0.00  0.00    +0.000 OA
BRANCH   3   6
ATOM      6  C   UNL     1       4.550   5.175  17.339  0.00  0.00    +0.000 A 
ATOM      7  C   UNL     1       4.358   3.779  17.441  0.00  0.00    +0.000 A 
ATOM      8  C   UNL     1       3.649   3.280  18.530  0.00  0.00    +0.000 A 
ATOM      9  C   UNL     1       3.352   4.134  19.588  0.00  0.00    +0.000 A 
ATOM     10  C   UNL     1       3.392   5.504  19.422  0.00  0.00    +0.000 A 
ATOM     11  C   UNL     1       3.880   6.020  18.226  0.00  0.00    +0.000 A 
ATOM     12 CL   UNL     1       3.400   7.637  17.854  0.00  0.00    +0.000 Cl
ATOM     13  N   UNL     1       2.839   3.580  20.780  0.00  0.00    +0.000 N 
ATOM     14  C   UNL     1       1.740   2.785  20.506  0.00  0.00    +0.000 C 
ATOM     15  O   UNL     1       0.697   2.849  21.145  0.00  0.00    +0.000 OA
ATOM     16  C   UNL     1       1.980   1.839  19.312  0.00  0.00    +0.000 C 
ATOM     17  O   UNL     1       3.223   1.976  18.579  0.00  0.00    +0.000 OA
ATOM     18  H   UNL     1       3.545   2.905  21.087  0.00  0.00    +0.000 HD
ENDBRANCH   3   6
ENDBRANCH   1   3
BRANCH   1  19
ATOM     19  C   UNL     1       7.417   6.677  18.089  0.00  0.00    +0.000 C 
BRANCH  19  21
ATOM     20  N   UNL     1       8.506   8.675  19.002  0.00  0.00    +0.000 N 
ATOM     21  C   UNL     1       7.953   8.079  17.883  0.00  0.00    +0.000 C 
ATOM     22  O   UNL     1       7.869   8.583  16.762  0.00  0.00    +0.000 OA
ATOM     23  H   UNL     1       8.451   8.156  19.873  0.00  0.00    +0.000 HD
BRANCH  20  27
ATOM     24  C   UNL     1      10.312  12.519  19.041  0.00  0.00    +0.000 A 
ATOM     25  C   UNL     1      10.373  11.715  20.176  0.00  0.00    +0.000 A 
ATOM     26  C   UNL     1       9.780  10.449  20.174  0.00  0.00    +0.000 A 
ATOM     27  C   UNL     1       9.119   9.951  19.044  0.00  0.00    +0.000 A 
ATOM     28  C   UNL     1       9.060  10.762  17.905  0.00  0.00    +0.000 A 
ATOM     29  C   UNL     1       9.651  12.038  17.904  0.00  0.00    +0.000 A 
BRANCH  24  31
ATOM     30  C   UNL     1      12.327  14.055  19.575  0.00  0.00    +0.000 C 
ATOM     31  C   UNL     1      10.932  13.877  19.019  0.00  0.00    +0.000 C 
ATOM     32  O   UNL     1      10.316  14.825  18.535  0.00  0.00    +0.000 OA
ENDBRANCH  24  31
ENDBRANCH  20  27
ENDBRANCH  19  21
ENDBRANCH   1  19
TORSDOF 6
ENDMDL
MODEL 6
REMARK VINA RESULT:      -7.7      3.843      7.376
REMARK  Name = 
REMARK  8 active torsions:
REMARK  status: ('A' for Active; 'I' for Inactive)
REMARK    1  A    between atoms: C_1  and  C_2
REMARK    2  A    between atoms: C_2  and  C_4
REMARK    3  A    between atoms: C_7  and  N_8
REMARK    4  A    between atoms: C_9  and  C_11
REMARK    5  A    between atoms: C_11  and  N_12
REMARK    6  A    between atoms: N_12  and  C_13
REMARK    7  A    between atoms: N_12  and  S_14
REMARK    8  A    between atoms: S_14  and  C_17
REMARK                            x       y       z     vdW  Elec       q    Type
REMARK                         _______ _______ _______ _____ _____    ______ ____
ROOT
ATOM      1  N   UNL     1       7.618   5.707  17.459  0.00  0.00    +0.000 NA
ATOM      2  C   UNL     1       8.152   4.399  17.888  0.00  0.00    +0.000 C 
ENDROOT
BRANCH   1   3
ATOM      3  S   UNL     1       6.216   5.646  16.461  0.00  0.00    +0.000 S 
ATOM      4  O   UNL     1       5.897   6.981  16.032  0.00  0.00    +0.000 OA
ATOM      5  O   UNL     1       6.466   4.605  15.475  0.00  0.00    +0.000 OA
BRANCH   3   6
ATOM      6  C   UNL     1       4.874   5.053  17.481  0.00  0.00    +0.000 A 
ATOM      7  C   UNL     1       4.582   3.671  17.522  0.00  0.00    +0.000 A 
ATOM      8  C   UNL     1       3.705   3.203  18.497  0.00  0.00    +0.000 A 
ATOM      9  C   UNL     1       3.326   4.058  19.528  0.00  0.00    +0.000 A 
ATOM     10  C   UNL     1       3.475   5.425  19.403  0.00  0.00    +0.000 A 
ATOM     11  C   UNL     1       4.148   5.926  18.293  0.00  0.00    +0.000 A 
ATOM     12 CL   UNL     1       3.825   7.578  17.902  0.00  0.00    +0.000 Cl
ATOM     13  N   UNL     1       2.627   3.520  20.630  0.00  0.00    +0.000 N 
ATOM     14  C   UNL     1       1.525   2.804  20.195  0.00  0.00    +0.000 C 
ATOM     15  O   UNL     1       0.414   2.927  20.695  0.00  0.00    +0.000 OA
ATOM     16  C   UNL     1       1.860   1.864  19.019  0.00  0.00    +0.000 C 
ATOM     17  O   UNL     1       3.194   1.930  18.458  0.00  0.00    +0.000 OA
ATOM     18  H   UNL     1       3.243   2.795  21.009  0.00  0.00    +0.000 HD
ENDBRANCH   3   6
ENDBRANCH   1   3
BRANCH   1  19
ATOM     19  C   UNL     1       7.624   6.733  18.529  0.00  0.00    +0.000 C 
BRANCH  19  21
ATOM     20  N   UNL     1       8.699   8.831  19.204  0.00  0.00    +0.000 N 
ATOM     21  C   UNL     1       8.128   8.116  18.167  0.00  0.00    +0.000 C 
ATOM     22  O   UNL     1       8.005   8.502  17.003  0.00  0.00    +0.000 OA
ATOM     23  H   UNL     1       8.677   8.401  20.124  0.00  0.00    +0.000 HD
BRANCH  20  27
ATOM     24  C   UNL     1      10.478  12.681  18.987  0.00  0.00    +0.000 A 
ATOM     25  C   UNL     1      10.184  11.989  17.816  0.00  0.00    +0.000 A 
ATOM     26  C   UNL     1       9.601  10.719  17.876  0.00  0.00    +0.000 A 
ATOM     27  C   UNL     1       9.290  10.114  19.099  0.00  0.00    +0.000 A 
ATOM     28  C   UNL     1       9.586  10.814  20.275  0.00  0.00    +0.000 A 
ATOM     29  C   UNL     1      10.178  12.088  20.219  0.00  0.00    +0.000 A 
BRANCH  24  31
ATOM     30  C   UNL     1      10.234  15.241  18.680  0.00  0.00    +0.000 C 
ATOM     31  C   UNL     1      11.106  14.035  18.950  0.00  0.00    +0.000 C 
ATOM     32  O   UNL     1      12.312  14.158  19.157  0.00  0.00    +0.000 OA
ENDBRANCH  24  31
ENDBRANCH  20  27
ENDBRANCH  19  21
ENDBRANCH   1  19
TORSDOF 6
ENDMDL
MODEL 7
REMARK VINA RESULT:      -7.7      4.245      7.608
REMARK  Name = 
REMARK  8 active torsions:
REMARK  status: ('A' for Active; 'I' for Inactive)
REMARK    1  A    between atoms: C_1  and  C_2
REMARK    2  A    between atoms: C_2  and  C_4
REMARK    3  A    between atoms: C_7  and  N_8
REMARK    4  A    between atoms: C_9  and  C_11
REMARK    5  A    between atoms: C_11  and  N_12
REMARK    6  A    between atoms: N_12  and  C_13
REMARK    7  A    between atoms: N_12  and  S_14
REMARK    8  A    between atoms: S_14  and  C_17
REMARK                            x       y       z     vdW  Elec       q    Type
REMARK                         _______ _______ _______ _____ _____    ______ ____
ROOT
ATOM      1  N   UNL     1       6.680   7.045  17.823  0.00  0.00    +0.000 NA
ATOM      2  C   UNL     1       5.383   7.330  17.176  0.00  0.00    +0.000 C 
ENDROOT
BRANCH   1   3
ATOM      3  S   UNL     1       6.976   5.390  18.197  0.00  0.00    +0.000 S 
ATOM      4  O   UNL     1       7.774   4.816  17.146  0.00  0.00    +0.000 OA
ATOM      5  O   UNL     1       7.456   5.366  19.570  0.00  0.00    +0.000 OA
BRANCH   3   6
ATOM      6  C   UNL     1       5.391   4.565  18.207  0.00  0.00    +0.000 A 
ATOM      7  C   UNL     1       4.663   4.461  19.414  0.00  0.00    +0.000 A 
ATOM      8  C   UNL     1       3.338   4.039  19.359  0.00  0.00    +0.000 A 
ATOM      9  C   UNL     1       2.710   3.952  18.119  0.00  0.00    +0.000 A 
ATOM     10  C   UNL     1       3.449   3.895  16.955  0.00  0.00    +0.000 A 
ATOM     11  C   UNL     1       4.827   4.077  17.028  0.00  0.00    +0.000 A 
ATOM     12 CL   UNL     1       5.736   3.456  15.697  0.00  0.00    +0.000 Cl
ATOM     13  N   UNL     1       1.314   3.747  18.083  0.00  0.00    +0.000 N 
ATOM     14  C   UNL     1       0.969   2.650  18.852  0.00  0.00    +0.000 C 
ATOM     15  O   UNL     1       0.205   1.777  18.461  0.00  0.00    +0.000 OA
ATOM     16  C   UNL     1       1.665   2.654  20.228  0.00  0.00    +0.000 C 
ATOM     17  O   UNL     1       2.643   3.691  20.490  0.00  0.00    +0.000 OA
ATOM     18  H   UNL     1       0.914   4.533  18.603  0.00  0.00    +0.000 HD
ENDBRANCH   3   6
ENDBRANCH   1   3
BRANCH   1  19
ATOM     19  C   UNL     1       7.813   7.806  17.246  0.00  0.00    +0.000 C 
BRANCH  19  21
ATOM     20  N   UNL     1       8.706  10.055  17.645  0.00  0.00    +0.000 N 
ATOM     21  C   UNL     1       8.534   8.781  18.156  0.00  0.00    +0.000 C 
ATOM     22  O   UNL     1       8.905   8.390  19.264  0.00  0.00    +0.000 OA
ATOM     23  H   UNL     1       8.397  10.212  16.691  0.00  0.00    +0.000 HD
BRANCH  20  27
ATOM     24  C   UNL     1      10.520  13.356  19.606  0.00  0.00    +0.000 A 
ATOM     25  C   UNL     1       9.562  12.598  20.272  0.00  0.00    +0.000 A 
ATOM     26  C   UNL     1       8.958  11.510  19.635  0.00  0.00    +0.000 A 
ATOM     27  C   UNL     1       9.295  11.148  18.326  0.00  0.00    +0.000 A 
ATOM     28  C   UNL     1      10.260  11.913  17.658  0.00  0.00    +0.000 A 
ATOM     29  C   UNL     1      10.866  13.011  18.294  0.00  0.00    +0.000 A 
BRANCH  24  31
ATOM     30  C   UNL     1      10.532  15.137  21.486  0.00  0.00    +0.000 C 
ATOM     31  C   UNL     1      11.176  14.527  20.262  0.00  0.00    +0.000 C 
ATOM     32  O   UNL     1      12.234  14.966  19.816  0.00  0.00    +0.000 OA
ENDBRANCH  24  31
ENDBRANCH  20  27
ENDBRANCH  19  21
ENDBRANCH   1  19
TORSDOF 6
ENDMDL
MODEL 8
REMARK VINA RESULT:      -7.7      4.537      8.717
REMARK  Name = 
REMARK  8 active torsions:
REMARK  status: ('A' for Active; 'I' for Inactive)
REMARK    1  A    between atoms: C_1  and  C_2
REMARK    2  A    between atoms: C_2  and  C_4
REMARK    3  A    between atoms: C_7  and  N_8
REMARK    4  A    between atoms: C_9  and  C_11
REMARK    5  A    between atoms: C_11  and  N_12
REMARK    6  A    between atoms: N_12  and  C_13
REMARK    7  A    between atoms: N_12  and  S_14
REMARK    8  A    between atoms: S_14  and  C_17
REMARK                            x       y       z     vdW  Elec       q    Type
REMARK                         _______ _______ _______ _____ _____    ______ ____
ROOT
ATOM      1  N   UNL     1       0.308  10.335  19.095  0.00  0.00    +0.000 NA
ATOM      2  C   UNL     1      -0.886  10.184  18.238  0.00  0.00    +0.000 C 
ENDROOT
BRANCH   1   3
ATOM      3  S   UNL     1       0.146  11.440  20.407  0.00  0.00    +0.000 S 
ATOM      4  O   UNL     1      -1.221  11.881  20.472  0.00  0.00    +0.000 OA
ATOM      5  O   UNL     1       0.758  10.792  21.557  0.00  0.00    +0.000 OA
BRANCH   3   6
ATOM      6  C   UNL     1       1.170  12.854  20.027  0.00  0.00    +0.000 A 
ATOM      7  C   UNL     1       2.212  12.732  19.080  0.00  0.00    +0.000 A 
ATOM      8  C   UNL     1       2.834  13.889  18.619  0.00  0.00    +0.000 A 
ATOM      9  C   UNL     1       2.270  15.124  18.926  0.00  0.00    +0.000 A 
ATOM     10  C   UNL     1       1.369  15.251  19.964  0.00  0.00    +0.000 A 
ATOM     11  C   UNL     1       0.916  14.100  20.602  0.00  0.00    +0.000 A 
ATOM     12 CL   UNL     1       0.269  14.328  22.188  0.00  0.00    +0.000 Cl
ATOM     13  N   UNL     1       2.766  16.273  18.274  0.00  0.00    +0.000 N 
ATOM     14  C   UNL     1       4.142  16.347  18.412  0.00  0.00    +0.000 C 
ATOM     15  O   UNL     1       4.724  17.375  18.734  0.00  0.00    +0.000 OA
ATOM     16  C   UNL     1       4.834  14.998  18.130  0.00  0.00    +0.000 C 
ATOM     17  O   UNL     1       3.994  13.843  17.888  0.00  0.00    +0.000 OA
ATOM     18  H   UNL     1       2.641  16.090  17.275  0.00  0.00    +0.000 HD
ENDBRANCH   3   6
ENDBRANCH   1   3
BRANCH   1  19
ATOM     19  C   UNL     1       0.995   9.055  19.389  0.00  0.00    +0.000 C 
BRANCH  19  21
ATOM     20  N   UNL     1       2.632   7.367  18.695  0.00  0.00    +0.000 N 
ATOM     21  C   UNL     1       2.046   8.585  18.404  0.00  0.00    +0.000 C 
ATOM     22  O   UNL     1       2.300   9.295  17.429  0.00  0.00    +0.000 OA
ATOM     23  H   UNL     1       2.360   6.924  19.567  0.00  0.00    +0.000 HD
BRANCH  20  27
ATOM     24  C   UNL     1       5.459   5.277  16.313  0.00  0.00    +0.000 A 
ATOM     25  C   UNL     1       5.619   6.641  16.537  0.00  0.00    +0.000 A 
ATOM     26  C   UNL     1       4.693   7.339  17.319  0.00  0.00    +0.000 A 
ATOM     27  C   UNL     1       3.592   6.696  17.898  0.00  0.00    +0.000 A 
ATOM     28  C   UNL     1       3.435   5.324  17.670  0.00  0.00    +0.000 A 
ATOM     29  C   UNL     1       4.361   4.620  16.881  0.00  0.00    +0.000 A 
BRANCH  24  31
ATOM     30  C   UNL     1       5.980   3.973  14.136  0.00  0.00    +0.000 C 
ATOM     31  C   UNL     1       6.430   4.509  15.477  0.00  0.00    +0.000 C 
ATOM     32  O   UNL     1       7.581   4.339  15.875  0.00  0.00    +0.000 OA
ENDBRANCH  24  31
ENDBRANCH  20  27
ENDBRANCH  19  21
ENDBRANCH   1  19
TORSDOF 6
ENDMDL
MODEL 9
REMARK VINA RESULT:      -7.6      4.300      7.304
REMARK  Name = 
REMARK  8 active torsions:
REMARK  status: ('A' for Active; 'I' for Inactive)
REMARK    1  A    between atoms: C_1  and  C_2
REMARK    2  A    between atoms: C_2  and  C_4
REMARK    3  A    between atoms: C_7  and  N_8
REMARK    4  A    between atoms: C_9  and  C_11
REMARK    5  A    between atoms: C_11  and  N_12
REMARK    6  A    between atoms: N_12  and  C_13
REMARK    7  A    between atoms: N_12  and  S_14
REMARK    8  A    between atoms: S_14  and  C_17
REMARK                            x       y       z     vdW  Elec       q    Type
REMARK                         _______ _______ _______ _____ _____    ______ ____
ROOT
ATOM      1  N   UNL     1       7.214   6.754  18.057  0.00  0.00    +0.000 NA
ATOM      2  C   UNL     1       6.533   6.999  16.770  0.00  0.00    +0.000 C 
ENDROOT
BRANCH   1   3
ATOM      3  S   UNL     1       7.298   5.107  18.553  0.00  0.00    +0.000 S 
ATOM      4  O   UNL     1       8.114   4.384  17.616  0.00  0.00    +0.000 OA
ATOM      5  O   UNL     1       7.655   5.128  19.964  0.00  0.00    +0.000 OA
BRANCH   3   6
ATOM      6  C   UNL     1       5.638   4.451  18.469  0.00  0.00    +0.000 A 
ATOM      7  C   UNL     1       4.900   4.257  19.658  0.00  0.00    +0.000 A 
ATOM      8  C   UNL     1       3.539   3.982  19.560  0.00  0.00    +0.000 A 
ATOM      9  C   UNL     1       2.909   4.128  18.328  0.00  0.00    +0.000 A 
ATOM     10  C   UNL     1       3.642   4.156  17.159  0.00  0.00    +0.000 A 
ATOM     11  C   UNL     1       5.031   4.188  17.240  0.00  0.00    +0.000 A 
ATOM     12 CL   UNL     1       5.877   3.666  15.828  0.00  0.00    +0.000 Cl
ATOM     13  N   UNL     1       1.499   4.071  18.279  0.00  0.00    +0.000 N 
ATOM     14  C   UNL     1       1.044   2.918  18.895  0.00  0.00    +0.000 C 
ATOM     15  O   UNL     1       0.196   2.188  18.397  0.00  0.00    +0.000 OA
ATOM     16  C   UNL     1       1.732   2.665  20.252  0.00  0.00    +0.000 C 
ATOM     17  O   UNL     1       2.809   3.554  20.641  0.00  0.00    +0.000 OA
ATOM     18  H   UNL     1       1.179   4.814  18.905  0.00  0.00    +0.000 HD
ENDBRANCH   3   6
ENDBRANCH   1   3
BRANCH   1  19
ATOM     19  C   UNL     1       8.441   7.564  18.244  0.00  0.00    +0.000 C 
BRANCH  19  21
ATOM     20  N   UNL     1       9.222   9.757  19.015  0.00  0.00    +0.000 N 
ATOM     21  C   UNL     1       8.286   9.072  18.262  0.00  0.00    +0.000 C 
ATOM     22  O   UNL     1       7.365   9.578  17.618  0.00  0.00    +0.000 OA
ATOM     23  H   UNL     1       9.889   9.198  19.538  0.00  0.00    +0.000 HD
BRANCH  20  27
ATOM     24  C   UNL     1       9.510  13.985  19.288  0.00  0.00    +0.000 A 
ATOM     25  C   UNL     1       9.366  13.227  20.446  0.00  0.00    +0.000 A 
ATOM     26  C   UNL     1       9.268  11.834  20.366  0.00  0.00    +0.000 A 
ATOM     27  C   UNL     1       9.318  11.165  19.138  0.00  0.00    +0.000 A 
ATOM     28  C   UNL     1       9.464  11.932  17.975  0.00  0.00    +0.000 A 
ATOM     29  C   UNL     1       9.557  13.332  18.050  0.00  0.00    +0.000 A 
BRANCH  24  31
ATOM     30  C   UNL     1      10.937  16.132  19.033  0.00  0.00    +0.000 C 
ATOM     31  C   UNL     1       9.611  15.475  19.344  0.00  0.00    +0.000 C 
ATOM     32  O   UNL     1       8.620  16.146  19.622  0.00  0.00    +0.000 OA
ENDBRANCH  24  31
ENDBRANCH  20  27
ENDBRANCH  19  21
ENDBRANCH   1  19
TORSDOF 6
ENDMDL
