MODEL 1
REMARK VINA RESULT:      -8.8      0.000      0.000
REMARK  Name = 
REMARK  6 active torsions:
REMARK  status: ('A' for Active; 'I' for Inactive)
REMARK    1  A    between atoms: C_1  and  O_2
REMARK    2  A    between atoms: O_2  and  C_3
REMARK    3  A    between atoms: C_4  and  C_5
REMARK    4  A    between atoms: C_11  and  C_12
REMARK    5  A    between atoms: C_17  and  C_18
REMARK    6  A    between atoms: C_20  and  C_21
REMARK                            x       y       z     vdW  Elec       q    Type
REMARK                         _______ _______ _______ _____ _____    ______ ____
ROOT
ATOM      1  C   UNL     1       1.337   9.942  18.915  0.00  0.00    +0.000 A 
ATOM      2  C   UNL     1       1.882  11.150  18.546  0.00  0.00    +0.000 A 
ATOM      3  N   UNL     1       0.877  12.046  18.739  0.00  0.00    +0.000 N 
ATOM      4  C   UNL     1      -0.197  11.389  19.268  0.00  0.00    +0.000 A 
ATOM      5  N   UNL     1       0.046  10.094  19.350  0.00  0.00    +0.000 NA
ATOM      6  C   UNL     1      -1.444  12.115  19.662  0.00  0.00    +0.000 C 
ATOM      7  O   UNL     1      -1.220  13.532  19.775  0.00  0.00    +0.000 OA
ATOM      8  C   UNL     1      -0.439  14.137  18.746  0.00  0.00    +0.000 C 
ATOM      9  C   UNL     1       0.912  13.467  18.499  0.00  0.00    +0.000 C 
ENDROOT
BRANCH   1  16
ATOM     10  C   UNL     1       3.070   5.235  19.775  0.00  0.00    +0.000 A 
ATOM     11  C   UNL     1       3.940   4.443  18.996  0.00  0.00    +0.000 A 
ATOM     12  C   UNL     1       4.486   4.934  17.797  0.00  0.00    +0.000 A 
ATOM     13  C   UNL     1       4.166   6.201  17.303  0.00  0.00    +0.000 A 
ATOM     14  C   UNL     1       3.294   6.970  18.067  0.00  0.00    +0.000 A 
ATOM     15  N   UNL     1       2.779   8.222  17.821  0.00  0.00    +0.000 N 
ATOM     16  C   UNL     1       1.997   8.627  18.866  0.00  0.00    +0.000 A 
ATOM     17  C   UNL     1       1.964   7.608  19.788  0.00  0.00    +0.000 A 
ATOM     18  C   UNL     1       2.764   6.533  19.283  0.00  0.00    +0.000 A 
ATOM     19  H   UNL     1       2.961   8.792  17.006  0.00  0.00    +0.000 HD
BRANCH  10  21
ATOM     20  C   UNL     1       1.300   4.026  20.885  0.00  0.00    +0.000 C 
ATOM     21  O   UNL     1       2.420   4.896  20.929  0.00  0.00    +0.000 OA
ENDBRANCH  10  21
BRANCH  11  22
ATOM     22  C   UNL     1       4.305   3.098  19.332  0.00  0.00    +0.000 C 
ATOM     23  N   UNL     1       4.636   2.017  19.609  0.00  0.00    +0.000 NA
ENDBRANCH  11  22
ENDBRANCH   1  16
BRANCH   6  24
ATOM     24  C   UNL     1      -2.658  11.711  18.847  0.00  0.00    +0.000 A 
ATOM     25  C   UNL     1      -2.474  11.061  17.608  0.00  0.00    +0.000 A 
ATOM     26  C   UNL     1      -3.551  10.817  16.738  0.00  0.00    +0.000 A 
ATOM     27  C   UNL     1      -4.838  11.212  17.125  0.00  0.00    +0.000 A 
ATOM     28  C   UNL     1      -5.043  11.827  18.361  0.00  0.00    +0.000 A 
ATOM     29  C   UNL     1      -3.960  12.069  19.207  0.00  0.00    +0.000 A 
ATOM     30  F   UNL     1      -4.198  12.693  20.370  0.00  0.00    +0.000 F 
BRANCH  26  31
ATOM     31  C   UNL     1      -3.326  10.172  15.389  0.00  0.00    +0.000 C 
ATOM     32  F   UNL     1      -2.661   8.987  15.456  0.00  0.00    +0.000 F 
ATOM     33  F   UNL     1      -4.492   9.909  14.738  0.00  0.00    +0.000 F 
ATOM     34  F   UNL     1      -2.599  10.961  14.550  0.00  0.00    +0.000 F 
ENDBRANCH  26  31
ENDBRANCH   6  24
TORSDOF 5
ENDMDL
MODEL 2
REMARK VINA RESULT:      -8.5      1.366      2.046
REMARK  Name = 
REMARK  6 active torsions:
REMARK  status: ('A' for Active; 'I' for Inactive)
REMARK    1  A    between atoms: C_1  and  O_2
REMARK    2  A    between atoms: O_2  and  C_3
REMARK    3  A    between atoms: C_4  and  C_5
REMARK    4  A    between atoms: C_11  and  C_12
REMARK    5  A    between atoms: C_17  and  C_18
REMARK    6  A    between atoms: C_20  and  C_21
REMARK                            x       y       z     vdW  Elec       q    Type
REMARK                         _______ _______ _______ _____ _____    ______ ____
ROOT
ATOM      1  C   UNL     1       1.615   9.252  19.197  0.00  0.00    +0.000 A 
ATOM      2  C   UNL     1       2.325  10.224  18.532  0.00  0.00    +0.000 A 
ATOM      3  N   UNL     1       1.605  11.362  18.728  0.00  0.00    +0.000 N 
ATOM      4  C   UNL     1       0.545  11.072  19.539  0.00  0.00    +0.000 A 
ATOM      5  N   UNL     1       0.508   9.780  19.809  0.00  0.00    +0.000 NA
ATOM      6  C   UNL     1      -0.402  12.133  20.001  0.00  0.00    +0.000 C 
ATOM      7  O   UNL     1       0.149  13.451  19.820  0.00  0.00    +0.000 OA
ATOM      8  C   UNL     1       0.815  13.697  18.583  0.00  0.00    +0.000 C 
ATOM      9  C   UNL     1       1.903  12.683  18.236  0.00  0.00    +0.000 C 
ENDROOT
BRANCH   1  16
ATOM     10  C   UNL     1       3.018   4.439  18.323  0.00  0.00    +0.000 A 
ATOM     11  C   UNL     1       3.041   3.337  19.204  0.00  0.00    +0.000 A 
ATOM     12  C   UNL     1       2.615   3.469  20.538  0.00  0.00    +0.000 A 
ATOM     13  C   UNL     1       2.190   4.692  21.061  0.00  0.00    +0.000 A 
ATOM     14  C   UNL     1       2.187   5.779  20.192  0.00  0.00    +0.000 A 
ATOM     15  N   UNL     1       1.857   7.094  20.428  0.00  0.00    +0.000 N 
ATOM     16  C   UNL     1       1.943   7.819  19.273  0.00  0.00    +0.000 A 
ATOM     17  C   UNL     1       2.378   6.977  18.278  0.00  0.00    +0.000 A 
ATOM     18  C   UNL     1       2.563   5.678  18.851  0.00  0.00    +0.000 A 
ATOM     19  H   UNL     1       1.564   7.485  21.313  0.00  0.00    +0.000 HD
BRANCH  10  21
ATOM     20  C   UNL     1       4.824   4.583  16.728  0.00  0.00    +0.000 C 
ATOM     21  O   UNL     1       3.439   4.494  17.023  0.00  0.00    +0.000 OA
ENDBRANCH  10  21
BRANCH  11  22
ATOM     22  C   UNL     1       3.518   2.036  18.836  0.00  0.00    +0.000 C 
ATOM     23  N   UNL     1       3.905   0.990  18.505  0.00  0.00    +0.000 NA
ENDBRANCH  11  22
ENDBRANCH   1  16
BRANCH   6  24
ATOM     24  C   UNL     1      -1.816  11.943  19.487  0.00  0.00    +0.000 A 
ATOM     25  C   UNL     1      -2.019  11.334  18.231  0.00  0.00    +0.000 A 
ATOM     26  C   UNL     1      -3.290  11.285  17.633  0.00  0.00    +0.000 A 
ATOM     27  C   UNL     1      -4.382  11.836  18.317  0.00  0.00    +0.000 A 
ATOM     28  C   UNL     1      -4.205  12.413  19.575  0.00  0.00    +0.000 A 
ATOM     29  C   UNL     1      -2.934  12.460  20.148  0.00  0.00    +0.000 A 
ATOM     30  F   UNL     1      -2.804  13.055  21.343  0.00  0.00    +0.000 F 
BRANCH  26  31
ATOM     31  C   UNL     1      -3.479  10.681  16.260  0.00  0.00    +0.000 C 
ATOM     32  F   UNL     1      -3.242   9.342  16.217  0.00  0.00    +0.000 F 
ATOM     33  F   UNL     1      -4.744  10.852  15.786  0.00  0.00    +0.000 F 
ATOM     34  F   UNL     1      -2.653  11.236  15.330  0.00  0.00    +0.000 F 
ENDBRANCH  26  31
ENDBRANCH   6  24
TORSDOF 5
ENDMDL
MODEL 3
REMARK VINA RESULT:      -8.5      6.196      9.691
REMARK  Name = 
REMARK  6 active torsions:
REMARK  status: ('A' for Active; 'I' for Inactive)
REMARK    1  A    between atoms: C_1  and  O_2
REMARK    2  A    between atoms: O_2  and  C_3
REMARK    3  A    between atoms: C_4  and  C_5
REMARK    4  A    between atoms: C_11  and  C_12
REMARK    5  A    between atoms: C_17  and  C_18
REMARK    6  A    between atoms: C_20  and  C_21
REMARK                            x       y       z     vdW  Elec       q    Type
REMARK                         _______ _______ _______ _____ _____    ______ ____
ROOT
ATOM      1  C   UNL     1       7.368   7.840  17.687  0.00  0.00    +0.000 A 
ATOM      2  C   UNL     1       7.933   6.667  17.244  0.00  0.00    +0.000 A 
ATOM      3  N   UNL     1       6.874   5.836  17.047  0.00  0.00    +0.000 N 
ATOM      4  C   UNL     1       5.724   6.528  17.302  0.00  0.00    +0.000 A 
ATOM      5  N   UNL     1       6.002   7.745  17.732  0.00  0.00    +0.000 NA
ATOM      6  C   UNL     1       4.377   5.909  17.106  0.00  0.00    +0.000 C 
ATOM      7  O   UNL     1       4.451   4.725  16.291  0.00  0.00    +0.000 OA
ATOM      8  C   UNL     1       5.521   3.824  16.573  0.00  0.00    +0.000 C 
ATOM      9  C   UNL     1       6.905   4.470  16.587  0.00  0.00    +0.000 C 
ENDROOT
BRANCH   1  16
ATOM     10  C   UNL     1       9.205  12.560  18.181  0.00  0.00    +0.000 A 
ATOM     11  C   UNL     1      10.168  13.059  19.083  0.00  0.00    +0.000 A 
ATOM     12  C   UNL     1      10.794  12.210  20.013  0.00  0.00    +0.000 A 
ATOM     13  C   UNL     1      10.469  10.856  20.115  0.00  0.00    +0.000 A 
ATOM     14  C   UNL     1       9.505  10.375  19.234  0.00  0.00    +0.000 A 
ATOM     15  N   UNL     1       8.964   9.114  19.123  0.00  0.00    +0.000 N 
ATOM     16  C   UNL     1       8.081   9.066  18.082  0.00  0.00    +0.000 A 
ATOM     17  C   UNL     1       8.009  10.323  17.531  0.00  0.00    +0.000 A 
ATOM     18  C   UNL     1       8.891  11.177  18.270  0.00  0.00    +0.000 A 
ATOM     19  H   UNL     1       9.192   8.315  19.700  0.00  0.00    +0.000 HD
BRANCH  10  21
ATOM     20  C   UNL     1       7.354  14.022  17.666  0.00  0.00    +0.000 C 
ATOM     21  O   UNL     1       8.472  13.252  17.255  0.00  0.00    +0.000 OA
ENDBRANCH  10  21
BRANCH  11  22
ATOM     22  C   UNL     1      10.556  14.437  19.150  0.00  0.00    +0.000 C 
ATOM     23  N   UNL     1      10.837  15.565  19.203  0.00  0.00    +0.000 NA
ENDBRANCH  11  22
ENDBRANCH   1  16
BRANCH   6  24
ATOM     24  C   UNL     1       3.587   5.765  18.393  0.00  0.00    +0.000 A 
ATOM     25  C   UNL     1       3.507   4.503  19.017  0.00  0.00    +0.000 A 
ATOM     26  C   UNL     1       2.657   4.276  20.113  0.00  0.00    +0.000 A 
ATOM     27  C   UNL     1       1.888   5.339  20.605  0.00  0.00    +0.000 A 
ATOM     28  C   UNL     1       1.979   6.603  20.020  0.00  0.00    +0.000 A 
ATOM     29  C   UNL     1       2.823   6.806  18.927  0.00  0.00    +0.000 A 
ATOM     30  F   UNL     1       2.853   8.027  18.375  0.00  0.00    +0.000 F 
BRANCH  26  31
ATOM     31  C   UNL     1       2.540   2.902  20.732  0.00  0.00    +0.000 C 
ATOM     32  F   UNL     1       1.851   2.015  19.963  0.00  0.00    +0.000 F 
ATOM     33  F   UNL     1       3.753   2.331  20.964  0.00  0.00    +0.000 F 
ATOM     34  F   UNL     1       1.902   2.926  21.935  0.00  0.00    +0.000 F 
ENDBRANCH  26  31
ENDBRANCH   6  24
TORSDOF 5
ENDMDL
MODEL 4
REMARK VINA RESULT:      -8.3      4.818      9.674
REMARK  Name = 
REMARK  6 active torsions:
REMARK  status: ('A' for Active; 'I' for Inactive)
REMARK    1  A    between atoms: C_1  and  O_2
REMARK    2  A    between atoms: O_2  and  C_3
REMARK    3  A    between atoms: C_4  and  C_5
REMARK    4  A    between atoms: C_11  and  C_12
REMARK    5  A    between atoms: C_17  and  C_18
REMARK    6  A    between atoms: C_20  and  C_21
REMARK                            x       y       z     vdW  Elec       q    Type
REMARK                         _______ _______ _______ _____ _____    ______ ____
ROOT
ATOM      1  C   UNL     1       1.990   6.107  19.985  0.00  0.00    +0.000 A 
ATOM      2  C   UNL     1       1.300   4.990  19.576  0.00  0.00    +0.000 A 
ATOM      3  N   UNL     1       2.271   4.097  19.243  0.00  0.00    +0.000 N 
ATOM      4  C   UNL     1       3.488   4.655  19.516  0.00  0.00    +0.000 A 
ATOM      5  N   UNL     1       3.343   5.898  19.935  0.00  0.00    +0.000 NA
ATOM      6  C   UNL     1       4.760   3.892  19.325  0.00  0.00    +0.000 C 
ATOM      7  O   UNL     1       4.519   2.477  19.214  0.00  0.00    +0.000 OA
ATOM      8  C   UNL     1       3.421   2.082  18.394  0.00  0.00    +0.000 C 
ATOM      9  C   UNL     1       2.095   2.756  18.743  0.00  0.00    +0.000 C 
ENDROOT
BRANCH   1  16
ATOM     10  C   UNL     1       0.374  10.910  20.455  0.00  0.00    +0.000 A 
ATOM     11  C   UNL     1      -0.302  11.528  21.528  0.00  0.00    +0.000 A 
ATOM     12  C   UNL     1      -0.606  10.812  22.699  0.00  0.00    +0.000 A 
ATOM     13  C   UNL     1      -0.293   9.459  22.841  0.00  0.00    +0.000 A 
ATOM     14  C   UNL     1       0.358   8.850  21.772  0.00  0.00    +0.000 A 
ATOM     15  N   UNL     1       0.755   7.542  21.612  0.00  0.00    +0.000 N 
ATOM     16  C   UNL     1       1.410   7.388  20.423  0.00  0.00    +0.000 A 
ATOM     17  C   UNL     1       1.403   8.600  19.776  0.00  0.00    +0.000 A 
ATOM     18  C   UNL     1       0.713   9.538  20.609  0.00  0.00    +0.000 A 
ATOM     19  H   UNL     1       0.618   6.792  22.277  0.00  0.00    +0.000 HD
BRANCH  10  21
ATOM     20  C   UNL     1       1.834  12.285  19.113  0.00  0.00    +0.000 C 
ATOM     21  O   UNL     1       0.700  11.443  19.238  0.00  0.00    +0.000 OA
ENDBRANCH  10  21
BRANCH  11  22
ATOM     22  C   UNL     1      -0.753  12.889  21.505  0.00  0.00    +0.000 C 
ATOM     23  N   UNL     1      -1.139  13.985  21.458  0.00  0.00    +0.000 NA
ENDBRANCH  11  22
ENDBRANCH   1  16
BRANCH   6  24
ATOM     24  C   UNL     1       5.663   4.485  18.260  0.00  0.00    +0.000 A 
ATOM     25  C   UNL     1       5.418   4.186  16.903  0.00  0.00    +0.000 A 
ATOM     26  C   UNL     1       6.316   4.568  15.891  0.00  0.00    +0.000 A 
ATOM     27  C   UNL     1       7.470   5.281  16.244  0.00  0.00    +0.000 A 
ATOM     28  C   UNL     1       7.711   5.613  17.578  0.00  0.00    +0.000 A 
ATOM     29  C   UNL     1       6.812   5.217  18.568  0.00  0.00    +0.000 A 
ATOM     30  F   UNL     1       7.101   5.528  19.840  0.00  0.00    +0.000 F 
BRANCH  26  31
ATOM     31  C   UNL     1       6.068   4.188  14.449  0.00  0.00    +0.000 C 
ATOM     32  F   UNL     1       6.333   2.881  14.178  0.00  0.00    +0.000 F 
ATOM     33  F   UNL     1       4.776   4.393  14.073  0.00  0.00    +0.000 F 
ATOM     34  F   UNL     1       6.830   4.911  13.582  0.00  0.00    +0.000 F 
ENDBRANCH  26  31
ENDBRANCH   6  24
TORSDOF 5
ENDMDL
MODEL 5
REMARK VINA RESULT:      -8.2      1.014      1.865
REMARK  Name = 
REMARK  6 active torsions:
REMARK  status: ('A' for Active; 'I' for Inactive)
REMARK    1  A    between atoms: C_1  and  O_2
REMARK    2  A    between atoms: O_2  and  C_3
REMARK    3  A    between atoms: C_4  and  C_5
REMARK    4  A    between atoms: C_11  and  C_12
REMARK    5  A    between atoms: C_17  and  C_18
REMARK    6  A    between atoms: C_20  and  C_21
REMARK                            x       y       z     vdW  Elec       q    Type
REMARK                         _______ _______ _______ _____ _____    ______ ____
ROOT
ATOM      1  C   UNL     1       1.136   9.640  19.379  0.00  0.00    +0.000 A 
ATOM      2  C   UNL     1       1.818  10.714  18.856  0.00  0.00    +0.000 A 
ATOM      3  N   UNL     1       0.912  11.729  18.874  0.00  0.00    +0.000 N 
ATOM      4  C   UNL     1      -0.239  11.276  19.454  0.00  0.00    +0.000 A 
ATOM      5  N   UNL     1      -0.140   9.990  19.737  0.00  0.00    +0.000 NA
ATOM      6  C   UNL     1      -1.408  12.179  19.687  0.00  0.00    +0.000 C 
ATOM      7  O   UNL     1      -1.032  13.566  19.597  0.00  0.00    +0.000 OA
ATOM      8  C   UNL     1      -0.168  13.922  18.520  0.00  0.00    +0.000 C 
ATOM      9  C   UNL     1       1.107  13.085  18.428  0.00  0.00    +0.000 C 
ENDROOT
BRANCH   1  16
ATOM     10  C   UNL     1       3.645   5.220  19.108  0.00  0.00    +0.000 A 
ATOM     11  C   UNL     1       3.461   4.037  19.853  0.00  0.00    +0.000 A 
ATOM     12  C   UNL     1       2.450   3.946  20.826  0.00  0.00    +0.000 A 
ATOM     13  C   UNL     1       1.613   5.022  21.127  0.00  0.00    +0.000 A 
ATOM     14  C   UNL     1       1.812   6.193  20.401  0.00  0.00    +0.000 A 
ATOM     15  N   UNL     1       1.175   7.409  20.498  0.00  0.00    +0.000 N 
ATOM     16  C   UNL     1       1.650   8.271  19.551  0.00  0.00    +0.000 A 
ATOM     17  C   UNL     1       2.643   7.626  18.853  0.00  0.00    +0.000 A 
ATOM     18  C   UNL     1       2.778   6.309  19.399  0.00  0.00    +0.000 A 
ATOM     19  H   UNL     1       0.438   7.645  21.150  0.00  0.00    +0.000 HD
BRANCH  10  21
ATOM     20  C   UNL     1       4.467   4.980  16.851  0.00  0.00    +0.000 C 
ATOM     21  O   UNL     1       4.602   5.490  18.168  0.00  0.00    +0.000 OA
ENDBRANCH  10  21
BRANCH  11  22
ATOM     22  C   UNL     1       4.284   2.872  19.711  0.00  0.00    +0.000 C 
ATOM     23  N   UNL     1       4.925   1.906  19.606  0.00  0.00    +0.000 NA
ENDBRANCH  11  22
ENDBRANCH   1  16
BRANCH   6  24
ATOM     24  C   UNL     1      -2.640  11.786  18.895  0.00  0.00    +0.000 A 
ATOM     25  C   UNL     1      -2.485  11.126  17.658  0.00  0.00    +0.000 A 
ATOM     26  C   UNL     1      -3.578  10.889  16.807  0.00  0.00    +0.000 A 
ATOM     27  C   UNL     1      -4.854  11.302  17.213  0.00  0.00    +0.000 A 
ATOM     28  C   UNL     1      -5.030  11.927  18.449  0.00  0.00    +0.000 A 
ATOM     29  C   UNL     1      -3.931  12.161  19.275  0.00  0.00    +0.000 A 
ATOM     30  F   UNL     1      -4.142  12.796  20.438  0.00  0.00    +0.000 F 
BRANCH  26  31
ATOM     31  C   UNL     1      -3.384  10.234  15.459  0.00  0.00    +0.000 C 
ATOM     32  F   UNL     1      -2.577  10.941  14.621  0.00  0.00    +0.000 F 
ATOM     33  F   UNL     1      -2.827   8.996  15.557  0.00  0.00    +0.000 F 
ATOM     34  F   UNL     1      -4.558  10.064  14.789  0.00  0.00    +0.000 F 
ENDBRANCH  26  31
ENDBRANCH   6  24
TORSDOF 5
ENDMDL
MODEL 6
REMARK VINA RESULT:      -7.9      4.820      9.534
REMARK  Name = 
REMARK  6 active torsions:
REMARK  status: ('A' for Active; 'I' for Inactive)
REMARK    1  A    between atoms: C_1  and  O_2
REMARK    2  A    between atoms: O_2  and  C_3
REMARK    3  A    between atoms: C_4  and  C_5
REMARK    4  A    between atoms: C_11  and  C_12
REMARK    5  A    between atoms: C_17  and  C_18
REMARK    6  A    between atoms: C_20  and  C_21
REMARK                            x       y       z     vdW  Elec       q    Type
REMARK                         _______ _______ _______ _____ _____    ______ ____
ROOT
ATOM      1  C   UNL     1       2.363   6.388  18.816  0.00  0.00    +0.000 A 
ATOM      2  C   UNL     1       1.578   5.281  18.597  0.00  0.00    +0.000 A 
ATOM      3  N   UNL     1       2.455   4.319  18.201  0.00  0.00    +0.000 N 
ATOM      4  C   UNL     1       3.719   4.833  18.256  0.00  0.00    +0.000 A 
ATOM      5  N   UNL     1       3.686   6.109  18.593  0.00  0.00    +0.000 NA
ATOM      6  C   UNL     1       4.920   3.996  17.948  0.00  0.00    +0.000 C 
ATOM      7  O   UNL     1       4.610   2.591  17.983  0.00  0.00    +0.000 OA
ATOM      8  C   UNL     1       3.390   2.193  17.359  0.00  0.00    +0.000 C 
ATOM      9  C   UNL     1       2.156   2.956  17.837  0.00  0.00    +0.000 C 
ENDROOT
BRANCH   1  16
ATOM     10  C   UNL     1       0.739  10.512  21.317  0.00  0.00    +0.000 A 
ATOM     11  C   UNL     1       0.434  11.799  20.824  0.00  0.00    +0.000 A 
ATOM     12  C   UNL     1       0.540  12.090  19.452  0.00  0.00    +0.000 A 
ATOM     13  C   UNL     1       0.983  11.144  18.526  0.00  0.00    +0.000 A 
ATOM     14  C   UNL     1       1.298   9.882  19.022  0.00  0.00    +0.000 A 
ATOM     15  N   UNL     1       1.785   8.775  18.365  0.00  0.00    +0.000 N 
ATOM     16  C   UNL     1       1.903   7.725  19.231  0.00  0.00    +0.000 A 
ATOM     17  C   UNL     1       1.532   8.162  20.479  0.00  0.00    +0.000 A 
ATOM     18  C   UNL     1       1.168   9.543  20.370  0.00  0.00    +0.000 A 
ATOM     19  H   UNL     1       2.005   8.715  17.380  0.00  0.00    +0.000 HD
BRANCH  10  21
ATOM     20  C   UNL     1      -0.480   9.681  23.228  0.00  0.00    +0.000 C 
ATOM     21  O   UNL     1       0.736  10.079  22.614  0.00  0.00    +0.000 OA
ENDBRANCH  10  21
BRANCH  11  22
ATOM     22  C   UNL     1       0.036  12.896  21.657  0.00  0.00    +0.000 C 
ATOM     23  N   UNL     1      -0.308  13.764  22.351  0.00  0.00    +0.000 NA
ENDBRANCH  11  22
ENDBRANCH   1  16
BRANCH   6  24
ATOM     24  C   UNL     1       5.682   4.465  16.723  0.00  0.00    +0.000 A 
ATOM     25  C   UNL     1       5.334   3.953  15.455  0.00  0.00    +0.000 A 
ATOM     26  C   UNL     1       6.110   4.222  14.315  0.00  0.00    +0.000 A 
ATOM     27  C   UNL     1       7.244   5.036  14.443  0.00  0.00    +0.000 A 
ATOM     28  C   UNL     1       7.583   5.577  15.684  0.00  0.00    +0.000 A 
ATOM     29  C   UNL     1       6.805   5.292  16.806  0.00  0.00    +0.000 A 
ATOM     30  F   UNL     1       7.189   5.805  17.984  0.00  0.00    +0.000 F 
BRANCH  26  31
ATOM     31  C   UNL     1       5.756   3.616  12.975  0.00  0.00    +0.000 C 
ATOM     32  F   UNL     1       6.519   4.083  11.949  0.00  0.00    +0.000 F 
ATOM     33  F   UNL     1       5.901   2.263  12.962  0.00  0.00    +0.000 F 
ATOM     34  F   UNL     1       4.464   3.859  12.620  0.00  0.00    +0.000 F 
ENDBRANCH  26  31
ENDBRANCH   6  24
TORSDOF 5
ENDMDL
MODEL 7
REMARK VINA RESULT:      -7.9      1.283      2.385
REMARK  Name = 
REMARK  6 active torsions:
REMARK  status: ('A' for Active; 'I' for Inactive)
REMARK    1  A    between atoms: C_1  and  O_2
REMARK    2  A    between atoms: O_2  and  C_3
REMARK    3  A    between atoms: C_4  and  C_5
REMARK    4  A    between atoms: C_11  and  C_12
REMARK    5  A    between atoms: C_17  and  C_18
REMARK    6  A    between atoms: C_20  and  C_21
REMARK                            x       y       z     vdW  Elec       q    Type
REMARK                         _______ _______ _______ _____ _____    ______ ____
ROOT
ATOM      1  C   UNL     1       1.166  10.157  18.947  0.00  0.00    +0.000 A 
ATOM      2  C   UNL     1       1.729  11.381  18.673  0.00  0.00    +0.000 A 
ATOM      3  N   UNL     1       0.712  12.267  18.849  0.00  0.00    +0.000 N 
ATOM      4  C   UNL     1      -0.390  11.584  19.280  0.00  0.00    +0.000 A 
ATOM      5  N   UNL     1      -0.148  10.286  19.311  0.00  0.00    +0.000 NA
ATOM      6  C   UNL     1      -1.661  12.289  19.633  0.00  0.00    +0.000 C 
ATOM      7  O   UNL     1      -1.447  13.699  19.831  0.00  0.00    +0.000 OA
ATOM      8  C   UNL     1      -0.608  14.355  18.882  0.00  0.00    +0.000 C 
ATOM      9  C   UNL     1       0.757  13.698  18.683  0.00  0.00    +0.000 C 
ENDROOT
BRANCH   1  16
ATOM     10  C   UNL     1       2.879   5.422  19.686  0.00  0.00    +0.000 A 
ATOM     11  C   UNL     1       3.782   4.663  18.913  0.00  0.00    +0.000 A 
ATOM     12  C   UNL     1       4.374   5.203  17.757  0.00  0.00    +0.000 A 
ATOM     13  C   UNL     1       4.071   6.488  17.302  0.00  0.00    +0.000 A 
ATOM     14  C   UNL     1       3.165   7.224  18.060  0.00  0.00    +0.000 A 
ATOM     15  N   UNL     1       2.657   8.485  17.844  0.00  0.00    +0.000 N 
ATOM     16  C   UNL     1       1.833   8.846  18.872  0.00  0.00    +0.000 A 
ATOM     17  C   UNL     1       1.765   7.791  19.750  0.00  0.00    +0.000 A 
ATOM     18  C   UNL     1       2.588   6.738  19.235  0.00  0.00    +0.000 A 
ATOM     19  H   UNL     1       2.869   9.087  17.060  0.00  0.00    +0.000 HD
BRANCH  10  21
ATOM     20  C   UNL     1       1.106   4.120  20.682  0.00  0.00    +0.000 C 
ATOM     21  O   UNL     1       2.184   5.036  20.799  0.00  0.00    +0.000 OA
ENDBRANCH  10  21
BRANCH  11  22
ATOM     22  C   UNL     1       4.138   3.306  19.209  0.00  0.00    +0.000 C 
ATOM     23  N   UNL     1       4.396   2.201  19.466  0.00  0.00    +0.000 NA
ENDBRANCH  11  22
ENDBRANCH   1  16
BRANCH   6  24
ATOM     24  C   UNL     1      -2.822  11.928  18.728  0.00  0.00    +0.000 A 
ATOM     25  C   UNL     1      -4.104  11.744  19.288  0.00  0.00    +0.000 A 
ATOM     26  C   UNL     1      -5.176  11.247  18.526  0.00  0.00    +0.000 A 
ATOM     27  C   UNL     1      -4.965  10.948  17.174  0.00  0.00    +0.000 A 
ATOM     28  C   UNL     1      -3.712  11.155  16.596  0.00  0.00    +0.000 A 
ATOM     29  C   UNL     1      -2.658  11.641  17.370  0.00  0.00    +0.000 A 
ATOM     30  F   UNL     1      -1.462  11.791  16.781  0.00  0.00    +0.000 F 
BRANCH  26  31
ATOM     31  C   UNL     1      -6.527  11.000  19.158  0.00  0.00    +0.000 C 
ATOM     32  F   UNL     1      -7.507  11.818  18.684  0.00  0.00    +0.000 F 
ATOM     33  F   UNL     1      -6.972   9.730  18.955  0.00  0.00    +0.000 F 
ATOM     34  F   UNL     1      -6.511  11.181  20.508  0.00  0.00    +0.000 F 
ENDBRANCH  26  31
ENDBRANCH   6  24
TORSDOF 5
ENDMDL
MODEL 8
REMARK VINA RESULT:      -7.9      6.050      9.270
REMARK  Name = 
REMARK  6 active torsions:
REMARK  status: ('A' for Active; 'I' for Inactive)
REMARK    1  A    between atoms: C_1  and  O_2
REMARK    2  A    between atoms: O_2  and  C_3
REMARK    3  A    between atoms: C_4  and  C_5
REMARK    4  A    between atoms: C_11  and  C_12
REMARK    5  A    between atoms: C_17  and  C_18
REMARK    6  A    between atoms: C_20  and  C_21
REMARK                            x       y       z     vdW  Elec       q    Type
REMARK                         _______ _______ _______ _____ _____    ______ ____
ROOT
ATOM      1  C   UNL     1       7.824   8.420  18.016  0.00  0.00    +0.000 A 
ATOM      2  C   UNL     1       8.334   7.144  18.065  0.00  0.00    +0.000 A 
ATOM      3  N   UNL     1       7.294   6.351  17.689  0.00  0.00    +0.000 N 
ATOM      4  C   UNL     1       6.233   7.148  17.365  0.00  0.00    +0.000 A 
ATOM      5  N   UNL     1       6.520   8.417  17.594  0.00  0.00    +0.000 NA
ATOM      6  C   UNL     1       4.954   6.577  16.843  0.00  0.00    +0.000 C 
ATOM      7  O   UNL     1       5.127   5.224  16.382  0.00  0.00    +0.000 OA
ATOM      8  C   UNL     1       5.906   4.364  17.211  0.00  0.00    +0.000 C 
ATOM      9  C   UNL     1       7.284   4.914  17.575  0.00  0.00    +0.000 C 
ENDROOT
BRANCH   1  16
ATOM     10  C   UNL     1       9.592  13.179  18.372  0.00  0.00    +0.000 A 
ATOM     11  C   UNL     1      10.585  13.706  19.225  0.00  0.00    +0.000 A 
ATOM     12  C   UNL     1      11.268  12.880  20.135  0.00  0.00    +0.000 A 
ATOM     13  C   UNL     1      10.973  11.522  20.267  0.00  0.00    +0.000 A 
ATOM     14  C   UNL     1       9.980  11.012  19.436  0.00  0.00    +0.000 A 
ATOM     15  N   UNL     1       9.458   9.741  19.364  0.00  0.00    +0.000 N 
ATOM     16  C   UNL     1       8.531   9.664  18.364  0.00  0.00    +0.000 A 
ATOM     17  C   UNL     1       8.411  10.913  17.803  0.00  0.00    +0.000 A 
ATOM     18  C   UNL     1       9.308  11.791  18.491  0.00  0.00    +0.000 A 
ATOM     19  H   UNL     1       9.727   8.953  19.940  0.00  0.00    +0.000 HD
BRANCH  10  21
ATOM     20  C   UNL     1       7.608  14.472  17.903  0.00  0.00    +0.000 C 
ATOM     21  O   UNL     1       8.806  13.846  17.473  0.00  0.00    +0.000 OA
ENDBRANCH  10  21
BRANCH  11  22
ATOM     22  C   UNL     1      10.949  15.092  19.259  0.00  0.00    +0.000 C 
ATOM     23  N   UNL     1      11.229  16.220  19.318  0.00  0.00    +0.000 NA
ENDBRANCH  11  22
ENDBRANCH   1  16
BRANCH   6  24
ATOM     24  C   UNL     1       3.772   6.804  17.765  0.00  0.00    +0.000 A 
ATOM     25  C   UNL     1       2.980   7.961  17.601  0.00  0.00    +0.000 A 
ATOM     26  C   UNL     1       1.980   8.306  18.527  0.00  0.00    +0.000 A 
ATOM     27  C   UNL     1       1.755   7.466  19.626  0.00  0.00    +0.000 A 
ATOM     28  C   UNL     1       2.507   6.301  19.785  0.00  0.00    +0.000 A 
ATOM     29  C   UNL     1       3.501   5.979  18.860  0.00  0.00    +0.000 A 
ATOM     30  F   UNL     1       4.222   4.869  19.072  0.00  0.00    +0.000 F 
BRANCH  26  31
ATOM     31  C   UNL     1       1.182   9.579  18.368  0.00  0.00    +0.000 C 
ATOM     32  F   UNL     1       1.915  10.626  17.897  0.00  0.00    +0.000 F 
ATOM     33  F   UNL     1       0.140   9.435  17.504  0.00  0.00    +0.000 F 
ATOM     34  F   UNL     1       0.639  10.004  19.542  0.00  0.00    +0.000 F 
ENDBRANCH  26  31
ENDBRANCH   6  24
TORSDOF 5
ENDMDL
MODEL 9
REMARK VINA RESULT:      -7.9      1.835      2.859
REMARK  Name = 
REMARK  6 active torsions:
REMARK  status: ('A' for Active; 'I' for Inactive)
REMARK    1  A    between atoms: C_1  and  O_2
REMARK    2  A    between atoms: O_2  and  C_3
REMARK    3  A    between atoms: C_4  and  C_5
REMARK    4  A    between atoms: C_11  and  C_12
REMARK    5  A    between atoms: C_17  and  C_18
REMARK    6  A    between atoms: C_20  and  C_21
REMARK                            x       y       z     vdW  Elec       q    Type
REMARK                         _______ _______ _______ _____ _____    ______ ____
ROOT
ATOM      1  C   UNL     1       1.577   9.573  19.368  0.00  0.00    +0.000 A 
ATOM      2  C   UNL     1       2.008  10.472  18.420  0.00  0.00    +0.000 A 
ATOM      3  N   UNL     1       1.454  11.655  18.802  0.00  0.00    +0.000 N 
ATOM      4  C   UNL     1       0.779  11.462  19.974  0.00  0.00    +0.000 A 
ATOM      5  N   UNL     1       0.808  10.188  20.321  0.00  0.00    +0.000 NA
ATOM      6  C   UNL     1       0.117  12.594  20.692  0.00  0.00    +0.000 C 
ATOM      7  O   UNL     1       0.597  13.870  20.229  0.00  0.00    +0.000 OA
ATOM      8  C   UNL     1       0.743  14.020  18.818  0.00  0.00    +0.000 C 
ATOM      9  C   UNL     1       1.581  12.933  18.148  0.00  0.00    +0.000 C 
ENDROOT
BRANCH   1  16
ATOM     10  C   UNL     1       2.931   4.765  18.394  0.00  0.00    +0.000 A 
ATOM     11  C   UNL     1       2.857   3.626  19.224  0.00  0.00    +0.000 A 
ATOM     12  C   UNL     1       2.329   3.713  20.524  0.00  0.00    +0.000 A 
ATOM     13  C   UNL     1       1.893   4.923  21.067  0.00  0.00    +0.000 A 
ATOM     14  C   UNL     1       1.985   6.046  20.249  0.00  0.00    +0.000 A 
ATOM     15  N   UNL     1       1.669   7.358  20.517  0.00  0.00    +0.000 N 
ATOM     16  C   UNL     1       1.864   8.129  19.406  0.00  0.00    +0.000 A 
ATOM     17  C   UNL     1       2.357   7.319  18.411  0.00  0.00    +0.000 A 
ATOM     18  C   UNL     1       2.465   5.992  18.939  0.00  0.00    +0.000 A 
ATOM     19  H   UNL     1       1.315   7.719  21.393  0.00  0.00    +0.000 HD
BRANCH  10  21
ATOM     20  C   UNL     1       4.850   5.058  16.960  0.00  0.00    +0.000 C 
ATOM     21  O   UNL     1       3.455   4.864  17.135  0.00  0.00    +0.000 OA
ENDBRANCH  10  21
BRANCH  11  22
ATOM     22  C   UNL     1       3.331   2.329  18.837  0.00  0.00    +0.000 C 
ATOM     23  N   UNL     1       3.745   1.283  18.542  0.00  0.00    +0.000 NA
ENDBRANCH  11  22
ENDBRANCH   1  16
BRANCH   6  24
ATOM     24  C   UNL     1      -1.391  12.456  20.771  0.00  0.00    +0.000 A 
ATOM     25  C   UNL     1      -2.116  12.117  19.609  0.00  0.00    +0.000 A 
ATOM     26  C   UNL     1      -3.522  12.140  19.585  0.00  0.00    +0.000 A 
ATOM     27  C   UNL     1      -4.213  12.489  20.753  0.00  0.00    +0.000 A 
ATOM     28  C   UNL     1      -3.513  12.796  21.920  0.00  0.00    +0.000 A 
ATOM     29  C   UNL     1      -2.118  12.775  21.922  0.00  0.00    +0.000 A 
ATOM     30  F   UNL     1      -1.485  13.111  23.056  0.00  0.00    +0.000 F 
BRANCH  26  31
ATOM     31  C   UNL     1      -4.281  11.832  18.315  0.00  0.00    +0.000 C 
ATOM     32  F   UNL     1      -5.239  12.752  18.017  0.00  0.00    +0.000 F 
ATOM     33  F   UNL     1      -3.468  11.773  17.225  0.00  0.00    +0.000 F 
ATOM     34  F   UNL     1      -4.921  10.631  18.370  0.00  0.00    +0.000 F 
ENDBRANCH  26  31
ENDBRANCH   6  24
TORSDOF 5
ENDMDL
