MODEL 1
REMARK VINA RESULT:      -7.8      0.000      0.000
REMARK  Name = 
REMARK  5 active torsions:
REMARK  status: ('A' for Active; 'I' for Inactive)
REMARK    1  A    between atoms: C_1  and  C_2
REMARK    2  A    between atoms: C_5  and  C_6
REMARK    3  A    between atoms: N_8  and  C_9
REMARK    4  A    between atoms: C_9  and  C_10
REMARK    5  A    between atoms: N_20  and  C_21
REMARK                            x       y       z     vdW  Elec       q    Type
REMARK                         _______ _______ _______ _____ _____    ______ ____
ROOT
ATOM      1  C   UNL     1       1.567   8.534  19.830  0.00  0.00    +0.000 C 
ATOM      2  O   UNL     1       1.665   9.071  18.738  0.00  0.00    +0.000 OA
ATOM      3  N   UNL     1       2.113   7.291  20.061  0.00  0.00    +0.000 N 
ATOM      4  H   UNL     1       2.132   6.918  21.001  0.00  0.00    +0.000 HD
ENDROOT
BRANCH   1   9
ATOM      5  C   UNL     1      -1.456  11.525  22.670  0.00  0.00    +0.000 C 
ATOM      6  C   UNL     1      -0.476  10.471  22.276  0.00  0.00    +0.000 A 
ATOM      7  C   UNL     1       0.232   9.618  23.092  0.00  0.00    +0.000 A 
ATOM      8  C   UNL     1       1.026   8.816  22.256  0.00  0.00    +0.000 A 
ATOM      9  C   UNL     1       0.834   9.186  20.926  0.00  0.00    +0.000 A 
ATOM     10  N   UNL     1      -0.137  10.185  20.953  0.00  0.00    +0.000 N 
BRANCH  10  11
ATOM     11  C   UNL     1      -0.823  10.829  19.835  0.00  0.00    +0.000 C 
ATOM     12  F   UNL     1       0.031  11.634  19.150  0.00  0.00    +0.000 F 
ATOM     13  F   UNL     1      -1.334   9.964  18.926  0.00  0.00    +0.000 F 
ENDBRANCH  10  11
ENDBRANCH   1   9
BRANCH   3  14
ATOM     14  C   UNL     1       2.927   6.602  19.062  0.00  0.00    +0.000 C 
BRANCH  14  15
ATOM     15  C   UNL     1       3.820   5.487  19.663  0.00  0.00    +0.000 C 
ATOM     16  C   UNL     1       5.162   5.366  18.934  0.00  0.00    +0.000 C 
ATOM     17  C   UNL     1       5.037   4.814  17.518  0.00  0.00    +0.000 C 
ATOM     18  C   UNL     1       3.784   3.984  17.205  0.00  0.00    +0.000 C 
ATOM     19  N   UNL     1       2.851   3.680  18.277  0.00  0.00    +0.000 NA
ATOM     20  C   UNL     1       2.054   2.479  18.055  0.00  0.00    +0.000 C 
ATOM     21  C   UNL     1       0.816   2.456  18.946  0.00  0.00    +0.000 C 
ATOM     22  C   UNL     1       1.192   2.669  20.404  0.00  0.00    +0.000 C 
ATOM     23  C   UNL     1       1.908   4.010  20.537  0.00  0.00    +0.000 C 
ATOM     24  C   UNL     1       3.166   4.072  19.646  0.00  0.00    +0.000 C 
ENDBRANCH  14  15
ENDBRANCH   3  14
TORSDOF 4
ENDMDL
MODEL 2
REMARK VINA RESULT:      -7.8      1.494      1.957
REMARK  Name = 
REMARK  5 active torsions:
REMARK  status: ('A' for Active; 'I' for Inactive)
REMARK    1  A    between atoms: C_1  and  C_2
REMARK    2  A    between atoms: C_5  and  C_6
REMARK    3  A    between atoms: N_8  and  C_9
REMARK    4  A    between atoms: C_9  and  C_10
REMARK    5  A    between atoms: N_20  and  C_21
REMARK                            x       y       z     vdW  Elec       q    Type
REMARK                         _______ _______ _______ _____ _____    ______ ____
ROOT
ATOM      1  C   UNL     1       1.880   8.734  18.511  0.00  0.00    +0.000 C 
ATOM      2  O   UNL     1       2.125   8.925  17.330  0.00  0.00    +0.000 OA
ATOM      3  N   UNL     1       2.256   7.564  19.133  0.00  0.00    +0.000 N 
ATOM      4  H   UNL     1       2.157   7.474  20.135  0.00  0.00    +0.000 HD
ENDROOT
BRANCH   1   9
ATOM      5  C   UNL     1      -0.879  11.202  22.039  0.00  0.00    +0.000 C 
ATOM      6  C   UNL     1      -0.079  10.920  20.811  0.00  0.00    +0.000 A 
ATOM      7  C   UNL     1       0.225  11.776  19.778  0.00  0.00    +0.000 A 
ATOM      8  C   UNL     1       0.994  11.048  18.855  0.00  0.00    +0.000 A 
ATOM      9  C   UNL     1       1.145   9.736  19.299  0.00  0.00    +0.000 A 
ATOM     10  N   UNL     1       0.512   9.686  20.539  0.00  0.00    +0.000 N 
BRANCH  10  11
ATOM     11  C   UNL     1       0.488   8.598  21.515  0.00  0.00    +0.000 C 
ATOM     12  F   UNL     1       1.046   8.997  22.688  0.00  0.00    +0.000 F 
ATOM     13  F   UNL     1      -0.756   8.157  21.822  0.00  0.00    +0.000 F 
ENDBRANCH  10  11
ENDBRANCH   1   9
BRANCH   3  14
ATOM     14  C   UNL     1       3.058   6.547  18.455  0.00  0.00    +0.000 C 
BRANCH  14  15
ATOM     15  C   UNL     1       3.782   5.588  19.434  0.00  0.00    +0.000 C 
ATOM     16  C   UNL     1       5.230   5.318  19.011  0.00  0.00    +0.000 C 
ATOM     17  C   UNL     1       5.348   4.477  17.745  0.00  0.00    +0.000 C 
ATOM     18  C   UNL     1       4.144   3.596  17.382  0.00  0.00    +0.000 C 
ATOM     19  N   UNL     1       3.019   3.524  18.300  0.00  0.00    +0.000 NA
ATOM     20  C   UNL     1       2.232   2.302  18.188  0.00  0.00    +0.000 C 
ATOM     21  C   UNL     1       0.851   2.465  18.815  0.00  0.00    +0.000 C 
ATOM     22  C   UNL     1       0.960   2.985  20.240  0.00  0.00    +0.000 C 
ATOM     23  C   UNL     1       1.688   4.325  20.222  0.00  0.00    +0.000 C 
ATOM     24  C   UNL     1       3.091   4.200  19.590  0.00  0.00    +0.000 C 
ENDBRANCH  14  15
ENDBRANCH   3  14
TORSDOF 4
ENDMDL
MODEL 3
REMARK VINA RESULT:      -7.5      1.296      1.597
REMARK  Name = 
REMARK  5 active torsions:
REMARK  status: ('A' for Active; 'I' for Inactive)
REMARK    1  A    between atoms: C_1  and  C_2
REMARK    2  A    between atoms: C_5  and  C_6
REMARK    3  A    between atoms: N_8  and  C_9
REMARK    4  A    between atoms: C_9  and  C_10
REMARK    5  A    between atoms: N_20  and  C_21
REMARK                            x       y       z     vdW  Elec       q    Type
REMARK                         _______ _______ _______ _____ _____    ______ ____
ROOT
ATOM      1  C   UNL     1       1.667   8.865  18.512  0.00  0.00    +0.000 C 
ATOM      2  O   UNL     1       2.099   9.192  17.418  0.00  0.00    +0.000 OA
ATOM      3  N   UNL     1       1.959   7.631  19.050  0.00  0.00    +0.000 N 
ATOM      4  H   UNL     1       1.698   7.426  20.005  0.00  0.00    +0.000 HD
ENDROOT
BRANCH   1   9
ATOM      5  C   UNL     1      -2.028  12.048  20.049  0.00  0.00    +0.000 C 
ATOM      6  C   UNL     1      -0.804  11.195  20.053  0.00  0.00    +0.000 A 
ATOM      7  C   UNL     1       0.112  11.024  21.065  0.00  0.00    +0.000 A 
ATOM      8  C   UNL     1       1.087  10.131  20.590  0.00  0.00    +0.000 A 
ATOM      9  C   UNL     1       0.793   9.769  19.276  0.00  0.00    +0.000 A 
ATOM     10  N   UNL     1      -0.410  10.402  18.974  0.00  0.00    +0.000 N 
BRANCH  10  11
ATOM     11  C   UNL     1      -1.252  10.257  17.788  0.00  0.00    +0.000 C 
ATOM     12  F   UNL     1      -2.393   9.586  18.092  0.00  0.00    +0.000 F 
ATOM     13  F   UNL     1      -1.642  11.433  17.240  0.00  0.00    +0.000 F 
ENDBRANCH  10  11
ENDBRANCH   1   9
BRANCH   3  14
ATOM     14  C   UNL     1       2.882   6.701  18.403  0.00  0.00    +0.000 C 
BRANCH  14  15
ATOM     15  C   UNL     1       3.626   5.783  19.406  0.00  0.00    +0.000 C 
ATOM     16  C   UNL     1       5.086   5.552  19.001  0.00  0.00    +0.000 C 
ATOM     17  C   UNL     1       5.242   4.691  17.752  0.00  0.00    +0.000 C 
ATOM     18  C   UNL     1       4.070   3.766  17.395  0.00  0.00    +0.000 C 
ATOM     19  N   UNL     1       2.939   3.675  18.304  0.00  0.00    +0.000 NA
ATOM     20  C   UNL     1       2.192   2.426  18.208  0.00  0.00    +0.000 C 
ATOM     21  C   UNL     1       0.801   2.558  18.820  0.00  0.00    +0.000 C 
ATOM     22  C   UNL     1       0.880   3.107  20.236  0.00  0.00    +0.000 C 
ATOM     23  C   UNL     1       1.566   4.469  20.199  0.00  0.00    +0.000 C 
ATOM     24  C   UNL     1       2.978   4.377  19.582  0.00  0.00    +0.000 C 
ENDBRANCH  14  15
ENDBRANCH   3  14
TORSDOF 4
ENDMDL
MODEL 4
REMARK VINA RESULT:      -7.3      1.510      2.655
REMARK  Name = 
REMARK  5 active torsions:
REMARK  status: ('A' for Active; 'I' for Inactive)
REMARK    1  A    between atoms: C_1  and  C_2
REMARK    2  A    between atoms: C_5  and  C_6
REMARK    3  A    between atoms: N_8  and  C_9
REMARK    4  A    between atoms: C_9  and  C_10
REMARK    5  A    between atoms: N_20  and  C_21
REMARK                            x       y       z     vdW  Elec       q    Type
REMARK                         _______ _______ _______ _____ _____    ______ ____
ROOT
ATOM      1  C   UNL     1       1.676   7.822  20.292  0.00  0.00    +0.000 C 
ATOM      2  O   UNL     1       2.382   7.825  19.297  0.00  0.00    +0.000 OA
ATOM      3  N   UNL     1       1.533   6.687  21.058  0.00  0.00    +0.000 N 
ATOM      4  H   UNL     1       1.047   6.735  21.943  0.00  0.00    +0.000 HD
ENDROOT
BRANCH   1   9
ATOM      5  C   UNL     1      -0.681  12.358  20.438  0.00  0.00    +0.000 C 
ATOM      6  C   UNL     1      -0.142  11.030  20.853  0.00  0.00    +0.000 A 
ATOM      7  C   UNL     1      -0.188  10.443  22.096  0.00  0.00    +0.000 A 
ATOM      8  C   UNL     1       0.457   9.200  21.987  0.00  0.00    +0.000 A 
ATOM      9  C   UNL     1       0.926   9.026  20.687  0.00  0.00    +0.000 A 
ATOM     10  N   UNL     1       0.505  10.151  19.983  0.00  0.00    +0.000 N 
BRANCH  10  11
ATOM     11  C   UNL     1       0.594  10.426  18.550  0.00  0.00    +0.000 C 
ATOM     12  F   UNL     1       1.881  10.672  18.191  0.00  0.00    +0.000 F 
ATOM     13  F   UNL     1       0.173   9.406  17.764  0.00  0.00    +0.000 F 
ENDBRANCH  10  11
ENDBRANCH   1   9
BRANCH   3  14
ATOM     14  C   UNL     1       2.298   5.470  20.792  0.00  0.00    +0.000 C 
BRANCH  14  15
ATOM     15  C   UNL     1       1.421   4.293  20.295  0.00  0.00    +0.000 C 
ATOM     16  C   UNL     1       1.211   3.232  21.380  0.00  0.00    +0.000 C 
ATOM     17  C   UNL     1       2.473   2.445  21.715  0.00  0.00    +0.000 C 
ATOM     18  C   UNL     1       3.571   2.404  20.642  0.00  0.00    +0.000 C 
ATOM     19  N   UNL     1       3.316   3.012  19.347  0.00  0.00    +0.000 NA
ATOM     20  C   UNL     1       4.113   2.459  18.258  0.00  0.00    +0.000 C 
ATOM     21  C   UNL     1       4.151   3.400  17.058  0.00  0.00    +0.000 C 
ATOM     22  C   UNL     1       2.745   3.797  16.635  0.00  0.00    +0.000 C 
ATOM     23  C   UNL     1       2.051   4.477  17.811  0.00  0.00    +0.000 C 
ATOM     24  C   UNL     1       1.996   3.556  19.048  0.00  0.00    +0.000 C 
ENDBRANCH  14  15
ENDBRANCH   3  14
TORSDOF 4
ENDMDL
MODEL 5
REMARK VINA RESULT:      -7.2      1.213      2.611
REMARK  Name = 
REMARK  5 active torsions:
REMARK  status: ('A' for Active; 'I' for Inactive)
REMARK    1  A    between atoms: C_1  and  C_2
REMARK    2  A    between atoms: C_5  and  C_6
REMARK    3  A    between atoms: N_8  and  C_9
REMARK    4  A    between atoms: C_9  and  C_10
REMARK    5  A    between atoms: N_20  and  C_21
REMARK                            x       y       z     vdW  Elec       q    Type
REMARK                         _______ _______ _______ _____ _____    ______ ____
ROOT
ATOM      1  C   UNL     1       1.273   8.295  20.621  0.00  0.00    +0.000 C 
ATOM      2  O   UNL     1       1.841   8.518  19.563  0.00  0.00    +0.000 OA
ATOM      3  N   UNL     1       1.386   7.071  21.242  0.00  0.00    +0.000 N 
ATOM      4  H   UNL     1       1.015   6.944  22.174  0.00  0.00    +0.000 HD
ENDROOT
BRANCH   1   9
ATOM      5  C   UNL     1      -1.677  12.353  21.608  0.00  0.00    +0.000 C 
ATOM      6  C   UNL     1      -0.892  11.097  21.790  0.00  0.00    +0.000 A 
ATOM      7  C   UNL     1      -0.665  10.395  22.951  0.00  0.00    +0.000 A 
ATOM      8  C   UNL     1       0.133   9.290  22.613  0.00  0.00    +0.000 A 
ATOM      9  C   UNL     1       0.423   9.317  21.250  0.00  0.00    +0.000 A 
ATOM     10  N   UNL     1      -0.260  10.421  20.745  0.00  0.00    +0.000 N 
BRANCH  10  11
ATOM     11  C   UNL     1      -0.428  10.841  19.355  0.00  0.00    +0.000 C 
ATOM     12  F   UNL     1       0.746  11.305  18.851  0.00  0.00    +0.000 F 
ATOM     13  F   UNL     1      -0.828   9.850  18.522  0.00  0.00    +0.000 F 
ENDBRANCH  10  11
ENDBRANCH   1   9
BRANCH   3  14
ATOM     14  C   UNL     1       2.271   6.022  20.737  0.00  0.00    +0.000 C 
BRANCH  14  15
ATOM     15  C   UNL     1       1.592   5.101  19.692  0.00  0.00    +0.000 C 
ATOM     16  C   UNL     1       0.824   3.950  20.351  0.00  0.00    +0.000 C 
ATOM     17  C   UNL     1       1.728   2.914  21.010  0.00  0.00    +0.000 C 
ATOM     18  C   UNL     1       3.176   2.834  20.505  0.00  0.00    +0.000 C 
ATOM     19  N   UNL     1       3.576   3.655  19.375  0.00  0.00    +0.000 NA
ATOM     20  C   UNL     1       4.713   3.130  18.626  0.00  0.00    +0.000 C 
ATOM     21  C   UNL     1       5.365   4.211  17.769  0.00  0.00    +0.000 C 
ATOM     22  C   UNL     1       4.334   4.905  16.893  0.00  0.00    +0.000 C 
ATOM     23  C   UNL     1       3.263   5.522  17.787  0.00  0.00    +0.000 C 
ATOM     24  C   UNL     1       2.582   4.458  18.674  0.00  0.00    +0.000 C 
ENDBRANCH  14  15
ENDBRANCH   3  14
TORSDOF 4
ENDMDL
MODEL 6
REMARK VINA RESULT:      -7.2      1.480      1.849
REMARK  Name = 
REMARK  5 active torsions:
REMARK  status: ('A' for Active; 'I' for Inactive)
REMARK    1  A    between atoms: C_1  and  C_2
REMARK    2  A    between atoms: C_5  and  C_6
REMARK    3  A    between atoms: N_8  and  C_9
REMARK    4  A    between atoms: C_9  and  C_10
REMARK    5  A    between atoms: N_20  and  C_21
REMARK                            x       y       z     vdW  Elec       q    Type
REMARK                         _______ _______ _______ _____ _____    ______ ____
ROOT
ATOM      1  C   UNL     1       1.809   8.902  18.588  0.00  0.00    +0.000 C 
ATOM      2  O   UNL     1       2.041   9.152  17.416  0.00  0.00    +0.000 OA
ATOM      3  N   UNL     1       2.141   7.682  19.133  0.00  0.00    +0.000 N 
ATOM      4  H   UNL     1       2.057   7.537  20.130  0.00  0.00    +0.000 HD
ENDROOT
BRANCH   1   9
ATOM      5  C   UNL     1       0.233  13.161  20.940  0.00  0.00    +0.000 C 
ATOM      6  C   UNL     1       0.374  11.725  20.557  0.00  0.00    +0.000 A 
ATOM      7  C   UNL     1      -0.247  10.631  21.113  0.00  0.00    +0.000 A 
ATOM      8  C   UNL     1       0.211   9.501  20.417  0.00  0.00    +0.000 A 
ATOM      9  C   UNL     1       1.136   9.888  19.448  0.00  0.00    +0.000 A 
ATOM     10  N   UNL     1       1.190  11.278  19.518  0.00  0.00    +0.000 N 
BRANCH  10  11
ATOM     11  C   UNL     1       1.884  12.215  18.637  0.00  0.00    +0.000 C 
ATOM     12  F   UNL     1       1.000  13.066  18.053  0.00  0.00    +0.000 F 
ATOM     13  F   UNL     1       2.796  12.995  19.267  0.00  0.00    +0.000 F 
ENDBRANCH  10  11
ENDBRANCH   1   9
BRANCH   3  14
ATOM     14  C   UNL     1       2.884   6.672  18.380  0.00  0.00    +0.000 C 
BRANCH  14  15
ATOM     15  C   UNL     1       3.703   5.717  19.284  0.00  0.00    +0.000 C 
ATOM     16  C   UNL     1       5.122   5.492  18.750  0.00  0.00    +0.000 C 
ATOM     17  C   UNL     1       5.165   4.675  17.463  0.00  0.00    +0.000 C 
ATOM     18  C   UNL     1       3.960   3.769  17.175  0.00  0.00    +0.000 C 
ATOM     19  N   UNL     1       2.909   3.652  18.173  0.00  0.00    +0.000 NA
ATOM     20  C   UNL     1       2.147   2.411  18.098  0.00  0.00    +0.000 C 
ATOM     21  C   UNL     1       0.813   2.528  18.829  0.00  0.00    +0.000 C 
ATOM     22  C   UNL     1       1.016   3.026  20.251  0.00  0.00    +0.000 C 
ATOM     23  C   UNL     1       1.706   4.386  20.203  0.00  0.00    +0.000 C 
ATOM     24  C   UNL     1       3.061   4.308  19.466  0.00  0.00    +0.000 C 
ENDBRANCH  14  15
ENDBRANCH   3  14
TORSDOF 4
ENDMDL
MODEL 7
REMARK VINA RESULT:      -7.2      1.981      3.400
REMARK  Name = 
REMARK  5 active torsions:
REMARK  status: ('A' for Active; 'I' for Inactive)
REMARK    1  A    between atoms: C_1  and  C_2
REMARK    2  A    between atoms: C_5  and  C_6
REMARK    3  A    between atoms: N_8  and  C_9
REMARK    4  A    between atoms: C_9  and  C_10
REMARK    5  A    between atoms: N_20  and  C_21
REMARK                            x       y       z     vdW  Elec       q    Type
REMARK                         _______ _______ _______ _____ _____    ______ ____
ROOT
ATOM      1  C   UNL     1       0.905   8.285  20.901  0.00  0.00    +0.000 C 
ATOM      2  O   UNL     1      -0.020   7.866  21.578  0.00  0.00    +0.000 OA
ATOM      3  N   UNL     1       1.955   7.465  20.550  0.00  0.00    +0.000 N 
ATOM      4  H   UNL     1       2.647   7.791  19.888  0.00  0.00    +0.000 HD
ENDROOT
BRANCH   1   9
ATOM      5  C   UNL     1       1.543  12.646  18.309  0.00  0.00    +0.000 C 
ATOM      6  C   UNL     1       1.197  11.685  19.396  0.00  0.00    +0.000 A 
ATOM      7  C   UNL     1       0.726  11.960  20.659  0.00  0.00    +0.000 A 
ATOM      8  C   UNL     1       0.556  10.728  21.311  0.00  0.00    +0.000 A 
ATOM      9  C   UNL     1       0.945   9.690  20.466  0.00  0.00    +0.000 A 
ATOM     10  N   UNL     1       1.296  10.299  19.264  0.00  0.00    +0.000 N 
BRANCH  10  11
ATOM     11  C   UNL     1       1.640   9.679  17.986  0.00  0.00    +0.000 C 
ATOM     12  F   UNL     1       2.891   9.151  18.032  0.00  0.00    +0.000 F 
ATOM     13  F   UNL     1       0.818   8.663  17.624  0.00  0.00    +0.000 F 
ENDBRANCH  10  11
ENDBRANCH   1   9
BRANCH   3  14
ATOM     14  C   UNL     1       1.965   6.038  20.866  0.00  0.00    +0.000 C 
BRANCH  14  15
ATOM     15  C   UNL     1       1.498   5.148  19.687  0.00  0.00    +0.000 C 
ATOM     16  C   UNL     1       0.778   3.884  20.169  0.00  0.00    +0.000 C 
ATOM     17  C   UNL     1       1.701   2.882  20.854  0.00  0.00    +0.000 C 
ATOM     18  C   UNL     1       3.195   2.971  20.516  0.00  0.00    +0.000 C 
ATOM     19  N   UNL     1       3.636   3.914  19.501  0.00  0.00    +0.000 NA
ATOM     20  C   UNL     1       4.893   3.555  18.855  0.00  0.00    +0.000 C 
ATOM     21  C   UNL     1       5.527   4.755  18.158  0.00  0.00    +0.000 C 
ATOM     22  C   UNL     1       4.535   5.423  17.219  0.00  0.00    +0.000 C 
ATOM     23  C   UNL     1       3.318   5.869  18.024  0.00  0.00    +0.000 C 
ATOM     24  C   UNL     1       2.650   4.681  18.748  0.00  0.00    +0.000 C 
ENDBRANCH  14  15
ENDBRANCH   3  14
TORSDOF 4
ENDMDL
MODEL 8
REMARK VINA RESULT:      -7.2      2.056      3.730
REMARK  Name = 
REMARK  5 active torsions:
REMARK  status: ('A' for Active; 'I' for Inactive)
REMARK    1  A    between atoms: C_1  and  C_2
REMARK    2  A    between atoms: C_5  and  C_6
REMARK    3  A    between atoms: N_8  and  C_9
REMARK    4  A    between atoms: C_9  and  C_10
REMARK    5  A    between atoms: N_20  and  C_21
REMARK                            x       y       z     vdW  Elec       q    Type
REMARK                         _______ _______ _______ _____ _____    ______ ____
ROOT
ATOM      1  C   UNL     1       1.605   8.104  20.310  0.00  0.00    +0.000 C 
ATOM      2  O   UNL     1       1.696   7.548  21.393  0.00  0.00    +0.000 OA
ATOM      3  N   UNL     1       2.233   7.594  19.195  0.00  0.00    +0.000 N 
ATOM      4  H   UNL     1       2.046   7.995  18.286  0.00  0.00    +0.000 HD
ENDROOT
BRANCH   1   9
ATOM      5  C   UNL     1      -1.520  12.099  20.963  0.00  0.00    +0.000 C 
ATOM      6  C   UNL     1      -0.515  11.172  20.366  0.00  0.00    +0.000 A 
ATOM      7  C   UNL     1       0.111  11.268  19.144  0.00  0.00    +0.000 A 
ATOM      8  C   UNL     1       0.964  10.157  19.032  0.00  0.00    +0.000 A 
ATOM      9  C   UNL     1       0.849   9.359  20.169  0.00  0.00    +0.000 A 
ATOM     10  N   UNL     1      -0.039  10.028  21.008  0.00  0.00    +0.000 N 
BRANCH  10  11
ATOM     11  C   UNL     1      -0.411   9.718  22.387  0.00  0.00    +0.000 C 
ATOM     12  F   UNL     1      -0.995   8.494  22.460  0.00  0.00    +0.000 F 
ATOM     13  F   UNL     1       0.635   9.688  23.248  0.00  0.00    +0.000 F 
ENDBRANCH  10  11
ENDBRANCH   1   9
BRANCH   3  14
ATOM     14  C   UNL     1       2.937   6.313  19.219  0.00  0.00    +0.000 C 
BRANCH  14  15
ATOM     15  C   UNL     1       3.177   5.721  17.807  0.00  0.00    +0.000 C 
ATOM     16  C   UNL     1       2.568   4.323  17.657  0.00  0.00    +0.000 C 
ATOM     17  C   UNL     1       3.288   3.255  18.473  0.00  0.00    +0.000 C 
ATOM     18  C   UNL     1       4.743   3.546  18.868  0.00  0.00    +0.000 C 
ATOM     19  N   UNL     1       5.384   4.750  18.364  0.00  0.00    +0.000 NA
ATOM     20  C   UNL     1       6.839   4.669  18.294  0.00  0.00    +0.000 C 
ATOM     21  C   UNL     1       7.473   6.054  18.206  0.00  0.00    +0.000 C 
ATOM     22  C   UNL     1       6.858   6.861  17.073  0.00  0.00    +0.000 C 
ATOM     23  C   UNL     1       5.358   6.987  17.315  0.00  0.00    +0.000 C 
ATOM     24  C   UNL     1       4.680   5.604  17.414  0.00  0.00    +0.000 C 
ENDBRANCH  14  15
ENDBRANCH   3  14
TORSDOF 4
ENDMDL
MODEL 9
REMARK VINA RESULT:      -7.2      1.875      3.222
REMARK  Name = 
REMARK  5 active torsions:
REMARK  status: ('A' for Active; 'I' for Inactive)
REMARK    1  A    between atoms: C_1  and  C_2
REMARK    2  A    between atoms: C_5  and  C_6
REMARK    3  A    between atoms: N_8  and  C_9
REMARK    4  A    between atoms: C_9  and  C_10
REMARK    5  A    between atoms: N_20  and  C_21
REMARK                            x       y       z     vdW  Elec       q    Type
REMARK                         _______ _______ _______ _____ _____    ______ ____
ROOT
ATOM      1  C   UNL     1       1.931   7.706  19.768  0.00  0.00    +0.000 C 
ATOM      2  O   UNL     1       2.850   7.482  18.997  0.00  0.00    +0.000 OA
ATOM      3  N   UNL     1       1.507   6.749  20.663  0.00  0.00    +0.000 N 
ATOM      4  H   UNL     1       0.832   6.992  21.376  0.00  0.00    +0.000 HD
ENDROOT
BRANCH   1   9
ATOM      5  C   UNL     1      -0.718  11.921  20.935  0.00  0.00    +0.000 C 
ATOM      6  C   UNL     1       0.048  10.901  20.162  0.00  0.00    +0.000 A 
ATOM      7  C   UNL     1       0.333  10.889  18.816  0.00  0.00    +0.000 A 
ATOM      8  C   UNL     1       1.072   9.722  18.563  0.00  0.00    +0.000 A 
ATOM      9  C   UNL     1       1.225   8.996  19.742  0.00  0.00    +0.000 A 
ATOM     10  N   UNL     1       0.623   9.765  20.735  0.00  0.00    +0.000 N 
BRANCH  10  11
ATOM     11  C   UNL     1       0.615   9.556  22.182  0.00  0.00    +0.000 C 
ATOM     12  F   UNL     1      -0.301   8.611  22.522  0.00  0.00    +0.000 F 
ATOM     13  F   UNL     1       1.798   9.130  22.686  0.00  0.00    +0.000 F 
ENDBRANCH  10  11
ENDBRANCH   1   9
BRANCH   3  14
ATOM     14  C   UNL     1       2.198   5.470  20.818  0.00  0.00    +0.000 C 
BRANCH  14  15
ATOM     15  C   UNL     1       1.364   4.261  20.323  0.00  0.00    +0.000 C 
ATOM     16  C   UNL     1       1.180   3.202  21.415  0.00  0.00    +0.000 C 
ATOM     17  C   UNL     1       2.466   2.459  21.764  0.00  0.00    +0.000 C 
ATOM     18  C   UNL     1       3.572   2.447  20.700  0.00  0.00    +0.000 C 
ATOM     19  N   UNL     1       3.307   3.037  19.398  0.00  0.00    +0.000 NA
ATOM     20  C   UNL     1       4.130   2.503  18.319  0.00  0.00    +0.000 C 
ATOM     21  C   UNL     1       4.145   3.436  17.112  0.00  0.00    +0.000 C 
ATOM     22  C   UNL     1       2.730   3.784  16.677  0.00  0.00    +0.000 C 
ATOM     23  C   UNL     1       2.005   4.449  17.842  0.00  0.00    +0.000 C 
ATOM     24  C   UNL     1       1.972   3.535  19.086  0.00  0.00    +0.000 C 
ENDBRANCH  14  15
ENDBRANCH   3  14
TORSDOF 4
ENDMDL
