MODEL 1
REMARK VINA RESULT:      -7.7      0.000      0.000
REMARK  Name = 
REMARK  12 active torsions:
REMARK  status: ('A' for Active; 'I' for Inactive)
REMARK    1  A    between atoms: C_1  and  C_2
REMARK    2  A    between atoms: C_2  and  O_3
REMARK    3  A    between atoms: O_3  and  C_4
REMARK    4  A    between atoms: C_7  and  C_8
REMARK    5  A    between atoms: C_11  and  S_12
REMARK    6  A    between atoms: S_12  and  N_15
REMARK    7  A    between atoms: N_15  and  C_16
REMARK    8  A    between atoms: C_16  and  C_17
REMARK    9  A    between atoms: C_16  and  C_20
REMARK   10  A    between atoms: C_17  and  O_19
REMARK   11  A    between atoms: C_24  and  O_26
REMARK   12  A    between atoms: O_26  and  C_27
REMARK                            x       y       z     vdW  Elec       q    Type
REMARK                         _______ _______ _______ _____ _____    ______ ____
ROOT
ATOM      1  S   UNL     1       0.476   9.501  21.496  0.00  0.00    +0.000 S 
ATOM      2  O   UNL     1      -0.786   8.796  21.454  0.00  0.00    +0.000 OA
ATOM      3  O   UNL     1       1.404   9.352  22.588  0.00  0.00    +0.000 OA
ENDROOT
BRANCH   1   7
ATOM      4  C   UNL     1       2.661   7.679  18.451  0.00  0.00    +0.000 A 
ATOM      5  C   UNL     1       2.145   8.826  17.870  0.00  0.00    +0.000 A 
ATOM      6  C   UNL     1       1.397   9.624  18.780  0.00  0.00    +0.000 A 
ATOM      7  C   UNL     1       1.342   9.056  20.032  0.00  0.00    +0.000 A 
ATOM      8  S   UNL     1       2.244   7.611  20.116  0.00  0.00    +0.000 S 
BRANCH   4  12
ATOM      9  C   UNL     1       4.908   4.503  16.631  0.00  0.00    +0.000 A 
ATOM     10  C   UNL     1       5.401   5.804  16.612  0.00  0.00    +0.000 A 
ATOM     11  C   UNL     1       4.682   6.842  17.207  0.00  0.00    +0.000 A 
ATOM     12  C   UNL     1       3.445   6.600  17.825  0.00  0.00    +0.000 A 
ATOM     13  C   UNL     1       2.953   5.286  17.817  0.00  0.00    +0.000 A 
ATOM     14  C   UNL     1       3.670   4.245  17.214  0.00  0.00    +0.000 A 
BRANCH   9  15
ATOM     15  O   UNL     1       5.711   3.573  16.035  0.00  0.00    +0.000 OA
BRANCH  15  17
ATOM     16  C   UNL     1       6.099   3.778  13.704  0.00  0.00    +0.000 C 
ATOM     17  C   UNL     1       6.649   4.074  15.086  0.00  0.00    +0.000 C 
ENDBRANCH  15  17
ENDBRANCH   9  15
ENDBRANCH   4  12
ENDBRANCH   1   7
BRANCH   1  18
ATOM     18  N   UNL     1       0.076  11.156  21.379  0.00  0.00    +0.000 NA
ATOM     19  H   UNL     1       0.491  11.416  20.483  0.00  0.00    +0.000 HD
BRANCH  18  20
ATOM     20  C   UNL     1      -1.366  11.529  21.447  0.00  0.00    +0.000 C 
BRANCH  20  21
ATOM     21  C   UNL     1      -1.736  12.529  20.310  0.00  0.00    +0.000 C 
ATOM     22  C   UNL     1      -3.258  12.675  20.092  0.00  0.00    +0.000 C 
ATOM     23  C   UNL     1      -3.886  11.673  19.121  0.00  0.00    +0.000 C 
ATOM     24  N   UNL     1      -3.087  11.494  17.922  0.00  0.00    +0.000 N 
ATOM     25  C   UNL     1      -3.726  11.411  16.693  0.00  0.00    +0.000 C 
ATOM     26  O   UNL     1      -4.936  11.530  16.544  0.00  0.00    +0.000 OA
ATOM     27  C   UNL     1      -1.666  11.221  18.101  0.00  0.00    +0.000 C 
ATOM     28  C   UNL     1      -1.026  12.306  18.958  0.00  0.00    +0.000 C 
BRANCH  25  29
ATOM     29  O   UNL     1      -2.856  11.207  15.667  0.00  0.00    +0.000 OA
ATOM     30  C   UNL     1      -3.179  10.089  14.842  0.00  0.00    +0.000 C 
ENDBRANCH  25  29
ENDBRANCH  20  21
BRANCH  20  31
ATOM     31  C   UNL     1      -1.811  12.116  22.785  0.00  0.00    +0.000 C 
ATOM     32  O   UNL     1      -2.806  11.746  23.394  0.00  0.00    +0.000 OA
BRANCH  31  33
ATOM     33  O   UNL     1      -1.066  13.164  23.202  0.00  0.00    +0.000 OA
ATOM     34  H   UNL     1      -0.945  13.844  22.505  0.00  0.00    +0.000 HD
ENDBRANCH  31  33
ENDBRANCH  20  31
ENDBRANCH  18  20
ENDBRANCH   1  18
TORSDOF 10
ENDMDL
MODEL 2
REMARK VINA RESULT:      -7.6      2.713      3.643
REMARK  Name = 
REMARK  12 active torsions:
REMARK  status: ('A' for Active; 'I' for Inactive)
REMARK    1  A    between atoms: C_1  and  C_2
REMARK    2  A    between atoms: C_2  and  O_3
REMARK    3  A    between atoms: O_3  and  C_4
REMARK    4  A    between atoms: C_7  and  C_8
REMARK    5  A    between atoms: C_11  and  S_12
REMARK    6  A    between atoms: S_12  and  N_15
REMARK    7  A    between atoms: N_15  and  C_16
REMARK    8  A    between atoms: C_16  and  C_17
REMARK    9  A    between atoms: C_16  and  C_20
REMARK   10  A    between atoms: C_17  and  O_19
REMARK   11  A    between atoms: C_24  and  O_26
REMARK   12  A    between atoms: O_26  and  C_27
REMARK                            x       y       z     vdW  Elec       q    Type
REMARK                         _______ _______ _______ _____ _____    ______ ____
ROOT
ATOM      1  S   UNL     1       0.530  10.832  19.679  0.00  0.00    +0.000 S 
ATOM      2  O   UNL     1       1.463  11.714  19.014  0.00  0.00    +0.000 OA
ATOM      3  O   UNL     1      -0.843  10.707  19.259  0.00  0.00    +0.000 OA
ENDROOT
BRANCH   1   7
ATOM      4  C   UNL     1       2.534   7.301  18.736  0.00  0.00    +0.000 A 
ATOM      5  C   UNL     1       2.121   7.127  20.047  0.00  0.00    +0.000 A 
ATOM      6  C   UNL     1       1.362   8.224  20.543  0.00  0.00    +0.000 A 
ATOM      7  C   UNL     1       1.230   9.221  19.604  0.00  0.00    +0.000 A 
ATOM      8  S   UNL     1       1.959   8.798  18.121  0.00  0.00    +0.000 S 
BRANCH   4  12
ATOM      9  C   UNL     1       4.980   4.748  16.298  0.00  0.00    +0.000 A 
ATOM     10  C   UNL     1       4.015   4.195  17.136  0.00  0.00    +0.000 A 
ATOM     11  C   UNL     1       3.211   5.017  17.927  0.00  0.00    +0.000 A 
ATOM     12  C   UNL     1       3.362   6.412  17.904  0.00  0.00    +0.000 A 
ATOM     13  C   UNL     1       4.354   6.951  17.069  0.00  0.00    +0.000 A 
ATOM     14  C   UNL     1       5.166   6.127  16.281  0.00  0.00    +0.000 A 
BRANCH   9  15
ATOM     15  O   UNL     1       5.688   3.844  15.560  0.00  0.00    +0.000 OA
BRANCH  15  17
ATOM     16  C   UNL     1       6.159   3.734  13.237  0.00  0.00    +0.000 C 
ATOM     17  C   UNL     1       6.537   4.389  14.552  0.00  0.00    +0.000 C 
ENDBRANCH  15  17
ENDBRANCH   9  15
ENDBRANCH   4  12
ENDBRANCH   1   7
BRANCH   1  18
ATOM     18  N   UNL     1       0.528  11.320  21.314  0.00  0.00    +0.000 NA
ATOM     19  H   UNL     1       0.589  12.336  21.237  0.00  0.00    +0.000 HD
BRANCH  18  20
ATOM     20  C   UNL     1      -0.624  10.901  22.162  0.00  0.00    +0.000 C 
BRANCH  20  21
ATOM     21  C   UNL     1      -1.136  12.089  23.032  0.00  0.00    +0.000 C 
ATOM     22  C   UNL     1      -2.637  11.992  23.382  0.00  0.00    +0.000 C 
ATOM     23  C   UNL     1      -3.596  12.608  22.361  0.00  0.00    +0.000 C 
ATOM     24  N   UNL     1      -3.137  13.901  21.887  0.00  0.00    +0.000 N 
ATOM     25  C   UNL     1      -4.058  14.926  21.727  0.00  0.00    +0.000 C 
ATOM     26  O   UNL     1      -5.246  14.826  22.012  0.00  0.00    +0.000 OA
ATOM     27  C   UNL     1      -1.758  13.991  21.422  0.00  0.00    +0.000 C 
ATOM     28  C   UNL     1      -0.805  13.502  22.506  0.00  0.00    +0.000 C 
BRANCH  25  29
ATOM     29  O   UNL     1      -3.493  16.064  21.242  0.00  0.00    +0.000 OA
ATOM     30  C   UNL     1      -4.267  16.718  20.238  0.00  0.00    +0.000 C 
ENDBRANCH  25  29
ENDBRANCH  20  21
BRANCH  20  31
ATOM     31  C   UNL     1      -0.345   9.707  23.074  0.00  0.00    +0.000 C 
ATOM     32  O   UNL     1       0.513   9.703  23.947  0.00  0.00    +0.000 OA
BRANCH  31  33
ATOM     33  O   UNL     1      -1.063   8.603  22.770  0.00  0.00    +0.000 OA
ATOM     34  H   UNL     1      -1.774   8.781  22.118  0.00  0.00    +0.000 HD
ENDBRANCH  31  33
ENDBRANCH  20  31
ENDBRANCH  18  20
ENDBRANCH   1  18
TORSDOF 10
ENDMDL
MODEL 3
REMARK VINA RESULT:      -7.5      1.428      2.034
REMARK  Name = 
REMARK  12 active torsions:
REMARK  status: ('A' for Active; 'I' for Inactive)
REMARK    1  A    between atoms: C_1  and  C_2
REMARK    2  A    between atoms: C_2  and  O_3
REMARK    3  A    between atoms: O_3  and  C_4
REMARK    4  A    between atoms: C_7  and  C_8
REMARK    5  A    between atoms: C_11  and  S_12
REMARK    6  A    between atoms: S_12  and  N_15
REMARK    7  A    between atoms: N_15  and  C_16
REMARK    8  A    between atoms: C_16  and  C_17
REMARK    9  A    between atoms: C_16  and  C_20
REMARK   10  A    between atoms: C_17  and  O_19
REMARK   11  A    between atoms: C_24  and  O_26
REMARK   12  A    between atoms: O_26  and  C_27
REMARK                            x       y       z     vdW  Elec       q    Type
REMARK                         _______ _______ _______ _____ _____    ______ ____
ROOT
ATOM      1  S   UNL     1       0.864   8.515  21.397  0.00  0.00    +0.000 S 
ATOM      2  O   UNL     1      -0.523   8.168  21.615  0.00  0.00    +0.000 OA
ATOM      3  O   UNL     1       1.752   8.855  22.481  0.00  0.00    +0.000 OA
ENDROOT
BRANCH   1   7
ATOM      4  C   UNL     1       2.963   5.916  18.906  0.00  0.00    +0.000 A 
ATOM      5  C   UNL     1       2.493   5.110  19.931  0.00  0.00    +0.000 A 
ATOM      6  C   UNL     1       1.695   5.818  20.874  0.00  0.00    +0.000 A 
ATOM      7  C   UNL     1       1.591   7.152  20.557  0.00  0.00    +0.000 A 
ATOM      8  S   UNL     1       2.395   7.525  19.100  0.00  0.00    +0.000 S 
BRANCH   4  12
ATOM      9  C   UNL     1       5.541   4.918  15.618  0.00  0.00    +0.000 A 
ATOM     10  C   UNL     1       5.027   3.911  16.432  0.00  0.00    +0.000 A 
ATOM     11  C   UNL     1       4.184   4.225  17.499  0.00  0.00    +0.000 A 
ATOM     12  C   UNL     1       3.843   5.557  17.781  0.00  0.00    +0.000 A 
ATOM     13  C   UNL     1       4.385   6.561  16.963  0.00  0.00    +0.000 A 
ATOM     14  C   UNL     1       5.238   6.248  15.897  0.00  0.00    +0.000 A 
BRANCH   9  15
ATOM     15  O   UNL     1       6.336   4.485  14.597  0.00  0.00    +0.000 OA
BRANCH  15  17
ATOM     16  C   UNL     1       6.666   3.749  12.365  0.00  0.00    +0.000 C 
ATOM     17  C   UNL     1       5.664   3.875  13.497  0.00  0.00    +0.000 C 
ENDBRANCH  15  17
ENDBRANCH   9  15
ENDBRANCH   4  12
ENDBRANCH   1   7
BRANCH   1  18
ATOM     18  N   UNL     1       0.839   9.836  20.317  0.00  0.00    +0.000 NA
ATOM     19  H   UNL     1       0.731   9.374  19.413  0.00  0.00    +0.000 HD
BRANCH  18  20
ATOM     20  C   UNL     1      -0.200  10.884  20.527  0.00  0.00    +0.000 C 
BRANCH  20  21
ATOM     21  C   UNL     1      -0.528  11.618  19.192  0.00  0.00    +0.000 C 
ATOM     22  C   UNL     1      -1.752  12.555  19.289  0.00  0.00    +0.000 C 
ATOM     23  C   UNL     1      -3.108  11.902  19.012  0.00  0.00    +0.000 C 
ATOM     24  N   UNL     1      -3.070  11.025  17.855  0.00  0.00    +0.000 N 
ATOM     25  C   UNL     1      -4.132  11.040  16.963  0.00  0.00    +0.000 C 
ATOM     26  O   UNL     1      -5.095  11.792  17.061  0.00  0.00    +0.000 OA
ATOM     27  C   UNL     1      -1.999  10.037  17.801  0.00  0.00    +0.000 C 
ATOM     28  C   UNL     1      -0.645  10.723  17.940  0.00  0.00    +0.000 C 
BRANCH  25  29
ATOM     29  O   UNL     1      -3.977  10.143  15.953  0.00  0.00    +0.000 OA
ATOM     30  C   UNL     1      -3.318  10.667  14.802  0.00  0.00    +0.000 C 
ENDBRANCH  25  29
ENDBRANCH  20  21
BRANCH  20  31
ATOM     31  C   UNL     1       0.149  11.926  21.589  0.00  0.00    +0.000 C 
ATOM     32  O   UNL     1       0.984  12.807  21.430  0.00  0.00    +0.000 OA
BRANCH  31  33
ATOM     33  O   UNL     1      -0.474  11.736  22.773  0.00  0.00    +0.000 OA
ATOM     34  H   UNL     1      -0.459  12.535  23.341  0.00  0.00    +0.000 HD
ENDBRANCH  31  33
ENDBRANCH  20  31
ENDBRANCH  18  20
ENDBRANCH   1  18
TORSDOF 10
ENDMDL
MODEL 4
REMARK VINA RESULT:      -7.2      3.481     10.060
REMARK  Name = 
REMARK  12 active torsions:
REMARK  status: ('A' for Active; 'I' for Inactive)
REMARK    1  A    between atoms: C_1  and  C_2
REMARK    2  A    between atoms: C_2  and  O_3
REMARK    3  A    between atoms: O_3  and  C_4
REMARK    4  A    between atoms: C_7  and  C_8
REMARK    5  A    between atoms: C_11  and  S_12
REMARK    6  A    between atoms: S_12  and  N_15
REMARK    7  A    between atoms: N_15  and  C_16
REMARK    8  A    between atoms: C_16  and  C_17
REMARK    9  A    between atoms: C_16  and  C_20
REMARK   10  A    between atoms: C_17  and  O_19
REMARK   11  A    between atoms: C_24  and  O_26
REMARK   12  A    between atoms: O_26  and  C_27
REMARK                            x       y       z     vdW  Elec       q    Type
REMARK                         _______ _______ _______ _____ _____    ______ ____
ROOT
ATOM      1  S   UNL     1       3.084   6.872  18.566  0.00  0.00    +0.000 S 
ATOM      2  O   UNL     1       3.920   7.220  17.439  0.00  0.00    +0.000 OA
ATOM      3  O   UNL     1       3.619   6.667  19.888  0.00  0.00    +0.000 OA
ENDROOT
BRANCH   1   7
ATOM      4  C   UNL     1       0.364   9.796  19.758  0.00  0.00    +0.000 A 
ATOM      5  C   UNL     1       0.470   9.959  18.385  0.00  0.00    +0.000 A 
ATOM      6  C   UNL     1       1.329   9.003  17.776  0.00  0.00    +0.000 A 
ATOM      7  C   UNL     1       1.877   8.144  18.701  0.00  0.00    +0.000 A 
ATOM      8  S   UNL     1       1.300   8.453  20.276  0.00  0.00    +0.000 S 
BRANCH   4  12
ATOM      9  C   UNL     1      -1.863  12.187  22.546  0.00  0.00    +0.000 A 
ATOM     10  C   UNL     1      -1.163  11.069  22.991  0.00  0.00    +0.000 A 
ATOM     11  C   UNL     1      -0.431  10.289  22.093  0.00  0.00    +0.000 A 
ATOM     12  C   UNL     1      -0.392  10.607  20.727  0.00  0.00    +0.000 A 
ATOM     13  C   UNL     1      -1.120  11.727  20.292  0.00  0.00    +0.000 A 
ATOM     14  C   UNL     1      -1.861  12.504  21.191  0.00  0.00    +0.000 A 
BRANCH   9  15
ATOM     15  O   UNL     1      -2.523  12.879  23.520  0.00  0.00    +0.000 OA
BRANCH  15  17
ATOM     16  C   UNL     1      -4.857  13.217  23.778  0.00  0.00    +0.000 C 
ATOM     17  C   UNL     1      -3.704  12.265  24.032  0.00  0.00    +0.000 C 
ENDBRANCH  15  17
ENDBRANCH   9  15
ENDBRANCH   4  12
ENDBRANCH   1   7
BRANCH   1  18
ATOM     18  N   UNL     1       2.277   5.439  18.108  0.00  0.00    +0.000 NA
ATOM     19  H   UNL     1       2.701   5.232  17.203  0.00  0.00    +0.000 HD
BRANCH  18  20
ATOM     20  C   UNL     1       2.355   4.273  19.034  0.00  0.00    +0.000 C 
BRANCH  20  21
ATOM     21  C   UNL     1       3.407   3.237  18.535  0.00  0.00    +0.000 C 
ATOM     22  C   UNL     1       4.809   3.441  19.150  0.00  0.00    +0.000 C 
ATOM     23  C   UNL     1       5.726   4.410  18.400  0.00  0.00    +0.000 C 
ATOM     24  N   UNL     1       5.686   4.203  16.963  0.00  0.00    +0.000 N 
ATOM     25  C   UNL     1       6.870   4.256  16.242  0.00  0.00    +0.000 C 
ATOM     26  O   UNL     1       7.973   4.420  16.751  0.00  0.00    +0.000 OA
ATOM     27  C   UNL     1       4.373   4.140  16.333  0.00  0.00    +0.000 C 
ATOM     28  C   UNL     1       3.519   3.071  17.005  0.00  0.00    +0.000 C 
BRANCH  25  29
ATOM     29  O   UNL     1       6.676   4.083  14.907  0.00  0.00    +0.000 OA
ATOM     30  C   UNL     1       7.305   5.069  14.091  0.00  0.00    +0.000 C 
ENDBRANCH  25  29
ENDBRANCH  20  21
BRANCH  20  31
ATOM     31  C   UNL     1       1.028   3.553  19.268  0.00  0.00    +0.000 C 
ATOM     32  O   UNL     1       0.504   2.808  18.450  0.00  0.00    +0.000 OA
BRANCH  31  33
ATOM     33  O   UNL     1       0.417   3.888  20.426  0.00  0.00    +0.000 OA
ATOM     34  H   UNL     1       0.889   3.546  21.215  0.00  0.00    +0.000 HD
ENDBRANCH  31  33
ENDBRANCH  20  31
ENDBRANCH  18  20
ENDBRANCH   1  18
TORSDOF 10
ENDMDL
MODEL 5
REMARK VINA RESULT:      -7.1      1.450      1.827
REMARK  Name = 
REMARK  12 active torsions:
REMARK  status: ('A' for Active; 'I' for Inactive)
REMARK    1  A    between atoms: C_1  and  C_2
REMARK    2  A    between atoms: C_2  and  O_3
REMARK    3  A    between atoms: O_3  and  C_4
REMARK    4  A    between atoms: C_7  and  C_8
REMARK    5  A    between atoms: C_11  and  S_12
REMARK    6  A    between atoms: S_12  and  N_15
REMARK    7  A    between atoms: N_15  and  C_16
REMARK    8  A    between atoms: C_16  and  C_17
REMARK    9  A    between atoms: C_16  and  C_20
REMARK   10  A    between atoms: C_17  and  O_19
REMARK   11  A    between atoms: C_24  and  O_26
REMARK   12  A    between atoms: O_26  and  C_27
REMARK                            x       y       z     vdW  Elec       q    Type
REMARK                         _______ _______ _______ _____ _____    ______ ____
ROOT
ATOM      1  S   UNL     1       0.892   8.928  21.522  0.00  0.00    +0.000 S 
ATOM      2  O   UNL     1      -0.525   8.734  21.731  0.00  0.00    +0.000 OA
ATOM      3  O   UNL     1       1.799   9.209  22.606  0.00  0.00    +0.000 OA
ENDROOT
BRANCH   1   7
ATOM      4  C   UNL     1       2.713   6.047  19.124  0.00  0.00    +0.000 A 
ATOM      5  C   UNL     1       2.189   5.332  20.189  0.00  0.00    +0.000 A 
ATOM      6  C   UNL     1       1.472   6.147  21.108  0.00  0.00    +0.000 A 
ATOM      7  C   UNL     1       1.482   7.471  20.734  0.00  0.00    +0.000 A 
ATOM      8  S   UNL     1       2.293   7.707  19.252  0.00  0.00    +0.000 S 
BRANCH   4  12
ATOM      9  C   UNL     1       5.100   4.589  15.864  0.00  0.00    +0.000 A 
ATOM     10  C   UNL     1       5.084   5.949  16.162  0.00  0.00    +0.000 A 
ATOM     11  C   UNL     1       4.317   6.431  17.224  0.00  0.00    +0.000 A 
ATOM     12  C   UNL     1       3.540   5.563  18.005  0.00  0.00    +0.000 A 
ATOM     13  C   UNL     1       3.552   4.197  17.678  0.00  0.00    +0.000 A 
ATOM     14  C   UNL     1       4.315   3.713  16.608  0.00  0.00    +0.000 A 
BRANCH   9  15
ATOM     15  O   UNL     1       5.904   4.237  14.818  0.00  0.00    +0.000 OA
BRANCH  15  17
ATOM     16  C   UNL     1       7.499   5.059  13.266  0.00  0.00    +0.000 C 
ATOM     17  C   UNL     1       7.156   4.915  14.736  0.00  0.00    +0.000 C 
ENDBRANCH  15  17
ENDBRANCH   9  15
ENDBRANCH   4  12
ENDBRANCH   1   7
BRANCH   1  18
ATOM     18  N   UNL     1       1.015  10.209  20.401  0.00  0.00    +0.000 NA
ATOM     19  H   UNL     1       0.911   9.726  19.507  0.00  0.00    +0.000 HD
BRANCH  18  20
ATOM     20  C   UNL     1       0.053  11.340  20.531  0.00  0.00    +0.000 C 
BRANCH  20  21
ATOM     21  C   UNL     1      -0.305  11.930  19.133  0.00  0.00    +0.000 C 
ATOM     22  C   UNL     1      -1.652  12.685  19.111  0.00  0.00    +0.000 C 
ATOM     23  C   UNL     1      -2.887  11.827  18.826  0.00  0.00    +0.000 C 
ATOM     24  N   UNL     1      -2.667  10.890  17.739  0.00  0.00    +0.000 N 
ATOM     25  C   UNL     1      -3.673  10.693  16.805  0.00  0.00    +0.000 C 
ATOM     26  O   UNL     1      -4.736  11.305  16.807  0.00  0.00    +0.000 OA
ATOM     27  C   UNL     1      -1.466  10.065  17.801  0.00  0.00    +0.000 C 
ATOM     28  C   UNL     1      -0.231  10.945  17.946  0.00  0.00    +0.000 C 
BRANCH  25  29
ATOM     29  O   UNL     1      -3.342   9.763  15.869  0.00  0.00    +0.000 OA
ATOM     30  C   UNL     1      -3.371  10.247  14.528  0.00  0.00    +0.000 C 
ENDBRANCH  25  29
ENDBRANCH  20  21
BRANCH  20  31
ATOM     31  C   UNL     1       0.521  12.476  21.439  0.00  0.00    +0.000 C 
ATOM     32  O   UNL     1      -0.201  13.039  22.251  0.00  0.00    +0.000 OA
BRANCH  31  33
ATOM     33  O   UNL     1       1.787  12.885  21.202  0.00  0.00    +0.000 OA
ATOM     34  H   UNL     1       2.207  12.404  20.457  0.00  0.00    +0.000 HD
ENDBRANCH  31  33
ENDBRANCH  20  31
ENDBRANCH  18  20
ENDBRANCH   1  18
TORSDOF 10
ENDMDL
MODEL 6
REMARK VINA RESULT:      -7.0      2.832      3.945
REMARK  Name = 
REMARK  12 active torsions:
REMARK  status: ('A' for Active; 'I' for Inactive)
REMARK    1  A    between atoms: C_1  and  C_2
REMARK    2  A    between atoms: C_2  and  O_3
REMARK    3  A    between atoms: O_3  and  C_4
REMARK    4  A    between atoms: C_7  and  C_8
REMARK    5  A    between atoms: C_11  and  S_12
REMARK    6  A    between atoms: S_12  and  N_15
REMARK    7  A    between atoms: N_15  and  C_16
REMARK    8  A    between atoms: C_16  and  C_17
REMARK    9  A    between atoms: C_16  and  C_20
REMARK   10  A    between atoms: C_17  and  O_19
REMARK   11  A    between atoms: C_24  and  O_26
REMARK   12  A    between atoms: O_26  and  C_27
REMARK                            x       y       z     vdW  Elec       q    Type
REMARK                         _______ _______ _______ _____ _____    ______ ____
ROOT
ATOM      1  S   UNL     1       0.520  10.825  19.300  0.00  0.00    +0.000 S 
ATOM      2  O   UNL     1       1.420  11.665  18.542  0.00  0.00    +0.000 OA
ATOM      3  O   UNL     1      -0.857  10.631  18.918  0.00  0.00    +0.000 OA
ENDROOT
BRANCH   1   7
ATOM      4  C   UNL     1       2.621   7.284  18.657  0.00  0.00    +0.000 A 
ATOM      5  C   UNL     1       2.189   7.198  19.971  0.00  0.00    +0.000 A 
ATOM      6  C   UNL     1       1.396   8.309  20.370  0.00  0.00    +0.000 A 
ATOM      7  C   UNL     1       1.257   9.230  19.357  0.00  0.00    +0.000 A 
ATOM      8  S   UNL     1       2.022   8.716  17.922  0.00  0.00    +0.000 S 
BRANCH   4  12
ATOM      9  C   UNL     1       5.101   4.541  16.472  0.00  0.00    +0.000 A 
ATOM     10  C   UNL     1       5.452   5.886  16.551  0.00  0.00    +0.000 A 
ATOM     11  C   UNL     1       4.655   6.784  17.264  0.00  0.00    +0.000 A 
ATOM     12  C   UNL     1       3.484   6.355  17.907  0.00  0.00    +0.000 A 
ATOM     13  C   UNL     1       3.135   4.999  17.800  0.00  0.00    +0.000 A 
ATOM     14  C   UNL     1       3.929   4.100  17.078  0.00  0.00    +0.000 A 
BRANCH   9  15
ATOM     15  O   UNL     1       5.969   3.759  15.765  0.00  0.00    +0.000 OA
BRANCH  15  17
ATOM     16  C   UNL     1       5.991   3.791  13.393  0.00  0.00    +0.000 C 
ATOM     17  C   UNL     1       6.603   4.381  14.649  0.00  0.00    +0.000 C 
ENDBRANCH  15  17
ENDBRANCH   9  15
ENDBRANCH   4  12
ENDBRANCH   1   7
BRANCH   1  18
ATOM     18  N   UNL     1       0.532  11.458  20.885  0.00  0.00    +0.000 NA
ATOM     19  H   UNL     1       1.206  12.220  20.808  0.00  0.00    +0.000 HD
BRANCH  18  20
ATOM     20  C   UNL     1      -0.764  11.925  21.456  0.00  0.00    +0.000 C 
BRANCH  20  21
ATOM     21  C   UNL     1      -0.771  13.474  21.625  0.00  0.00    +0.000 C 
ATOM     22  C   UNL     1      -1.393  14.221  20.425  0.00  0.00    +0.000 C 
ATOM     23  C   UNL     1      -0.427  14.566  19.289  0.00  0.00    +0.000 C 
ATOM     24  N   UNL     1       0.834  15.092  19.780  0.00  0.00    +0.000 N 
ATOM     25  C   UNL     1       1.417  16.166  19.124  0.00  0.00    +0.000 C 
ATOM     26  O   UNL     1       0.905  16.744  18.172  0.00  0.00    +0.000 OA
ATOM     27  C   UNL     1       1.513  14.333  20.823  0.00  0.00    +0.000 C 
ATOM     28  C   UNL     1       0.579  14.118  22.008  0.00  0.00    +0.000 C 
BRANCH  25  29
ATOM     29  O   UNL     1       2.610  16.526  19.670  0.00  0.00    +0.000 OA
ATOM     30  C   UNL     1       2.606  17.810  20.290  0.00  0.00    +0.000 C 
ENDBRANCH  25  29
ENDBRANCH  20  21
BRANCH  20  31
ATOM     31  C   UNL     1      -1.144  11.282  22.788  0.00  0.00    +0.000 C 
ATOM     32  O   UNL     1      -2.173  11.539  23.400  0.00  0.00    +0.000 OA
BRANCH  31  33
ATOM     33  O   UNL     1      -0.193  10.468  23.298  0.00  0.00    +0.000 OA
ATOM     34  H   UNL     1      -0.385  10.193  24.219  0.00  0.00    +0.000 HD
ENDBRANCH  31  33
ENDBRANCH  20  31
ENDBRANCH  18  20
ENDBRANCH   1  18
TORSDOF 10
ENDMDL
MODEL 7
REMARK VINA RESULT:      -6.9      3.911     10.335
REMARK  Name = 
REMARK  12 active torsions:
REMARK  status: ('A' for Active; 'I' for Inactive)
REMARK    1  A    between atoms: C_1  and  C_2
REMARK    2  A    between atoms: C_2  and  O_3
REMARK    3  A    between atoms: O_3  and  C_4
REMARK    4  A    between atoms: C_7  and  C_8
REMARK    5  A    between atoms: C_11  and  S_12
REMARK    6  A    between atoms: S_12  and  N_15
REMARK    7  A    between atoms: N_15  and  C_16
REMARK    8  A    between atoms: C_16  and  C_17
REMARK    9  A    between atoms: C_16  and  C_20
REMARK   10  A    between atoms: C_17  and  O_19
REMARK   11  A    between atoms: C_24  and  O_26
REMARK   12  A    between atoms: O_26  and  C_27
REMARK                            x       y       z     vdW  Elec       q    Type
REMARK                         _______ _______ _______ _____ _____    ______ ____
ROOT
ATOM      1  S   UNL     1       3.389   5.081  18.875  0.00  0.00    +0.000 S 
ATOM      2  O   UNL     1       3.119   4.409  20.126  0.00  0.00    +0.000 OA
ATOM      3  O   UNL     1       3.027   4.512  17.601  0.00  0.00    +0.000 OA
ENDROOT
BRANCH   1   7
ATOM      4  C   UNL     1       1.393   8.576  19.955  0.00  0.00    +0.000 A 
ATOM      5  C   UNL     1       1.892   8.838  18.689  0.00  0.00    +0.000 A 
ATOM      6  C   UNL     1       2.574   7.728  18.119  0.00  0.00    +0.000 A 
ATOM      7  C   UNL     1       2.599   6.648  18.971  0.00  0.00    +0.000 A 
ATOM      8  S   UNL     1       1.745   6.959  20.415  0.00  0.00    +0.000 S 
BRANCH   4  12
ATOM      9  C   UNL     1      -0.700  11.178  22.657  0.00  0.00    +0.000 A 
ATOM     10  C   UNL     1      -0.339  11.632  21.391  0.00  0.00    +0.000 A 
ATOM     11  C   UNL     1       0.336  10.792  20.504  0.00  0.00    +0.000 A 
ATOM     12  C   UNL     1       0.673   9.480  20.869  0.00  0.00    +0.000 A 
ATOM     13  C   UNL     1       0.319   9.044  22.156  0.00  0.00    +0.000 A 
ATOM     14  C   UNL     1      -0.350   9.890  23.050  0.00  0.00    +0.000 A 
BRANCH   9  15
ATOM     15  O   UNL     1      -1.372  12.085  23.425  0.00  0.00    +0.000 OA
BRANCH  15  17
ATOM     16  C   UNL     1      -3.256  13.416  23.978  0.00  0.00    +0.000 C 
ATOM     17  C   UNL     1      -2.669  12.456  22.962  0.00  0.00    +0.000 C 
ENDBRANCH  15  17
ENDBRANCH   9  15
ENDBRANCH   4  12
ENDBRANCH   1   7
BRANCH   1  18
ATOM     18  N   UNL     1       5.075   5.351  18.858  0.00  0.00    +0.000 NA
ATOM     19  H   UNL     1       5.438   4.473  19.231  0.00  0.00    +0.000 HD
BRANCH  18  20
ATOM     20  C   UNL     1       5.709   5.702  17.555  0.00  0.00    +0.000 C 
BRANCH  20  21
ATOM     21  C   UNL     1       6.289   4.433  16.860  0.00  0.00    +0.000 C 
ATOM     22  C   UNL     1       7.527   4.724  15.985  0.00  0.00    +0.000 C 
ATOM     23  C   UNL     1       7.235   5.120  14.536  0.00  0.00    +0.000 C 
ATOM     24  N   UNL     1       6.213   4.283  13.932  0.00  0.00    +0.000 N 
ATOM     25  C   UNL     1       6.380   3.855  12.623  0.00  0.00    +0.000 C 
ATOM     26  O   UNL     1       7.372   4.098  11.947  0.00  0.00    +0.000 OA
ATOM     27  C   UNL     1       4.975   4.099  14.679  0.00  0.00    +0.000 C 
ATOM     28  C   UNL     1       5.277   3.571  16.076  0.00  0.00    +0.000 C 
BRANCH  25  29
ATOM     29  O   UNL     1       5.329   3.113  12.180  0.00  0.00    +0.000 OA
ATOM     30  C   UNL     1       5.705   1.949  11.446  0.00  0.00    +0.000 C 
ENDBRANCH  25  29
ENDBRANCH  20  21
BRANCH  20  31
ATOM     31  C   UNL     1       6.807   6.760  17.643  0.00  0.00    +0.000 C 
ATOM     32  O   UNL     1       7.719   6.729  18.459  0.00  0.00    +0.000 OA
BRANCH  31  33
ATOM     33  O   UNL     1       6.634   7.804  16.802  0.00  0.00    +0.000 OA
ATOM     34  H   UNL     1       7.211   8.566  17.022  0.00  0.00    +0.000 HD
ENDBRANCH  31  33
ENDBRANCH  20  31
ENDBRANCH  18  20
ENDBRANCH   1  18
TORSDOF 10
ENDMDL
MODEL 8
REMARK VINA RESULT:      -6.9      2.582      4.584
REMARK  Name = 
REMARK  12 active torsions:
REMARK  status: ('A' for Active; 'I' for Inactive)
REMARK    1  A    between atoms: C_1  and  C_2
REMARK    2  A    between atoms: C_2  and  O_3
REMARK    3  A    between atoms: O_3  and  C_4
REMARK    4  A    between atoms: C_7  and  C_8
REMARK    5  A    between atoms: C_11  and  S_12
REMARK    6  A    between atoms: S_12  and  N_15
REMARK    7  A    between atoms: N_15  and  C_16
REMARK    8  A    between atoms: C_16  and  C_17
REMARK    9  A    between atoms: C_16  and  C_20
REMARK   10  A    between atoms: C_17  and  O_19
REMARK   11  A    between atoms: C_24  and  O_26
REMARK   12  A    between atoms: O_26  and  C_27
REMARK                            x       y       z     vdW  Elec       q    Type
REMARK                         _______ _______ _______ _____ _____    ______ ____
ROOT
ATOM      1  S   UNL     1       0.740   8.797  21.133  0.00  0.00    +0.000 S 
ATOM      2  O   UNL     1      -0.529   8.402  21.702  0.00  0.00    +0.000 OA
ATOM      3  O   UNL     1       1.752   9.472  21.906  0.00  0.00    +0.000 OA
ENDROOT
BRANCH   1   7
ATOM      4  C   UNL     1       2.912   5.888  19.087  0.00  0.00    +0.000 A 
ATOM      5  C   UNL     1       2.363   5.216  20.168  0.00  0.00    +0.000 A 
ATOM      6  C   UNL     1       1.530   6.042  20.973  0.00  0.00    +0.000 A 
ATOM      7  C   UNL     1       1.479   7.333  20.500  0.00  0.00    +0.000 A 
ATOM      8  S   UNL     1       2.374   7.519  19.060  0.00  0.00    +0.000 S 
BRANCH   4  12
ATOM      9  C   UNL     1       5.652   4.467  16.100  0.00  0.00    +0.000 A 
ATOM     10  C   UNL     1       4.956   3.560  16.895  0.00  0.00    +0.000 A 
ATOM     11  C   UNL     1       4.059   4.012  17.864  0.00  0.00    +0.000 A 
ATOM     12  C   UNL     1       3.846   5.384  18.065  0.00  0.00    +0.000 A 
ATOM     13  C   UNL     1       4.571   6.285  17.269  0.00  0.00    +0.000 A 
ATOM     14  C   UNL     1       5.477   5.833  16.302  0.00  0.00    +0.000 A 
BRANCH   9  15
ATOM     15  O   UNL     1       6.485   3.904  15.176  0.00  0.00    +0.000 OA
BRANCH  15  17
ATOM     16  C   UNL     1       5.859   3.644  12.903  0.00  0.00    +0.000 C 
ATOM     17  C   UNL     1       6.540   4.553  13.908  0.00  0.00    +0.000 C 
ENDBRANCH  15  17
ENDBRANCH   9  15
ENDBRANCH   4  12
ENDBRANCH   1   7
BRANCH   1  18
ATOM     18  N   UNL     1       0.352   9.797  19.806  0.00  0.00    +0.000 NA
ATOM     19  H   UNL     1      -0.663   9.878  19.885  0.00  0.00    +0.000 HD
BRANCH  18  20
ATOM     20  C   UNL     1       1.007  11.134  19.729  0.00  0.00    +0.000 C 
BRANCH  20  21
ATOM     21  C   UNL     1      -0.048  12.277  19.836  0.00  0.00    +0.000 C 
ATOM     22  C   UNL     1       0.552  13.626  20.290  0.00  0.00    +0.000 C 
ATOM     23  C   UNL     1       0.623  13.843  21.803  0.00  0.00    +0.000 C 
ATOM     24  N   UNL     1      -0.597  13.432  22.475  0.00  0.00    +0.000 N 
ATOM     25  C   UNL     1      -1.105  14.225  23.494  0.00  0.00    +0.000 C 
ATOM     26  O   UNL     1      -0.611  15.293  23.838  0.00  0.00    +0.000 OA
ATOM     27  C   UNL     1      -1.116  12.105  22.165  0.00  0.00    +0.000 C 
ATOM     28  C   UNL     1      -1.311  11.955  20.661  0.00  0.00    +0.000 C 
BRANCH  25  29
ATOM     29  O   UNL     1      -2.226  13.698  24.054  0.00  0.00    +0.000 OA
ATOM     30  C   UNL     1      -2.945  14.606  24.887  0.00  0.00    +0.000 C 
ENDBRANCH  25  29
ENDBRANCH  20  21
BRANCH  20  31
ATOM     31  C   UNL     1       1.853  11.360  18.477  0.00  0.00    +0.000 C 
ATOM     32  O   UNL     1       2.583  12.329  18.315  0.00  0.00    +0.000 OA
BRANCH  31  33
ATOM     33  O   UNL     1       1.653  10.443  17.505  0.00  0.00    +0.000 OA
ATOM     34  H   UNL     1       1.817   9.526  17.810  0.00  0.00    +0.000 HD
ENDBRANCH  31  33
ENDBRANCH  20  31
ENDBRANCH  18  20
ENDBRANCH   1  18
TORSDOF 10
ENDMDL
MODEL 9
REMARK VINA RESULT:      -6.9      2.502      3.825
REMARK  Name = 
REMARK  12 active torsions:
REMARK  status: ('A' for Active; 'I' for Inactive)
REMARK    1  A    between atoms: C_1  and  C_2
REMARK    2  A    between atoms: C_2  and  O_3
REMARK    3  A    between atoms: O_3  and  C_4
REMARK    4  A    between atoms: C_7  and  C_8
REMARK    5  A    between atoms: C_11  and  S_12
REMARK    6  A    between atoms: S_12  and  N_15
REMARK    7  A    between atoms: N_15  and  C_16
REMARK    8  A    between atoms: C_16  and  C_17
REMARK    9  A    between atoms: C_16  and  C_20
REMARK   10  A    between atoms: C_17  and  O_19
REMARK   11  A    between atoms: C_24  and  O_26
REMARK   12  A    between atoms: O_26  and  C_27
REMARK                            x       y       z     vdW  Elec       q    Type
REMARK                         _______ _______ _______ _____ _____    ______ ____
ROOT
ATOM      1  S   UNL     1       0.720  10.662  19.303  0.00  0.00    +0.000 S 
ATOM      2  O   UNL     1       1.716  11.558  18.761  0.00  0.00    +0.000 OA
ATOM      3  O   UNL     1      -0.595  10.533  18.727  0.00  0.00    +0.000 OA
ENDROOT
BRANCH   1   7
ATOM      4  C   UNL     1       2.792   7.132  18.519  0.00  0.00    +0.000 A 
ATOM      5  C   UNL     1       2.327   6.981  19.816  0.00  0.00    +0.000 A 
ATOM      6  C   UNL     1       1.538   8.081  20.256  0.00  0.00    +0.000 A 
ATOM      7  C   UNL     1       1.436   9.056  19.291  0.00  0.00    +0.000 A 
ATOM      8  S   UNL     1       2.230   8.611  17.849  0.00  0.00    +0.000 S 
BRANCH   4  12
ATOM      9  C   UNL     1       5.294   4.476  16.254  0.00  0.00    +0.000 A 
ATOM     10  C   UNL     1       5.593   5.834  16.311  0.00  0.00    +0.000 A 
ATOM     11  C   UNL     1       4.789   6.704  17.050  0.00  0.00    +0.000 A 
ATOM     12  C   UNL     1       3.662   6.234  17.741  0.00  0.00    +0.000 A 
ATOM     13  C   UNL     1       3.364   4.864  17.655  0.00  0.00    +0.000 A 
ATOM     14  C   UNL     1       4.164   3.992  16.908  0.00  0.00    +0.000 A 
BRANCH   9  15
ATOM     15  O   UNL     1       6.164   3.725  15.517  0.00  0.00    +0.000 OA
BRANCH  15  17
ATOM     16  C   UNL     1       5.521   3.771  13.234  0.00  0.00    +0.000 C 
ATOM     17  C   UNL     1       6.535   4.262  14.249  0.00  0.00    +0.000 C 
ENDBRANCH  15  17
ENDBRANCH   9  15
ENDBRANCH   4  12
ENDBRANCH   1   7
BRANCH   1  18
ATOM     18  N   UNL     1       0.526  11.131  20.933  0.00  0.00    +0.000 NA
ATOM     19  H   UNL     1       0.508  12.149  20.864  0.00  0.00    +0.000 HD
BRANCH  18  20
ATOM     20  C   UNL     1      -0.661  10.608  21.669  0.00  0.00    +0.000 C 
BRANCH  20  21
ATOM     21  C   UNL     1      -1.574  11.775  22.152  0.00  0.00    +0.000 C 
ATOM     22  C   UNL     1      -2.398  12.422  21.016  0.00  0.00    +0.000 C 
ATOM     23  C   UNL     1      -1.706  13.561  20.264  0.00  0.00    +0.000 C 
ATOM     24  N   UNL     1      -1.029  14.481  21.161  0.00  0.00    +0.000 N 
ATOM     25  C   UNL     1      -1.114  15.844  20.917  0.00  0.00    +0.000 C 
ATOM     26  O   UNL     1      -1.773  16.335  20.008  0.00  0.00    +0.000 OA
ATOM     27  C   UNL     1      -0.138  13.905  22.161  0.00  0.00    +0.000 C 
ATOM     28  C   UNL     1      -0.883  12.869  22.994  0.00  0.00    +0.000 C 
BRANCH  25  29
ATOM     29  O   UNL     1      -0.402  16.579  21.813  0.00  0.00    +0.000 OA
ATOM     30  C   UNL     1       0.510  17.500  21.220  0.00  0.00    +0.000 C 
ENDBRANCH  25  29
ENDBRANCH  20  21
BRANCH  20  31
ATOM     31  C   UNL     1      -0.330   9.715  22.863  0.00  0.00    +0.000 C 
ATOM     32  O   UNL     1       0.618   9.907  23.615  0.00  0.00    +0.000 OA
BRANCH  31  33
ATOM     33  O   UNL     1      -1.117   8.622  22.969  0.00  0.00    +0.000 OA
ATOM     34  H   UNL     1      -1.292   8.196  22.103  0.00  0.00    +0.000 HD
ENDBRANCH  31  33
ENDBRANCH  20  31
ENDBRANCH  18  20
ENDBRANCH   1  18
TORSDOF 10
ENDMDL
