MODEL 1
REMARK VINA RESULT:      -7.7      0.000      0.000
REMARK  Name = 
REMARK  8 active torsions:
REMARK  status: ('A' for Active; 'I' for Inactive)
REMARK    1  A    between atoms: C_1  and  C_2
REMARK    2  A    between atoms: C_2  and  C_3
REMARK    3  A    between atoms: C_3  and  C_4
REMARK    4  A    between atoms: C_4  and  C_5
REMARK    5  A    between atoms: C_5  and  N_6
REMARK    6  A    between atoms: C_12  and  C_13
REMARK    7  A    between atoms: N_15  and  C_16
REMARK    8  A    between atoms: C_16  and  C_17
REMARK                            x       y       z     vdW  Elec       q    Type
REMARK                         _______ _______ _______ _____ _____    ______ ____
ROOT
ATOM      1  N   UNL     1       4.741   5.440  17.375  0.00  0.00    +0.000 N 
ATOM      2  C   UNL     1       4.565   6.519  16.521  0.00  0.00    +0.000 A 
ATOM      3  O   UNL     1       5.127   6.647  15.434  0.00  0.00    +0.000 OA
ATOM      4  N   UNL     1       3.706   7.497  16.934  0.00  0.00    +0.000 N 
ATOM      5  C   UNL     1       2.994   7.452  18.126  0.00  0.00    +0.000 A 
ATOM      6  C   UNL     1       2.162   8.511  18.482  0.00  0.00    +0.000 A 
ATOM      7  C   UNL     1       1.455   8.467  19.694  0.00  0.00    +0.000 A 
ATOM      8  C   UNL     1       1.601   7.363  20.546  0.00  0.00    +0.000 A 
ATOM      9  C   UNL     1       2.422   6.296  20.171  0.00  0.00    +0.000 A 
ATOM     10  C   UNL     1       3.120   6.348  18.959  0.00  0.00    +0.000 A 
ATOM     11  C   UNL     1       4.013   5.250  18.548  0.00  0.00    +0.000 A 
ATOM     12  O   UNL     1       4.063   4.240  19.246  0.00  0.00    +0.000 OA
ATOM     13  H   UNL     1       3.625   8.291  16.311  0.00  0.00    +0.000 HD
ENDROOT
BRANCH   7  14
ATOM     14  C   UNL     1       0.595   9.632  20.041  0.00  0.00    +0.000 C 
ATOM     15  O   UNL     1       0.803  10.242  21.086  0.00  0.00    +0.000 OA
ATOM     16  N   UNL     1      -0.379   9.978  19.135  0.00  0.00    +0.000 N 
ATOM     17  H   UNL     1      -0.395   9.551  18.221  0.00  0.00    +0.000 HD
BRANCH  16  18
ATOM     18  C   UNL     1      -1.214  11.147  19.320  0.00  0.00    +0.000 C 
BRANCH  18  19
ATOM     19  C   UNL     1      -2.299  11.187  18.275  0.00  0.00    +0.000 A 
ATOM     20  C   UNL     1      -3.569  11.700  18.581  0.00  0.00    +0.000 A 
ATOM     21  C   UNL     1      -4.588  11.681  17.628  0.00  0.00    +0.000 A 
ATOM     22  C   UNL     1      -4.349  11.152  16.361  0.00  0.00    +0.000 A 
ATOM     23  C   UNL     1      -3.089  10.649  16.042  0.00  0.00    +0.000 A 
ATOM     24  C   UNL     1      -2.070  10.661  16.996  0.00  0.00    +0.000 A 
ENDBRANCH  18  19
ENDBRANCH  16  18
ENDBRANCH   7  14
BRANCH   1  25
ATOM     25  C   UNL     1       5.676   4.394  16.969  0.00  0.00    +0.000 C 
BRANCH  25  26
ATOM     26  C   UNL     1       7.130   4.879  16.968  0.00  0.00    +0.000 C 
BRANCH  26  27
ATOM     27  C   UNL     1       7.712   4.876  18.377  0.00  0.00    +0.000 C 
BRANCH  27  29
ATOM     28  C   UNL     1       7.774   7.316  17.773  0.00  0.00    +0.000 C 
ATOM     29  C   UNL     1       7.891   6.301  18.897  0.00  0.00    +0.000 C 
ENDBRANCH  27  29
ENDBRANCH  26  27
ENDBRANCH  25  26
ENDBRANCH   1  25
TORSDOF 7
ENDMDL
MODEL 2
REMARK VINA RESULT:      -7.6      1.819      2.796
REMARK  Name = 
REMARK  8 active torsions:
REMARK  status: ('A' for Active; 'I' for Inactive)
REMARK    1  A    between atoms: C_1  and  C_2
REMARK    2  A    between atoms: C_2  and  C_3
REMARK    3  A    between atoms: C_3  and  C_4
REMARK    4  A    between atoms: C_4  and  C_5
REMARK    5  A    between atoms: C_5  and  N_6
REMARK    6  A    between atoms: C_12  and  C_13
REMARK    7  A    between atoms: N_15  and  C_16
REMARK    8  A    between atoms: C_16  and  C_17
REMARK                            x       y       z     vdW  Elec       q    Type
REMARK                         _______ _______ _______ _____ _____    ______ ____
ROOT
ATOM      1  N   UNL     1       5.341   5.198  16.805  0.00  0.00    +0.000 N 
ATOM      2  C   UNL     1       5.066   6.419  16.205  0.00  0.00    +0.000 A 
ATOM      3  O   UNL     1       5.576   6.809  15.155  0.00  0.00    +0.000 OA
ATOM      4  N   UNL     1       4.169   7.229  16.839  0.00  0.00    +0.000 N 
ATOM      5  C   UNL     1       3.511   6.888  18.014  0.00  0.00    +0.000 A 
ATOM      6  C   UNL     1       2.632   7.791  18.609  0.00  0.00    +0.000 A 
ATOM      7  C   UNL     1       1.980   7.447  19.803  0.00  0.00    +0.000 A 
ATOM      8  C   UNL     1       2.225   6.202  20.397  0.00  0.00    +0.000 A 
ATOM      9  C   UNL     1       3.091   5.294  19.782  0.00  0.00    +0.000 A 
ATOM     10  C   UNL     1       3.734   5.645  18.590  0.00  0.00    +0.000 A 
ATOM     11  C   UNL     1       4.673   4.719  17.931  0.00  0.00    +0.000 A 
ATOM     12  O   UNL     1       4.812   3.591  18.397  0.00  0.00    +0.000 OA
ATOM     13  H   UNL     1       4.017   8.130  16.401  0.00  0.00    +0.000 HD
ENDROOT
BRANCH   7  14
ATOM     14  C   UNL     1       1.067   8.454  20.412  0.00  0.00    +0.000 C 
ATOM     15  O   UNL     1       0.542   8.211  21.496  0.00  0.00    +0.000 OA
ATOM     16  N   UNL     1       0.890   9.630  19.724  0.00  0.00    +0.000 N 
ATOM     17  H   UNL     1       1.473   9.845  18.929  0.00  0.00    +0.000 HD
BRANCH  16  18
ATOM     18  C   UNL     1       0.100  10.719  20.263  0.00  0.00    +0.000 C 
BRANCH  18  19
ATOM     19  C   UNL     1      -1.140  10.927  19.432  0.00  0.00    +0.000 A 
ATOM     20  C   UNL     1      -1.309  10.249  18.215  0.00  0.00    +0.000 A 
ATOM     21  C   UNL     1      -2.431  10.489  17.421  0.00  0.00    +0.000 A 
ATOM     22  C   UNL     1      -3.395  11.408  17.834  0.00  0.00    +0.000 A 
ATOM     23  C   UNL     1      -3.242  12.081  19.045  0.00  0.00    +0.000 A 
ATOM     24  C   UNL     1      -2.117  11.846  19.838  0.00  0.00    +0.000 A 
ENDBRANCH  18  19
ENDBRANCH  16  18
ENDBRANCH   7  14
BRANCH   1  25
ATOM     25  C   UNL     1       6.318   4.325  16.161  0.00  0.00    +0.000 C 
BRANCH  25  26
ATOM     26  C   UNL     1       5.722   3.557  14.975  0.00  0.00    +0.000 C 
BRANCH  26  27
ATOM     27  C   UNL     1       6.273   4.075  13.651  0.00  0.00    +0.000 C 
BRANCH  27  29
ATOM     28  C   UNL     1       4.715   3.444  11.781  0.00  0.00    +0.000 C 
ATOM     29  C   UNL     1       5.993   3.087  12.520  0.00  0.00    +0.000 C 
ENDBRANCH  27  29
ENDBRANCH  26  27
ENDBRANCH  25  26
ENDBRANCH   1  25
TORSDOF 7
ENDMDL
MODEL 3
REMARK VINA RESULT:      -7.6      1.717      2.759
REMARK  Name = 
REMARK  8 active torsions:
REMARK  status: ('A' for Active; 'I' for Inactive)
REMARK    1  A    between atoms: C_1  and  C_2
REMARK    2  A    between atoms: C_2  and  C_3
REMARK    3  A    between atoms: C_3  and  C_4
REMARK    4  A    between atoms: C_4  and  C_5
REMARK    5  A    between atoms: C_5  and  N_6
REMARK    6  A    between atoms: C_12  and  C_13
REMARK    7  A    between atoms: N_15  and  C_16
REMARK    8  A    between atoms: C_16  and  C_17
REMARK                            x       y       z     vdW  Elec       q    Type
REMARK                         _______ _______ _______ _____ _____    ______ ____
ROOT
ATOM      1  N   UNL     1       3.986   5.204  18.698  0.00  0.00    +0.000 N 
ATOM      2  C   UNL     1       4.075   5.966  17.541  0.00  0.00    +0.000 A 
ATOM      3  O   UNL     1       4.737   5.655  16.552  0.00  0.00    +0.000 OA
ATOM      4  N   UNL     1       3.375   7.137  17.520  0.00  0.00    +0.000 N 
ATOM      5  C   UNL     1       2.573   7.581  18.564  0.00  0.00    +0.000 A 
ATOM      6  C   UNL     1       1.917   8.807  18.468  0.00  0.00    +0.000 A 
ATOM      7  C   UNL     1       1.119   9.257  19.531  0.00  0.00    +0.000 A 
ATOM      8  C   UNL     1       0.996   8.477  20.688  0.00  0.00    +0.000 A 
ATOM      9  C   UNL     1       1.640   7.240  20.768  0.00  0.00    +0.000 A 
ATOM     10  C   UNL     1       2.431   6.798  19.701  0.00  0.00    +0.000 A 
ATOM     11  C   UNL     1       3.143   5.509  19.766  0.00  0.00    +0.000 A 
ATOM     12  O   UNL     1       2.956   4.781  20.737  0.00  0.00    +0.000 OA
ATOM     13  H   UNL     1       3.488   7.693  16.681  0.00  0.00    +0.000 HD
ENDROOT
BRANCH   7  14
ATOM     14  C   UNL     1       0.456  10.583  19.390  0.00  0.00    +0.000 C 
ATOM     15  O   UNL     1       1.120  11.550  19.024  0.00  0.00    +0.000 OA
ATOM     16  N   UNL     1      -0.891  10.637  19.655  0.00  0.00    +0.000 N 
ATOM     17  H   UNL     1      -1.415   9.785  19.786  0.00  0.00    +0.000 HD
BRANCH  16  18
ATOM     18  C   UNL     1      -1.660  11.849  19.463  0.00  0.00    +0.000 C 
BRANCH  18  19
ATOM     19  C   UNL     1      -2.665  11.663  18.356  0.00  0.00    +0.000 A 
ATOM     20  C   UNL     1      -4.032  11.881  18.586  0.00  0.00    +0.000 A 
ATOM     21  C   UNL     1      -4.965  11.651  17.575  0.00  0.00    +0.000 A 
ATOM     22  C   UNL     1      -4.544  11.204  16.323  0.00  0.00    +0.000 A 
ATOM     23  C   UNL     1      -3.187  10.993  16.080  0.00  0.00    +0.000 A 
ATOM     24  C   UNL     1      -2.253  11.217  17.093  0.00  0.00    +0.000 A 
ENDBRANCH  18  19
ENDBRANCH  16  18
ENDBRANCH   7  14
BRANCH   1  25
ATOM     25  C   UNL     1       4.748   3.960  18.756  0.00  0.00    +0.000 C 
BRANCH  25  26
ATOM     26  C   UNL     1       4.130   2.856  17.889  0.00  0.00    +0.000 C 
BRANCH  26  27
ATOM     27  C   UNL     1       3.102   2.050  18.675  0.00  0.00    +0.000 C 
BRANCH  27  29
ATOM     28  C   UNL     1       0.751   2.603  19.374  0.00  0.00    +0.000 C 
ATOM     29  C   UNL     1       1.684   2.362  18.200  0.00  0.00    +0.000 C 
ENDBRANCH  27  29
ENDBRANCH  26  27
ENDBRANCH  25  26
ENDBRANCH   1  25
TORSDOF 7
ENDMDL
MODEL 4
REMARK VINA RESULT:      -7.5      2.914      4.290
REMARK  Name = 
REMARK  8 active torsions:
REMARK  status: ('A' for Active; 'I' for Inactive)
REMARK    1  A    between atoms: C_1  and  C_2
REMARK    2  A    between atoms: C_2  and  C_3
REMARK    3  A    between atoms: C_3  and  C_4
REMARK    4  A    between atoms: C_4  and  C_5
REMARK    5  A    between atoms: C_5  and  N_6
REMARK    6  A    between atoms: C_12  and  C_13
REMARK    7  A    between atoms: N_15  and  C_16
REMARK    8  A    between atoms: C_16  and  C_17
REMARK                            x       y       z     vdW  Elec       q    Type
REMARK                         _______ _______ _______ _____ _____    ______ ____
ROOT
ATOM      1  N   UNL     1       2.735   6.590  18.595  0.00  0.00    +0.000 N 
ATOM      2  C   UNL     1       2.647   6.031  19.862  0.00  0.00    +0.000 A 
ATOM      3  O   UNL     1       3.089   4.925  20.168  0.00  0.00    +0.000 OA
ATOM      4  N   UNL     1       2.021   6.775  20.820  0.00  0.00    +0.000 N 
ATOM      5  C   UNL     1       1.504   8.046  20.603  0.00  0.00    +0.000 A 
ATOM      6  C   UNL     1       0.853   8.720  21.633  0.00  0.00    +0.000 A 
ATOM      7  C   UNL     1       0.321   9.999  21.405  0.00  0.00    +0.000 A 
ATOM      8  C   UNL     1       0.437  10.585  20.137  0.00  0.00    +0.000 A 
ATOM      9  C   UNL     1       1.110   9.910  19.115  0.00  0.00    +0.000 A 
ATOM     10  C   UNL     1       1.640   8.637  19.354  0.00  0.00    +0.000 A 
ATOM     11  C   UNL     1       2.333   7.890  18.289  0.00  0.00    +0.000 A 
ATOM     12  O   UNL     1       2.522   8.443  17.209  0.00  0.00    +0.000 OA
ATOM     13  H   UNL     1       1.935   6.328  21.725  0.00  0.00    +0.000 HD
ENDROOT
BRANCH   7  14
ATOM     14  C   UNL     1      -0.385  10.670  22.531  0.00  0.00    +0.000 C 
ATOM     15  O   UNL     1      -0.183  10.288  23.680  0.00  0.00    +0.000 OA
ATOM     16  N   UNL     1      -1.214  11.718  22.209  0.00  0.00    +0.000 N 
ATOM     17  H   UNL     1      -1.212  12.096  21.273  0.00  0.00    +0.000 HD
BRANCH  16  18
ATOM     18  C   UNL     1      -1.881  12.505  23.225  0.00  0.00    +0.000 C 
BRANCH  18  19
ATOM     19  C   UNL     1      -3.351  12.622  22.917  0.00  0.00    +0.000 A 
ATOM     20  C   UNL     1      -3.804  12.661  21.590  0.00  0.00    +0.000 A 
ATOM     21  C   UNL     1      -5.160  12.827  21.309  0.00  0.00    +0.000 A 
ATOM     22  C   UNL     1      -6.079  12.955  22.350  0.00  0.00    +0.000 A 
ATOM     23  C   UNL     1      -5.642  12.909  23.673  0.00  0.00    +0.000 A 
ATOM     24  C   UNL     1      -4.284  12.748  23.956  0.00  0.00    +0.000 A 
ENDBRANCH  18  19
ENDBRANCH  16  18
ENDBRANCH   7  14
BRANCH   1  25
ATOM     25  C   UNL     1       3.376   5.804  17.545  0.00  0.00    +0.000 C 
BRANCH  25  26
ATOM     26  C   UNL     1       4.875   6.102  17.425  0.00  0.00    +0.000 C 
BRANCH  26  27
ATOM     27  C   UNL     1       5.279   6.314  15.969  0.00  0.00    +0.000 C 
BRANCH  27  29
ATOM     28  C   UNL     1       5.808   4.007  15.121  0.00  0.00    +0.000 C 
ATOM     29  C   UNL     1       6.384   5.341  15.563  0.00  0.00    +0.000 C 
ENDBRANCH  27  29
ENDBRANCH  26  27
ENDBRANCH  25  26
ENDBRANCH   1  25
TORSDOF 7
ENDMDL
MODEL 5
REMARK VINA RESULT:      -7.5      2.150      3.640
REMARK  Name = 
REMARK  8 active torsions:
REMARK  status: ('A' for Active; 'I' for Inactive)
REMARK    1  A    between atoms: C_1  and  C_2
REMARK    2  A    between atoms: C_2  and  C_3
REMARK    3  A    between atoms: C_3  and  C_4
REMARK    4  A    between atoms: C_4  and  C_5
REMARK    5  A    between atoms: C_5  and  N_6
REMARK    6  A    between atoms: C_12  and  C_13
REMARK    7  A    between atoms: N_15  and  C_16
REMARK    8  A    between atoms: C_16  and  C_17
REMARK                            x       y       z     vdW  Elec       q    Type
REMARK                         _______ _______ _______ _____ _____    ______ ____
ROOT
ATOM      1  N   UNL     1       3.673   4.132  19.704  0.00  0.00    +0.000 N 
ATOM      2  C   UNL     1       2.814   4.403  20.760  0.00  0.00    +0.000 A 
ATOM      3  O   UNL     1       2.595   3.634  21.695  0.00  0.00    +0.000 OA
ATOM      4  N   UNL     1       2.176   5.609  20.741  0.00  0.00    +0.000 N 
ATOM      5  C   UNL     1       2.361   6.570  19.754  0.00  0.00    +0.000 A 
ATOM      6  C   UNL     1       1.643   7.763  19.798  0.00  0.00    +0.000 A 
ATOM      7  C   UNL     1       1.823   8.724  18.792  0.00  0.00    +0.000 A 
ATOM      8  C   UNL     1       2.716   8.473  17.741  0.00  0.00    +0.000 A 
ATOM      9  C   UNL     1       3.447   7.283  17.716  0.00  0.00    +0.000 A 
ATOM     10  C   UNL     1       3.263   6.332  18.726  0.00  0.00    +0.000 A 
ATOM     11  C   UNL     1       4.001   5.056  18.713  0.00  0.00    +0.000 A 
ATOM     12  O   UNL     1       4.854   4.879  17.848  0.00  0.00    +0.000 OA
ATOM     13  H   UNL     1       1.525   5.765  21.501  0.00  0.00    +0.000 HD
ENDROOT
BRANCH   7  14
ATOM     14  C   UNL     1       1.017   9.974  18.871  0.00  0.00    +0.000 C 
ATOM     15  O   UNL     1       1.568  11.056  18.685  0.00  0.00    +0.000 OA
ATOM     16  N   UNL     1      -0.326   9.833  19.121  0.00  0.00    +0.000 N 
ATOM     17  H   UNL     1      -0.753   8.919  19.098  0.00  0.00    +0.000 HD
BRANCH  16  18
ATOM     18  C   UNL     1      -1.225  10.969  19.129  0.00  0.00    +0.000 C 
BRANCH  18  19
ATOM     19  C   UNL     1      -2.190  10.881  17.975  0.00  0.00    +0.000 A 
ATOM     20  C   UNL     1      -3.405  11.582  18.003  0.00  0.00    +0.000 A 
ATOM     21  C   UNL     1      -4.321  11.452  16.958  0.00  0.00    +0.000 A 
ATOM     22  C   UNL     1      -4.033  10.624  15.875  0.00  0.00    +0.000 A 
ATOM     23  C   UNL     1      -2.824   9.930  15.831  0.00  0.00    +0.000 A 
ATOM     24  C   UNL     1      -1.909  10.054  16.878  0.00  0.00    +0.000 A 
ENDBRANCH  18  19
ENDBRANCH  16  18
ENDBRANCH   7  14
BRANCH   1  25
ATOM     25  C   UNL     1       4.347   2.837  19.687  0.00  0.00    +0.000 C 
BRANCH  25  26
ATOM     26  C   UNL     1       3.806   1.912  18.591  0.00  0.00    +0.000 C 
BRANCH  26  27
ATOM     27  C   UNL     1       2.507   2.455  18.005  0.00  0.00    +0.000 C 
BRANCH  27  29
ATOM     28  C   UNL     1       0.305   2.862  19.148  0.00  0.00    +0.000 C 
ATOM     29  C   UNL     1       1.295   1.811  18.675  0.00  0.00    +0.000 C 
ENDBRANCH  27  29
ENDBRANCH  26  27
ENDBRANCH  25  26
ENDBRANCH   1  25
TORSDOF 7
ENDMDL
MODEL 6
REMARK VINA RESULT:      -7.5      1.358      2.514
REMARK  Name = 
REMARK  8 active torsions:
REMARK  status: ('A' for Active; 'I' for Inactive)
REMARK    1  A    between atoms: C_1  and  C_2
REMARK    2  A    between atoms: C_2  and  C_3
REMARK    3  A    between atoms: C_3  and  C_4
REMARK    4  A    between atoms: C_4  and  C_5
REMARK    5  A    between atoms: C_5  and  N_6
REMARK    6  A    between atoms: C_12  and  C_13
REMARK    7  A    between atoms: N_15  and  C_16
REMARK    8  A    between atoms: C_16  and  C_17
REMARK                            x       y       z     vdW  Elec       q    Type
REMARK                         _______ _______ _______ _____ _____    ______ ____
ROOT
ATOM      1  N   UNL     1       3.970   5.423  18.454  0.00  0.00    +0.000 N 
ATOM      2  C   UNL     1       3.433   5.172  19.708  0.00  0.00    +0.000 A 
ATOM      3  O   UNL     1       3.668   4.168  20.379  0.00  0.00    +0.000 OA
ATOM      4  N   UNL     1       2.587   6.116  20.216  0.00  0.00    +0.000 N 
ATOM      5  C   UNL     1       2.267   7.301  19.565  0.00  0.00    +0.000 A 
ATOM      6  C   UNL     1       1.368   8.194  20.145  0.00  0.00    +0.000 A 
ATOM      7  C   UNL     1       1.038   9.384  19.478  0.00  0.00    +0.000 A 
ATOM      8  C   UNL     1       1.603   9.660  18.226  0.00  0.00    +0.000 A 
ATOM      9  C   UNL     1       2.519   8.769  17.662  0.00  0.00    +0.000 A 
ATOM     10  C   UNL     1       2.845   7.587  18.336  0.00  0.00    +0.000 A 
ATOM     11  C   UNL     1       3.788   6.615  17.754  0.00  0.00    +0.000 A 
ATOM     12  O   UNL     1       4.359   6.904  16.706  0.00  0.00    +0.000 OA
ATOM     13  H   UNL     1       2.179   5.890  21.115  0.00  0.00    +0.000 HD
ENDROOT
BRANCH   7  14
ATOM     14  C   UNL     1       0.057  10.296  20.128  0.00  0.00    +0.000 C 
ATOM     15  O   UNL     1      -0.335  10.046  21.265  0.00  0.00    +0.000 OA
ATOM     16  N   UNL     1      -0.335  11.401  19.411  0.00  0.00    +0.000 N 
ATOM     17  H   UNL     1       0.143  11.646  18.557  0.00  0.00    +0.000 HD
BRANCH  16  18
ATOM     18  C   UNL     1      -1.212  12.406  19.975  0.00  0.00    +0.000 C 
BRANCH  18  19
ATOM     19  C   UNL     1      -2.623  12.206  19.484  0.00  0.00    +0.000 A 
ATOM     20  C   UNL     1      -2.869  11.613  18.236  0.00  0.00    +0.000 A 
ATOM     21  C   UNL     1      -4.174  11.483  17.760  0.00  0.00    +0.000 A 
ATOM     22  C   UNL     1      -5.246  11.941  18.525  0.00  0.00    +0.000 A 
ATOM     23  C   UNL     1      -5.014  12.524  19.770  0.00  0.00    +0.000 A 
ATOM     24  C   UNL     1      -3.708  12.660  20.245  0.00  0.00    +0.000 A 
ENDBRANCH  18  19
ENDBRANCH  16  18
ENDBRANCH   7  14
BRANCH   1  25
ATOM     25  C   UNL     1       4.856   4.416  17.877  0.00  0.00    +0.000 C 
BRANCH  25  26
ATOM     26  C   UNL     1       6.272   4.480  18.462  0.00  0.00    +0.000 C 
BRANCH  26  27
ATOM     27  C   UNL     1       7.190   5.328  17.588  0.00  0.00    +0.000 C 
BRANCH  27  29
ATOM     28  C   UNL     1       7.645   7.801  17.558  0.00  0.00    +0.000 C 
ATOM     29  C   UNL     1       7.739   6.520  18.370  0.00  0.00    +0.000 C 
ENDBRANCH  27  29
ENDBRANCH  26  27
ENDBRANCH  25  26
ENDBRANCH   1  25
TORSDOF 7
ENDMDL
MODEL 7
REMARK VINA RESULT:      -7.5      2.764      9.206
REMARK  Name = 
REMARK  8 active torsions:
REMARK  status: ('A' for Active; 'I' for Inactive)
REMARK    1  A    between atoms: C_1  and  C_2
REMARK    2  A    between atoms: C_2  and  C_3
REMARK    3  A    between atoms: C_3  and  C_4
REMARK    4  A    between atoms: C_4  and  C_5
REMARK    5  A    between atoms: C_5  and  N_6
REMARK    6  A    between atoms: C_12  and  C_13
REMARK    7  A    between atoms: N_15  and  C_16
REMARK    8  A    between atoms: C_16  and  C_17
REMARK                            x       y       z     vdW  Elec       q    Type
REMARK                         _______ _______ _______ _____ _____    ______ ____
ROOT
ATOM      1  N   UNL     1       0.353  10.905  21.246  0.00  0.00    +0.000 N 
ATOM      2  C   UNL     1       0.487   9.929  22.223  0.00  0.00    +0.000 A 
ATOM      3  O   UNL     1       0.156  10.070  23.399  0.00  0.00    +0.000 OA
ATOM      4  N   UNL     1       1.028   8.737  21.833  0.00  0.00    +0.000 N 
ATOM      5  C   UNL     1       1.416   8.450  20.530  0.00  0.00    +0.000 A 
ATOM      6  C   UNL     1       1.988   7.216  20.229  0.00  0.00    +0.000 A 
ATOM      7  C   UNL     1       2.390   6.936  18.914  0.00  0.00    +0.000 A 
ATOM      8  C   UNL     1       2.226   7.904  17.914  0.00  0.00    +0.000 A 
ATOM      9  C   UNL     1       1.632   9.130  18.221  0.00  0.00    +0.000 A 
ATOM     10  C   UNL     1       1.231   9.399  19.534  0.00  0.00    +0.000 A 
ATOM     11  C   UNL     1       0.625  10.694  19.895  0.00  0.00    +0.000 A 
ATOM     12  O   UNL     1       0.390  11.503  19.000  0.00  0.00    +0.000 OA
ATOM     13  H   UNL     1       1.151   8.057  22.573  0.00  0.00    +0.000 HD
ENDROOT
BRANCH   7  14
ATOM     14  C   UNL     1       3.017   5.612  18.645  0.00  0.00    +0.000 C 
ATOM     15  O   UNL     1       2.312   4.680  18.264  0.00  0.00    +0.000 OA
ATOM     16  N   UNL     1       4.377   5.521  18.814  0.00  0.00    +0.000 N 
ATOM     17  H   UNL     1       4.926   6.355  18.964  0.00  0.00    +0.000 HD
BRANCH  16  18
ATOM     18  C   UNL     1       5.108   4.312  18.495  0.00  0.00    +0.000 C 
BRANCH  18  19
ATOM     19  C   UNL     1       5.704   4.410  17.114  0.00  0.00    +0.000 A 
ATOM     20  C   UNL     1       7.027   4.843  16.934  0.00  0.00    +0.000 A 
ATOM     21  C   UNL     1       7.555   4.987  15.651  0.00  0.00    +0.000 A 
ATOM     22  C   UNL     1       6.771   4.699  14.535  0.00  0.00    +0.000 A 
ATOM     23  C   UNL     1       5.459   4.259  14.702  0.00  0.00    +0.000 A 
ATOM     24  C   UNL     1       4.926   4.119  15.985  0.00  0.00    +0.000 A 
ENDBRANCH  18  19
ENDBRANCH  16  18
ENDBRANCH   7  14
BRANCH   1  25
ATOM     25  C   UNL     1      -0.197  12.197  21.643  0.00  0.00    +0.000 C 
BRANCH  25  26
ATOM     26  C   UNL     1      -1.729  12.224  21.579  0.00  0.00    +0.000 C 
BRANCH  26  27
ATOM     27  C   UNL     1      -2.280  13.534  22.134  0.00  0.00    +0.000 C 
BRANCH  27  29
ATOM     28  C   UNL     1      -1.802  14.732  24.292  0.00  0.00    +0.000 C 
ATOM     29  C   UNL     1      -2.383  13.480  23.657  0.00  0.00    +0.000 C 
ENDBRANCH  27  29
ENDBRANCH  26  27
ENDBRANCH  25  26
ENDBRANCH   1  25
TORSDOF 7
ENDMDL
MODEL 8
REMARK VINA RESULT:      -7.5      2.638      9.529
REMARK  Name = 
REMARK  8 active torsions:
REMARK  status: ('A' for Active; 'I' for Inactive)
REMARK    1  A    between atoms: C_1  and  C_2
REMARK    2  A    between atoms: C_2  and  C_3
REMARK    3  A    between atoms: C_3  and  C_4
REMARK    4  A    between atoms: C_4  and  C_5
REMARK    5  A    between atoms: C_5  and  N_6
REMARK    6  A    between atoms: C_12  and  C_13
REMARK    7  A    between atoms: N_15  and  C_16
REMARK    8  A    between atoms: C_16  and  C_17
REMARK                            x       y       z     vdW  Elec       q    Type
REMARK                         _______ _______ _______ _____ _____    ______ ____
ROOT
ATOM      1  N   UNL     1      -1.061  12.085  21.972  0.00  0.00    +0.000 N 
ATOM      2  C   UNL     1      -0.849  12.638  20.717  0.00  0.00    +0.000 A 
ATOM      3  O   UNL     1      -1.264  13.741  20.363  0.00  0.00    +0.000 OA
ATOM      4  N   UNL     1      -0.132  11.892  19.828  0.00  0.00    +0.000 N 
ATOM      5  C   UNL     1       0.409  10.646  20.119  0.00  0.00    +0.000 A 
ATOM      6  C   UNL     1       1.103   9.940  19.138  0.00  0.00    +0.000 A 
ATOM      7  C   UNL     1       1.636   8.676  19.433  0.00  0.00    +0.000 A 
ATOM      8  C   UNL     1       1.457   8.125  20.709  0.00  0.00    +0.000 A 
ATOM      9  C   UNL     1       0.778   8.849  21.693  0.00  0.00    +0.000 A 
ATOM     10  C   UNL     1       0.253  10.110  21.390  0.00  0.00    +0.000 A 
ATOM     11  C   UNL     1      -0.490  10.887  22.399  0.00  0.00    +0.000 A 
ATOM     12  O   UNL     1      -0.561  10.448  23.544  0.00  0.00    +0.000 OA
ATOM     13  H   UNL     1      -0.026  12.301  18.907  0.00  0.00    +0.000 HD
ENDROOT
BRANCH   7  14
ATOM     14  C   UNL     1       2.350   7.951  18.346  0.00  0.00    +0.000 C 
ATOM     15  O   UNL     1       2.536   8.513  17.270  0.00  0.00    +0.000 OA
ATOM     16  N   UNL     1       2.793   6.681  18.631  0.00  0.00    +0.000 N 
ATOM     17  H   UNL     1       2.763   6.336  19.578  0.00  0.00    +0.000 HD
BRANCH  16  18
ATOM     18  C   UNL     1       3.579   5.916  17.685  0.00  0.00    +0.000 C 
BRANCH  18  19
ATOM     19  C   UNL     1       5.049   6.068  17.981  0.00  0.00    +0.000 A 
ATOM     20  C   UNL     1       5.866   6.861  17.160  0.00  0.00    +0.000 A 
ATOM     21  C   UNL     1       7.237   6.952  17.403  0.00  0.00    +0.000 A 
ATOM     22  C   UNL     1       7.806   6.255  18.467  0.00  0.00    +0.000 A 
ATOM     23  C   UNL     1       7.003   5.471  19.295  0.00  0.00    +0.000 A 
ATOM     24  C   UNL     1       5.632   5.374  19.050  0.00  0.00    +0.000 A 
ENDBRANCH  18  19
ENDBRANCH  16  18
ENDBRANCH   7  14
BRANCH   1  25
ATOM     25  C   UNL     1      -1.849  12.851  22.932  0.00  0.00    +0.000 C 
BRANCH  25  26
ATOM     26  C   UNL     1      -3.299  12.362  23.020  0.00  0.00    +0.000 C 
BRANCH  26  27
ATOM     27  C   UNL     1      -4.254  13.348  22.356  0.00  0.00    +0.000 C 
BRANCH  27  29
ATOM     28  C   UNL     1      -6.169  12.354  21.064  0.00  0.00    +0.000 C 
ATOM     29  C   UNL     1      -4.726  12.824  21.001  0.00  0.00    +0.000 C 
ENDBRANCH  27  29
ENDBRANCH  26  27
ENDBRANCH  25  26
ENDBRANCH   1  25
TORSDOF 7
ENDMDL
MODEL 9
REMARK VINA RESULT:      -7.4      2.593      9.327
REMARK  Name = 
REMARK  8 active torsions:
REMARK  status: ('A' for Active; 'I' for Inactive)
REMARK    1  A    between atoms: C_1  and  C_2
REMARK    2  A    between atoms: C_2  and  C_3
REMARK    3  A    between atoms: C_3  and  C_4
REMARK    4  A    between atoms: C_4  and  C_5
REMARK    5  A    between atoms: C_5  and  N_6
REMARK    6  A    between atoms: C_12  and  C_13
REMARK    7  A    between atoms: N_15  and  C_16
REMARK    8  A    between atoms: C_16  and  C_17
REMARK                            x       y       z     vdW  Elec       q    Type
REMARK                         _______ _______ _______ _____ _____    ______ ____
ROOT
ATOM      1  N   UNL     1      -0.249  11.186  21.231  0.00  0.00    +0.000 N 
ATOM      2  C   UNL     1      -0.097  10.243  22.238  0.00  0.00    +0.000 A 
ATOM      3  O   UNL     1      -0.522  10.374  23.385  0.00  0.00    +0.000 OA
ATOM      4  N   UNL     1       0.574   9.099  21.914  0.00  0.00    +0.000 N 
ATOM      5  C   UNL     1       1.076   8.826  20.648  0.00  0.00    +0.000 A 
ATOM      6  C   UNL     1       1.777   7.644  20.415  0.00  0.00    +0.000 A 
ATOM      7  C   UNL     1       2.293   7.379  19.137  0.00  0.00    +0.000 A 
ATOM      8  C   UNL     1       2.114   8.311  18.106  0.00  0.00    +0.000 A 
ATOM      9  C   UNL     1       1.392   9.484  18.343  0.00  0.00    +0.000 A 
ATOM     10  C   UNL     1       0.878   9.738  19.619  0.00  0.00    +0.000 A 
ATOM     11  C   UNL     1       0.134  10.978  19.907  0.00  0.00    +0.000 A 
ATOM     12  O   UNL     1      -0.109  11.747  18.980  0.00  0.00    +0.000 OA
ATOM     13  H   UNL     1       0.705   8.446  22.676  0.00  0.00    +0.000 HD
ENDROOT
BRANCH   7  14
ATOM     14  C   UNL     1       3.053   6.113  18.943  0.00  0.00    +0.000 C 
ATOM     15  O   UNL     1       3.723   5.666  19.871  0.00  0.00    +0.000 OA
ATOM     16  N   UNL     1       2.931   5.495  17.722  0.00  0.00    +0.000 N 
ATOM     17  H   UNL     1       2.239   5.815  17.060  0.00  0.00    +0.000 HD
BRANCH  16  18
ATOM     18  C   UNL     1       3.548   4.214  17.449  0.00  0.00    +0.000 C 
BRANCH  18  19
ATOM     19  C   UNL     1       4.871   4.407  16.754  0.00  0.00    +0.000 A 
ATOM     20  C   UNL     1       4.944   4.463  15.354  0.00  0.00    +0.000 A 
ATOM     21  C   UNL     1       6.178   4.583  14.714  0.00  0.00    +0.000 A 
ATOM     22  C   UNL     1       7.351   4.651  15.464  0.00  0.00    +0.000 A 
ATOM     23  C   UNL     1       7.290   4.605  16.856  0.00  0.00    +0.000 A 
ATOM     24  C   UNL     1       6.057   4.479  17.498  0.00  0.00    +0.000 A 
ENDBRANCH  18  19
ENDBRANCH  16  18
ENDBRANCH   7  14
BRANCH   1  25
ATOM     25  C   UNL     1      -0.939  12.430  21.559  0.00  0.00    +0.000 C 
BRANCH  25  26
ATOM     26  C   UNL     1      -2.419  12.399  21.159  0.00  0.00    +0.000 C 
BRANCH  26  27
ATOM     27  C   UNL     1      -3.305  12.921  22.286  0.00  0.00    +0.000 C 
BRANCH  27  29
ATOM     28  C   UNL     1      -3.097  14.340  24.352  0.00  0.00    +0.000 C 
ATOM     29  C   UNL     1      -2.479  13.217  23.537  0.00  0.00    +0.000 C 
ENDBRANCH  27  29
ENDBRANCH  26  27
ENDBRANCH  25  26
ENDBRANCH   1  25
TORSDOF 7
ENDMDL
