MODEL 1
REMARK VINA RESULT:      -7.7      0.000      0.000
REMARK  Name = 
REMARK  11 active torsions:
REMARK  status: ('A' for Active; 'I' for Inactive)
REMARK    1  A    between atoms: C_1  and  O_2
REMARK    2  A    between atoms: O_2  and  C_3
REMARK    3  A    between atoms: C_6  and  S_7
REMARK    4  A    between atoms: S_7  and  N_10
REMARK    5  A    between atoms: N_10  and  C_11
REMARK    6  A    between atoms: C_11  and  C_12
REMARK    7  A    between atoms: C_12  and  C_13
REMARK    8  A    between atoms: C_14  and  C_15
REMARK    9  A    between atoms: N_17  and  C_18
REMARK   10  A    between atoms: C_19  and  O_20
REMARK   11  A    between atoms: O_20  and  C_21
REMARK                            x       y       z     vdW  Elec       q    Type
REMARK                         _______ _______ _______ _____ _____    ______ ____
ROOT
ATOM      1  C   UNL     1       4.336   6.859  18.327  0.00  0.00    +0.000 C 
ENDROOT
BRANCH   1   2
ATOM      2  C   UNL     1       5.236   6.201  17.310  0.00  0.00    +0.000 A 
ATOM      3  C   UNL     1       6.570   6.603  16.977  0.00  0.00    +0.000 A 
ATOM      4  C   UNL     1       7.366   7.761  17.463  0.00  0.00    +0.000 C 
ATOM      5  N   UNL     1       7.140   5.776  16.096  0.00  0.00    +0.000 NA
ATOM      6  N   UNL     1       6.192   4.863  15.847  0.00  0.00    +0.000 N 
ATOM      7  C   UNL     1       6.478   3.763  14.955  0.00  0.00    +0.000 C 
ATOM      8  C   UNL     1       4.999   5.108  16.475  0.00  0.00    +0.000 A 
BRANCH   8   9
ATOM      9  O   UNL     1       3.968   4.291  16.228  0.00  0.00    +0.000 OA
BRANCH   9  10
ATOM     10  C   UNL     1       3.280   3.634  17.221  0.00  0.00    +0.000 A 
ATOM     11  C   UNL     1       3.735   2.466  17.834  0.00  0.00    +0.000 A 
ATOM     12  C   UNL     1       2.904   1.775  18.718  0.00  0.00    +0.000 A 
ATOM     13  C   UNL     1       1.643   2.280  19.030  0.00  0.00    +0.000 A 
ATOM     14  C   UNL     1       1.211   3.479  18.465  0.00  0.00    +0.000 A 
ATOM     15  C   UNL     1       2.029   4.159  17.562  0.00  0.00    +0.000 A 
ENDBRANCH   9  10
ENDBRANCH   8   9
ENDBRANCH   1   2
BRANCH   1  16
ATOM     16  C   UNL     1       3.254   7.736  17.704  0.00  0.00    +0.000 C 
BRANCH  16  17
ATOM     17  N   UNL     1       2.165   8.070  18.635  0.00  0.00    +0.000 NA
ATOM     18  H   UNL     1       1.524   7.317  18.884  0.00  0.00    +0.000 HD
BRANCH  17  19
ATOM     19  S   UNL     1       1.322   9.505  18.285  0.00  0.00    +0.000 S 
ATOM     20  O   UNL     1       0.234   9.239  17.374  0.00  0.00    +0.000 OA
ATOM     21  O   UNL     1       2.327  10.513  18.000  0.00  0.00    +0.000 OA
BRANCH  19  25
ATOM     22  C   UNL     1      -0.504  10.546  22.323  0.00  0.00    +0.000 A 
ATOM     23  C   UNL     1      -0.847  11.266  21.176  0.00  0.00    +0.000 A 
ATOM     24  C   UNL     1      -0.302  10.934  19.944  0.00  0.00    +0.000 A 
ATOM     25  C   UNL     1       0.612   9.885  19.862  0.00  0.00    +0.000 A 
ATOM     26  C   UNL     1       0.963   9.150  21.000  0.00  0.00    +0.000 A 
ATOM     27  C   UNL     1       0.413   9.495  22.239  0.00  0.00    +0.000 A 
BRANCH  22  29
ATOM     28  C   UNL     1      -2.207  11.853  23.297  0.00  0.00    +0.000 C 
ATOM     29  O   UNL     1      -1.094  10.986  23.474  0.00  0.00    +0.000 OA
ENDBRANCH  22  29
ENDBRANCH  19  25
ENDBRANCH  17  19
ENDBRANCH  16  17
ENDBRANCH   1  16
TORSDOF 8
ENDMDL
MODEL 2
REMARK VINA RESULT:      -7.5      0.220      1.309
REMARK  Name = 
REMARK  11 active torsions:
REMARK  status: ('A' for Active; 'I' for Inactive)
REMARK    1  A    between atoms: C_1  and  O_2
REMARK    2  A    between atoms: O_2  and  C_3
REMARK    3  A    between atoms: C_6  and  S_7
REMARK    4  A    between atoms: S_7  and  N_10
REMARK    5  A    between atoms: N_10  and  C_11
REMARK    6  A    between atoms: C_11  and  C_12
REMARK    7  A    between atoms: C_12  and  C_13
REMARK    8  A    between atoms: C_14  and  C_15
REMARK    9  A    between atoms: N_17  and  C_18
REMARK   10  A    between atoms: C_19  and  O_20
REMARK   11  A    between atoms: O_20  and  C_21
REMARK                            x       y       z     vdW  Elec       q    Type
REMARK                         _______ _______ _______ _____ _____    ______ ____
ROOT
ATOM      1  C   UNL     1       4.288   6.706  18.387  0.00  0.00    +0.000 C 
ENDROOT
BRANCH   1   2
ATOM      2  C   UNL     1       5.179   6.092  17.335  0.00  0.00    +0.000 A 
ATOM      3  C   UNL     1       6.504   6.517  16.997  0.00  0.00    +0.000 A 
ATOM      4  C   UNL     1       7.297   7.664  17.512  0.00  0.00    +0.000 C 
ATOM      5  N   UNL     1       7.068   5.726  16.080  0.00  0.00    +0.000 NA
ATOM      6  N   UNL     1       6.124   4.814  15.813  0.00  0.00    +0.000 N 
ATOM      7  C   UNL     1       6.406   3.749  14.879  0.00  0.00    +0.000 C 
ATOM      8  C   UNL     1       4.939   5.027  16.465  0.00  0.00    +0.000 A 
BRANCH   8   9
ATOM      9  O   UNL     1       3.911   4.210  16.205  0.00  0.00    +0.000 OA
BRANCH   9  10
ATOM     10  C   UNL     1       3.174   3.597  17.192  0.00  0.00    +0.000 A 
ATOM     11  C   UNL     1       1.888   3.998  17.557  0.00  0.00    +0.000 A 
ATOM     12  C   UNL     1       1.273   3.428  18.673  0.00  0.00    +0.000 A 
ATOM     13  C   UNL     1       1.919   2.422  19.390  0.00  0.00    +0.000 A 
ATOM     14  C   UNL     1       3.179   1.979  18.990  0.00  0.00    +0.000 A 
ATOM     15  C   UNL     1       3.807   2.564  17.889  0.00  0.00    +0.000 A 
ENDBRANCH   9  10
ENDBRANCH   8   9
ENDBRANCH   1   2
BRANCH   1  16
ATOM     16  C   UNL     1       3.135   7.520  17.807  0.00  0.00    +0.000 C 
BRANCH  16  17
ATOM     17  N   UNL     1       2.312   8.179  18.834  0.00  0.00    +0.000 NA
ATOM     18  H   UNL     1       1.742   7.575  19.426  0.00  0.00    +0.000 HD
BRANCH  17  19
ATOM     19  S   UNL     1       1.427   9.531  18.300  0.00  0.00    +0.000 S 
ATOM     20  O   UNL     1       0.418   9.126  17.350  0.00  0.00    +0.000 OA
ATOM     21  O   UNL     1       2.400  10.562  17.988  0.00  0.00    +0.000 OA
BRANCH  19  25
ATOM     22  C   UNL     1      -0.718  10.697  22.142  0.00  0.00    +0.000 A 
ATOM     23  C   UNL     1       0.165   9.613  22.116  0.00  0.00    +0.000 A 
ATOM     24  C   UNL     1       0.830   9.272  20.948  0.00  0.00    +0.000 A 
ATOM     25  C   UNL     1       0.594  10.009  19.788  0.00  0.00    +0.000 A 
ATOM     26  C   UNL     1      -0.282  11.100  19.797  0.00  0.00    +0.000 A 
ATOM     27  C   UNL     1      -0.953  11.433  20.979  0.00  0.00    +0.000 A 
BRANCH  22  29
ATOM     28  C   UNL     1      -2.374  11.872  23.341  0.00  0.00    +0.000 C 
ATOM     29  O   UNL     1      -1.322  10.914  23.348  0.00  0.00    +0.000 OA
ENDBRANCH  22  29
ENDBRANCH  19  25
ENDBRANCH  17  19
ENDBRANCH  16  17
ENDBRANCH   1  16
TORSDOF 8
ENDMDL
MODEL 3
REMARK VINA RESULT:      -7.4      3.178      7.685
REMARK  Name = 
REMARK  11 active torsions:
REMARK  status: ('A' for Active; 'I' for Inactive)
REMARK    1  A    between atoms: C_1  and  O_2
REMARK    2  A    between atoms: O_2  and  C_3
REMARK    3  A    between atoms: C_6  and  S_7
REMARK    4  A    between atoms: S_7  and  N_10
REMARK    5  A    between atoms: N_10  and  C_11
REMARK    6  A    between atoms: C_11  and  C_12
REMARK    7  A    between atoms: C_12  and  C_13
REMARK    8  A    between atoms: C_14  and  C_15
REMARK    9  A    between atoms: N_17  and  C_18
REMARK   10  A    between atoms: C_19  and  O_20
REMARK   11  A    between atoms: O_20  and  C_21
REMARK                            x       y       z     vdW  Elec       q    Type
REMARK                         _______ _______ _______ _____ _____    ______ ____
ROOT
ATOM      1  C   UNL     1       3.408   7.317  17.295  0.00  0.00    +0.000 C 
ENDROOT
BRANCH   1   2
ATOM      2  C   UNL     1       2.592   7.833  18.455  0.00  0.00    +0.000 A 
ATOM      3  C   UNL     1       2.012   9.139  18.566  0.00  0.00    +0.000 A 
ATOM      4  C   UNL     1       2.109  10.305  17.650  0.00  0.00    +0.000 C 
ATOM      5  N   UNL     1       1.280   9.270  19.675  0.00  0.00    +0.000 NA
ATOM      6  N   UNL     1       1.393   8.083  20.284  0.00  0.00    +0.000 N 
ATOM      7  C   UNL     1       0.680   7.842  21.517  0.00  0.00    +0.000 C 
ATOM      8  C   UNL     1       2.235   7.207  19.651  0.00  0.00    +0.000 A 
BRANCH   8   9
ATOM      9  O   UNL     1       2.470   6.020  20.223  0.00  0.00    +0.000 OA
BRANCH   9  10
ATOM     10  C   UNL     1       1.858   4.858  19.815  0.00  0.00    +0.000 A 
ATOM     11  C   UNL     1       1.216   3.976  20.686  0.00  0.00    +0.000 A 
ATOM     12  C   UNL     1       0.761   2.743  20.216  0.00  0.00    +0.000 A 
ATOM     13  C   UNL     1       0.897   2.415  18.868  0.00  0.00    +0.000 A 
ATOM     14  C   UNL     1       1.484   3.321  17.985  0.00  0.00    +0.000 A 
ATOM     15  C   UNL     1       1.963   4.544  18.457  0.00  0.00    +0.000 A 
ENDBRANCH   9  10
ENDBRANCH   8   9
ENDBRANCH   1   2
BRANCH   1  16
ATOM     16  C   UNL     1       4.841   6.955  17.674  0.00  0.00    +0.000 C 
BRANCH  16  17
ATOM     17  N   UNL     1       4.935   6.151  18.903  0.00  0.00    +0.000 NA
ATOM     18  H   UNL     1       5.063   6.659  19.777  0.00  0.00    +0.000 HD
BRANCH  17  19
ATOM     19  S   UNL     1       5.971   4.805  18.815  0.00  0.00    +0.000 S 
ATOM     20  O   UNL     1       5.317   3.632  19.345  0.00  0.00    +0.000 OA
ATOM     21  O   UNL     1       7.263   5.248  19.307  0.00  0.00    +0.000 OA
BRANCH  19  25
ATOM     22  C   UNL     1       6.362   4.303  14.308  0.00  0.00    +0.000 A 
ATOM     23  C   UNL     1       7.402   4.859  15.058  0.00  0.00    +0.000 A 
ATOM     24  C   UNL     1       7.286   4.994  16.433  0.00  0.00    +0.000 A 
ATOM     25  C   UNL     1       6.109   4.588  17.063  0.00  0.00    +0.000 A 
ATOM     26  C   UNL     1       5.061   4.025  16.327  0.00  0.00    +0.000 A 
ATOM     27  C   UNL     1       5.184   3.898  14.939  0.00  0.00    +0.000 A 
BRANCH  22  29
ATOM     28  C   UNL     1       5.897   3.220  12.265  0.00  0.00    +0.000 C 
ATOM     29  O   UNL     1       6.594   4.245  12.962  0.00  0.00    +0.000 OA
ENDBRANCH  22  29
ENDBRANCH  19  25
ENDBRANCH  17  19
ENDBRANCH  16  17
ENDBRANCH   1  16
TORSDOF 8
ENDMDL
MODEL 4
REMARK VINA RESULT:      -7.4      2.634      4.612
REMARK  Name = 
REMARK  11 active torsions:
REMARK  status: ('A' for Active; 'I' for Inactive)
REMARK    1  A    between atoms: C_1  and  O_2
REMARK    2  A    between atoms: O_2  and  C_3
REMARK    3  A    between atoms: C_6  and  S_7
REMARK    4  A    between atoms: S_7  and  N_10
REMARK    5  A    between atoms: N_10  and  C_11
REMARK    6  A    between atoms: C_11  and  C_12
REMARK    7  A    between atoms: C_12  and  C_13
REMARK    8  A    between atoms: C_14  and  C_15
REMARK    9  A    between atoms: N_17  and  C_18
REMARK   10  A    between atoms: C_19  and  O_20
REMARK   11  A    between atoms: O_20  and  C_21
REMARK                            x       y       z     vdW  Elec       q    Type
REMARK                         _______ _______ _______ _____ _____    ______ ____
ROOT
ATOM      1  C   UNL     1       2.345   7.058  19.530  0.00  0.00    +0.000 C 
ENDROOT
BRANCH   1   2
ATOM      2  C   UNL     1       2.626   5.663  19.029  0.00  0.00    +0.000 A 
ATOM      3  C   UNL     1       1.993   4.459  19.481  0.00  0.00    +0.000 A 
ATOM      4  C   UNL     1       0.993   4.257  20.561  0.00  0.00    +0.000 C 
ATOM      5  N   UNL     1       2.397   3.389  18.790  0.00  0.00    +0.000 NA
ATOM      6  N   UNL     1       3.286   3.881  17.918  0.00  0.00    +0.000 N 
ATOM      7  C   UNL     1       3.908   2.998  16.959  0.00  0.00    +0.000 C 
ATOM      8  C   UNL     1       3.534   5.220  18.065  0.00  0.00    +0.000 A 
BRANCH   8   9
ATOM      9  O   UNL     1       4.463   5.787  17.286  0.00  0.00    +0.000 OA
BRANCH   9  10
ATOM     10  C   UNL     1       5.738   6.063  17.723  0.00  0.00    +0.000 A 
ATOM     11  C   UNL     1       6.369   5.366  18.755  0.00  0.00    +0.000 A 
ATOM     12  C   UNL     1       7.598   5.811  19.245  0.00  0.00    +0.000 A 
ATOM     13  C   UNL     1       8.220   6.918  18.669  0.00  0.00    +0.000 A 
ATOM     14  C   UNL     1       7.619   7.579  17.599  0.00  0.00    +0.000 A 
ATOM     15  C   UNL     1       6.379   7.152  17.123  0.00  0.00    +0.000 A 
ENDBRANCH   9  10
ENDBRANCH   8   9
ENDBRANCH   1   2
BRANCH   1  16
ATOM     16  C   UNL     1       2.410   8.121  18.437  0.00  0.00    +0.000 C 
BRANCH  16  17
ATOM     17  N   UNL     1       1.142   8.844  18.250  0.00  0.00    +0.000 NA
ATOM     18  H   UNL     1       0.782   8.906  17.299  0.00  0.00    +0.000 HD
BRANCH  17  19
ATOM     19  S   UNL     1       1.033  10.342  19.049  0.00  0.00    +0.000 S 
ATOM     20  O   UNL     1       1.864  11.323  18.392  0.00  0.00    +0.000 OA
ATOM     21  O   UNL     1       1.161  10.061  20.468  0.00  0.00    +0.000 OA
BRANCH  19  25
ATOM     22  C   UNL     1      -3.313  11.477  18.313  0.00  0.00    +0.000 A 
ATOM     23  C   UNL     1      -2.588  12.060  19.356  0.00  0.00    +0.000 A 
ATOM     24  C   UNL     1      -1.259  11.725  19.565  0.00  0.00    +0.000 A 
ATOM     25  C   UNL     1      -0.653  10.780  18.737  0.00  0.00    +0.000 A 
ATOM     26  C   UNL     1      -1.363  10.190  17.686  0.00  0.00    +0.000 A 
ATOM     27  C   UNL     1      -2.705  10.530  17.484  0.00  0.00    +0.000 A 
BRANCH  22  29
ATOM     28  C   UNL     1      -5.182  11.843  16.922  0.00  0.00    +0.000 C 
ATOM     29  O   UNL     1      -4.616  11.877  18.226  0.00  0.00    +0.000 OA
ENDBRANCH  22  29
ENDBRANCH  19  25
ENDBRANCH  17  19
ENDBRANCH  16  17
ENDBRANCH   1  16
TORSDOF 8
ENDMDL
MODEL 5
REMARK VINA RESULT:      -7.3      3.120      8.041
REMARK  Name = 
REMARK  11 active torsions:
REMARK  status: ('A' for Active; 'I' for Inactive)
REMARK    1  A    between atoms: C_1  and  O_2
REMARK    2  A    between atoms: O_2  and  C_3
REMARK    3  A    between atoms: C_6  and  S_7
REMARK    4  A    between atoms: S_7  and  N_10
REMARK    5  A    between atoms: N_10  and  C_11
REMARK    6  A    between atoms: C_11  and  C_12
REMARK    7  A    between atoms: C_12  and  C_13
REMARK    8  A    between atoms: C_14  and  C_15
REMARK    9  A    between atoms: N_17  and  C_18
REMARK   10  A    between atoms: C_19  and  O_20
REMARK   11  A    between atoms: O_20  and  C_21
REMARK                            x       y       z     vdW  Elec       q    Type
REMARK                         _______ _______ _______ _____ _____    ______ ____
ROOT
ATOM      1  C   UNL     1       2.895   6.731  17.714  0.00  0.00    +0.000 C 
ENDROOT
BRANCH   1   2
ATOM      2  C   UNL     1       2.274   7.555  18.816  0.00  0.00    +0.000 A 
ATOM      3  C   UNL     1       1.896   8.935  18.729  0.00  0.00    +0.000 A 
ATOM      4  C   UNL     1       2.067   9.901  17.613  0.00  0.00    +0.000 C 
ATOM      5  N   UNL     1       1.299   9.363  19.845  0.00  0.00    +0.000 NA
ATOM      6  N   UNL     1       1.303   8.292  20.649  0.00  0.00    +0.000 N 
ATOM      7  C   UNL     1       0.686   8.376  21.952  0.00  0.00    +0.000 C 
ATOM      8  C   UNL     1       1.950   7.203  20.127  0.00  0.00    +0.000 A 
BRANCH   8   9
ATOM      9  O   UNL     1       2.070   6.108  20.887  0.00  0.00    +0.000 OA
BRANCH   9  10
ATOM     10  C   UNL     1       2.016   4.832  20.375  0.00  0.00    +0.000 A 
ATOM     11  C   UNL     1       0.824   4.161  20.098  0.00  0.00    +0.000 A 
ATOM     12  C   UNL     1       0.852   2.815  19.733  0.00  0.00    +0.000 A 
ATOM     13  C   UNL     1       2.072   2.154  19.592  0.00  0.00    +0.000 A 
ATOM     14  C   UNL     1       3.266   2.840  19.810  0.00  0.00    +0.000 A 
ATOM     15  C   UNL     1       3.240   4.180  20.200  0.00  0.00    +0.000 A 
ENDBRANCH   9  10
ENDBRANCH   8   9
ENDBRANCH   1   2
BRANCH   1  16
ATOM     16  C   UNL     1       4.380   7.012  17.509  0.00  0.00    +0.000 C 
BRANCH  16  17
ATOM     17  N   UNL     1       5.242   5.868  17.846  0.00  0.00    +0.000 NA
ATOM     18  H   UNL     1       5.266   5.581  18.824  0.00  0.00    +0.000 HD
BRANCH  17  19
ATOM     19  S   UNL     1       6.807   5.915  17.180  0.00  0.00    +0.000 S 
ATOM     20  O   UNL     1       7.707   5.092  17.954  0.00  0.00    +0.000 OA
ATOM     21  O   UNL     1       7.095   7.310  16.904  0.00  0.00    +0.000 OA
BRANCH  19  25
ATOM     22  C   UNL     1       6.118   3.771  13.224  0.00  0.00    +0.000 A 
ATOM     23  C   UNL     1       5.248   3.581  14.302  0.00  0.00    +0.000 A 
ATOM     24  C   UNL     1       5.452   4.250  15.500  0.00  0.00    +0.000 A 
ATOM     25  C   UNL     1       6.548   5.102  15.629  0.00  0.00    +0.000 A 
ATOM     26  C   UNL     1       7.426   5.307  14.559  0.00  0.00    +0.000 A 
ATOM     27  C   UNL     1       7.217   4.624  13.356  0.00  0.00    +0.000 A 
BRANCH  22  29
ATOM     28  C   UNL     1       4.507   3.225  11.591  0.00  0.00    +0.000 C 
ATOM     29  O   UNL     1       5.818   3.039  12.110  0.00  0.00    +0.000 OA
ENDBRANCH  22  29
ENDBRANCH  19  25
ENDBRANCH  17  19
ENDBRANCH  16  17
ENDBRANCH   1  16
TORSDOF 8
ENDMDL
MODEL 6
REMARK VINA RESULT:      -7.3      3.421      8.445
REMARK  Name = 
REMARK  11 active torsions:
REMARK  status: ('A' for Active; 'I' for Inactive)
REMARK    1  A    between atoms: C_1  and  O_2
REMARK    2  A    between atoms: O_2  and  C_3
REMARK    3  A    between atoms: C_6  and  S_7
REMARK    4  A    between atoms: S_7  and  N_10
REMARK    5  A    between atoms: N_10  and  C_11
REMARK    6  A    between atoms: C_11  and  C_12
REMARK    7  A    between atoms: C_12  and  C_13
REMARK    8  A    between atoms: C_14  and  C_15
REMARK    9  A    between atoms: N_17  and  C_18
REMARK   10  A    between atoms: C_19  and  O_20
REMARK   11  A    between atoms: O_20  and  C_21
REMARK                            x       y       z     vdW  Elec       q    Type
REMARK                         _______ _______ _______ _____ _____    ______ ____
ROOT
ATOM      1  C   UNL     1       5.429   4.016  19.284  0.00  0.00    +0.000 C 
ENDROOT
BRANCH   1   2
ATOM      2  C   UNL     1       3.954   3.700  19.334  0.00  0.00    +0.000 A 
ATOM      3  C   UNL     1       3.326   2.514  18.832  0.00  0.00    +0.000 A 
ATOM      4  C   UNL     1       3.914   1.362  18.098  0.00  0.00    +0.000 C 
ATOM      5  N   UNL     1       2.016   2.489  19.094  0.00  0.00    +0.000 NA
ATOM      6  N   UNL     1       1.791   3.641  19.738  0.00  0.00    +0.000 N 
ATOM      7  C   UNL     1       0.464   3.939  20.223  0.00  0.00    +0.000 C 
ATOM      8  C   UNL     1       2.891   4.451  19.838  0.00  0.00    +0.000 A 
BRANCH   8   9
ATOM      9  O   UNL     1       2.747   5.658  20.401  0.00  0.00    +0.000 OA
BRANCH   9  10
ATOM     10  C   UNL     1       2.301   6.758  19.707  0.00  0.00    +0.000 A 
ATOM     11  C   UNL     1       2.489   6.935  18.335  0.00  0.00    +0.000 A 
ATOM     12  C   UNL     1       2.150   8.149  17.737  0.00  0.00    +0.000 A 
ATOM     13  C   UNL     1       1.573   9.166  18.497  0.00  0.00    +0.000 A 
ATOM     14  C   UNL     1       1.329   8.968  19.856  0.00  0.00    +0.000 A 
ATOM     15  C   UNL     1       1.690   7.764  20.462  0.00  0.00    +0.000 A 
ENDBRANCH   9  10
ENDBRANCH   8   9
ENDBRANCH   1   2
BRANCH   1  16
ATOM     16  C   UNL     1       5.726   5.490  19.029  0.00  0.00    +0.000 C 
BRANCH  16  17
ATOM     17  N   UNL     1       5.738   5.844  17.601  0.00  0.00    +0.000 NA
ATOM     18  H   UNL     1       4.958   5.510  17.037  0.00  0.00    +0.000 HD
BRANCH  17  19
ATOM     19  S   UNL     1       7.222   5.605  16.804  0.00  0.00    +0.000 S 
ATOM     20  O   UNL     1       8.020   4.632  17.512  0.00  0.00    +0.000 OA
ATOM     21  O   UNL     1       7.733   6.925  16.483  0.00  0.00    +0.000 OA
BRANCH  19  25
ATOM     22  C   UNL     1       5.871   3.726  12.885  0.00  0.00    +0.000 A 
ATOM     23  C   UNL     1       7.038   4.492  12.945  0.00  0.00    +0.000 A 
ATOM     24  C   UNL     1       7.456   5.047  14.146  0.00  0.00    +0.000 A 
ATOM     25  C   UNL     1       6.687   4.854  15.293  0.00  0.00    +0.000 A 
ATOM     26  C   UNL     1       5.518   4.086  15.250  0.00  0.00    +0.000 A 
ATOM     27  C   UNL     1       5.101   3.534  14.035  0.00  0.00    +0.000 A 
BRANCH  22  29
ATOM     28  C   UNL     1       5.756   1.857  11.451  0.00  0.00    +0.000 C 
ATOM     29  O   UNL     1       5.560   3.253  11.641  0.00  0.00    +0.000 OA
ENDBRANCH  22  29
ENDBRANCH  19  25
ENDBRANCH  17  19
ENDBRANCH  16  17
ENDBRANCH   1  16
TORSDOF 8
ENDMDL
MODEL 7
REMARK VINA RESULT:      -7.2      2.019      4.000
REMARK  Name = 
REMARK  11 active torsions:
REMARK  status: ('A' for Active; 'I' for Inactive)
REMARK    1  A    between atoms: C_1  and  O_2
REMARK    2  A    between atoms: O_2  and  C_3
REMARK    3  A    between atoms: C_6  and  S_7
REMARK    4  A    between atoms: S_7  and  N_10
REMARK    5  A    between atoms: N_10  and  C_11
REMARK    6  A    between atoms: C_11  and  C_12
REMARK    7  A    between atoms: C_12  and  C_13
REMARK    8  A    between atoms: C_14  and  C_15
REMARK    9  A    between atoms: N_17  and  C_18
REMARK   10  A    between atoms: C_19  and  O_20
REMARK   11  A    between atoms: O_20  and  C_21
REMARK                            x       y       z     vdW  Elec       q    Type
REMARK                         _______ _______ _______ _____ _____    ______ ____
ROOT
ATOM      1  C   UNL     1       2.867   5.737  19.838  0.00  0.00    +0.000 C 
ENDROOT
BRANCH   1   2
ATOM      2  C   UNL     1       2.964   4.250  19.605  0.00  0.00    +0.000 A 
ATOM      3  C   UNL     1       1.877   3.316  19.641  0.00  0.00    +0.000 A 
ATOM      4  C   UNL     1       0.445   3.533  19.972  0.00  0.00    +0.000 C 
ATOM      5  N   UNL     1       2.266   2.080  19.316  0.00  0.00    +0.000 NA
ATOM      6  N   UNL     1       3.580   2.201  19.088  0.00  0.00    +0.000 N 
ATOM      7  C   UNL     1       4.339   1.049  18.661  0.00  0.00    +0.000 C 
ATOM      8  C   UNL     1       4.077   3.455  19.328  0.00  0.00    +0.000 A 
BRANCH   8   9
ATOM      9  O   UNL     1       5.395   3.655  19.200  0.00  0.00    +0.000 OA
BRANCH   9  10
ATOM     10  C   UNL     1       5.926   4.720  18.510  0.00  0.00    +0.000 A 
ATOM     11  C   UNL     1       5.559   5.056  17.206  0.00  0.00    +0.000 A 
ATOM     12  C   UNL     1       6.258   6.050  16.521  0.00  0.00    +0.000 A 
ATOM     13  C   UNL     1       7.287   6.744  17.156  0.00  0.00    +0.000 A 
ATOM     14  C   UNL     1       7.615   6.450  18.478  0.00  0.00    +0.000 A 
ATOM     15  C   UNL     1       6.934   5.440  19.158  0.00  0.00    +0.000 A 
ENDBRANCH   9  10
ENDBRANCH   8   9
ENDBRANCH   1   2
BRANCH   1  16
ATOM     16  C   UNL     1       2.427   6.519  18.604  0.00  0.00    +0.000 C 
BRANCH  16  17
ATOM     17  N   UNL     1       2.852   7.928  18.624  0.00  0.00    +0.000 NA
ATOM     18  H   UNL     1       3.362   8.244  19.448  0.00  0.00    +0.000 HD
BRANCH  17  19
ATOM     19  S   UNL     1       1.660   9.053  18.168  0.00  0.00    +0.000 S 
ATOM     20  O   UNL     1       0.624   8.404  17.402  0.00  0.00    +0.000 OA
ATOM     21  O   UNL     1       2.365  10.218  17.666  0.00  0.00    +0.000 OA
BRANCH  19  25
ATOM     22  C   UNL     1      -0.121  10.217  22.193  0.00  0.00    +0.000 A 
ATOM     23  C   UNL     1      -0.465  10.913  21.030  0.00  0.00    +0.000 A 
ATOM     24  C   UNL     1       0.066  10.543  19.804  0.00  0.00    +0.000 A 
ATOM     25  C   UNL     1       0.967   9.481  19.741  0.00  0.00    +0.000 A 
ATOM     26  C   UNL     1       1.318   8.771  20.894  0.00  0.00    +0.000 A 
ATOM     27  C   UNL     1       0.782   9.153  22.128  0.00  0.00    +0.000 A 
BRANCH  22  29
ATOM     28  C   UNL     1      -1.804  11.565  23.147  0.00  0.00    +0.000 C 
ATOM     29  O   UNL     1      -0.697  10.693  23.337  0.00  0.00    +0.000 OA
ENDBRANCH  22  29
ENDBRANCH  19  25
ENDBRANCH  17  19
ENDBRANCH  16  17
ENDBRANCH   1  16
TORSDOF 8
ENDMDL
MODEL 8
REMARK VINA RESULT:      -7.1      2.721      3.457
REMARK  Name = 
REMARK  11 active torsions:
REMARK  status: ('A' for Active; 'I' for Inactive)
REMARK    1  A    between atoms: C_1  and  O_2
REMARK    2  A    between atoms: O_2  and  C_3
REMARK    3  A    between atoms: C_6  and  S_7
REMARK    4  A    between atoms: S_7  and  N_10
REMARK    5  A    between atoms: N_10  and  C_11
REMARK    6  A    between atoms: C_11  and  C_12
REMARK    7  A    between atoms: C_12  and  C_13
REMARK    8  A    between atoms: C_14  and  C_15
REMARK    9  A    between atoms: N_17  and  C_18
REMARK   10  A    between atoms: C_19  and  O_20
REMARK   11  A    between atoms: O_20  and  C_21
REMARK                            x       y       z     vdW  Elec       q    Type
REMARK                         _______ _______ _______ _____ _____    ______ ____
ROOT
ATOM      1  C   UNL     1       2.628   7.283  17.332  0.00  0.00    +0.000 C 
ENDROOT
BRANCH   1   2
ATOM      2  C   UNL     1       3.982   6.637  17.499  0.00  0.00    +0.000 A 
ATOM      3  C   UNL     1       5.015   6.570  16.509  0.00  0.00    +0.000 A 
ATOM      4  C   UNL     1       5.011   7.030  15.096  0.00  0.00    +0.000 C 
ATOM      5  N   UNL     1       6.128   6.003  16.982  0.00  0.00    +0.000 NA
ATOM      6  N   UNL     1       5.824   5.692  18.248  0.00  0.00    +0.000 N 
ATOM      7  C   UNL     1       6.826   5.093  19.097  0.00  0.00    +0.000 C 
ATOM      8  C   UNL     1       4.527   5.965  18.595  0.00  0.00    +0.000 A 
BRANCH   8   9
ATOM      9  O   UNL     1       4.107   5.621  19.819  0.00  0.00    +0.000 OA
BRANCH   9  10
ATOM     10  C   UNL     1       3.152   4.655  20.037  0.00  0.00    +0.000 A 
ATOM     11  C   UNL     1       3.376   3.291  19.848  0.00  0.00    +0.000 A 
ATOM     12  C   UNL     1       2.312   2.392  19.937  0.00  0.00    +0.000 A 
ATOM     13  C   UNL     1       1.037   2.850  20.267  0.00  0.00    +0.000 A 
ATOM     14  C   UNL     1       0.824   4.205  20.516  0.00  0.00    +0.000 A 
ATOM     15  C   UNL     1       1.881   5.109  20.403  0.00  0.00    +0.000 A 
ENDBRANCH   9  10
ENDBRANCH   8   9
ENDBRANCH   1   2
BRANCH   1  16
ATOM     16  C   UNL     1       2.463   8.567  18.139  0.00  0.00    +0.000 C 
BRANCH  16  17
ATOM     17  N   UNL     1       1.382   9.433  17.643  0.00  0.00    +0.000 NA
ATOM     18  H   UNL     1       1.531   9.888  16.743  0.00  0.00    +0.000 HD
BRANCH  17  19
ATOM     19  S   UNL     1       0.739  10.520  18.783  0.00  0.00    +0.000 S 
ATOM     20  O   UNL     1       1.328  11.828  18.617  0.00  0.00    +0.000 OA
ATOM     21  O   UNL     1       0.756   9.832  20.061  0.00  0.00    +0.000 OA
BRANCH  19  25
ATOM     22  C   UNL     1      -3.612  10.805  17.477  0.00  0.00    +0.000 A 
ATOM     23  C   UNL     1      -3.114  11.628  18.491  0.00  0.00    +0.000 A 
ATOM     24  C   UNL     1      -1.783  11.550  18.873  0.00  0.00    +0.000 A 
ATOM     25  C   UNL     1      -0.946  10.625  18.251  0.00  0.00    +0.000 A 
ATOM     26  C   UNL     1      -1.427   9.797  17.231  0.00  0.00    +0.000 A 
ATOM     27  C   UNL     1      -2.772   9.878  16.854  0.00  0.00    +0.000 A 
BRANCH  22  29
ATOM     28  C   UNL     1      -5.512  12.190  17.658  0.00  0.00    +0.000 C 
ATOM     29  O   UNL     1      -4.942  10.966  17.209  0.00  0.00    +0.000 OA
ENDBRANCH  22  29
ENDBRANCH  19  25
ENDBRANCH  17  19
ENDBRANCH  16  17
ENDBRANCH   1  16
TORSDOF 8
ENDMDL
MODEL 9
REMARK VINA RESULT:      -7.1      2.632      7.857
REMARK  Name = 
REMARK  11 active torsions:
REMARK  status: ('A' for Active; 'I' for Inactive)
REMARK    1  A    between atoms: C_1  and  O_2
REMARK    2  A    between atoms: O_2  and  C_3
REMARK    3  A    between atoms: C_6  and  S_7
REMARK    4  A    between atoms: S_7  and  N_10
REMARK    5  A    between atoms: N_10  and  C_11
REMARK    6  A    between atoms: C_11  and  C_12
REMARK    7  A    between atoms: C_12  and  C_13
REMARK    8  A    between atoms: C_14  and  C_15
REMARK    9  A    between atoms: N_17  and  C_18
REMARK   10  A    between atoms: C_19  and  O_20
REMARK   11  A    between atoms: O_20  and  C_21
REMARK                            x       y       z     vdW  Elec       q    Type
REMARK                         _______ _______ _______ _____ _____    ______ ____
ROOT
ATOM      1  C   UNL     1       2.063   8.223  17.860  0.00  0.00    +0.000 C 
ENDROOT
BRANCH   1   2
ATOM      2  C   UNL     1       1.501   8.613  19.205  0.00  0.00    +0.000 A 
ATOM      3  C   UNL     1       1.579   7.841  20.409  0.00  0.00    +0.000 A 
ATOM      4  C   UNL     1       2.142   6.485  20.637  0.00  0.00    +0.000 C 
ATOM      5  N   UNL     1       1.056   8.488  21.455  0.00  0.00    +0.000 NA
ATOM      6  N   UNL     1       0.631   9.649  20.942  0.00  0.00    +0.000 N 
ATOM      7  C   UNL     1       0.040  10.640  21.810  0.00  0.00    +0.000 C 
ATOM      8  C   UNL     1       0.788   9.752  19.584  0.00  0.00    +0.000 A 
BRANCH   8   9
ATOM      9  O   UNL     1       0.325  10.847  18.969  0.00  0.00    +0.000 OA
BRANCH   9  10
ATOM     10  C   UNL     1      -0.946  10.933  18.450  0.00  0.00    +0.000 A 
ATOM     11  C   UNL     1      -1.889  11.872  18.869  0.00  0.00    +0.000 A 
ATOM     12  C   UNL     1      -3.204  11.790  18.408  0.00  0.00    +0.000 A 
ATOM     13  C   UNL     1      -3.563  10.804  17.490  0.00  0.00    +0.000 A 
ATOM     14  C   UNL     1      -2.607   9.902  17.025  0.00  0.00    +0.000 A 
ATOM     15  C   UNL     1      -1.297   9.966  17.503  0.00  0.00    +0.000 A 
ENDBRANCH   9  10
ENDBRANCH   8   9
ENDBRANCH   1   2
BRANCH   1  16
ATOM     16  C   UNL     1       3.527   7.797  17.913  0.00  0.00    +0.000 C 
BRANCH  16  17
ATOM     17  N   UNL     1       3.999   7.172  16.667  0.00  0.00    +0.000 NA
ATOM     18  H   UNL     1       3.302   7.008  15.941  0.00  0.00    +0.000 HD
BRANCH  17  19
ATOM     19  S   UNL     1       5.008   5.818  16.870  0.00  0.00    +0.000 S 
ATOM     20  O   UNL     1       6.152   6.161  17.681  0.00  0.00    +0.000 OA
ATOM     21  O   UNL     1       5.155   5.215  15.558  0.00  0.00    +0.000 OA
BRANCH  19  25
ATOM     22  C   UNL     1       2.399   3.048  19.369  0.00  0.00    +0.000 A 
ATOM     23  C   UNL     1       3.728   3.294  19.726  0.00  0.00    +0.000 A 
ATOM     24  C   UNL     1       4.514   4.153  18.972  0.00  0.00    +0.000 A 
ATOM     25  C   UNL     1       3.972   4.755  17.836  0.00  0.00    +0.000 A 
ATOM     26  C   UNL     1       2.643   4.522  17.467  0.00  0.00    +0.000 A 
ATOM     27  C   UNL     1       1.859   3.651  18.230  0.00  0.00    +0.000 A 
BRANCH  22  29
ATOM     28  C   UNL     1       1.453   2.645  21.491  0.00  0.00    +0.000 C 
ATOM     29  O   UNL     1       1.741   2.169  20.182  0.00  0.00    +0.000 OA
ENDBRANCH  22  29
ENDBRANCH  19  25
ENDBRANCH  17  19
ENDBRANCH  16  17
ENDBRANCH   1  16
TORSDOF 8
ENDMDL
