MODEL 1
REMARK VINA RESULT:      -7.4      0.000      0.000
REMARK  Name = 
REMARK  15 active torsions:
REMARK  status: ('A' for Active; 'I' for Inactive)
REMARK    1  A    between atoms: N_1  and  C_2
REMARK    2  A    between atoms: C_2  and  C_3
REMARK    3  A    between atoms: C_6  and  N_7
REMARK    4  A    between atoms: C_8  and  O_9
REMARK    5  A    between atoms: O_9  and  C_10
REMARK    6  A    between atoms: C_11  and  N_12
REMARK    7  A    between atoms: C_14  and  N_15
REMARK    8  A    between atoms: C_16  and  O_17
REMARK    9  A    between atoms: O_17  and  C_18
REMARK   10  A    between atoms: C_20  and  C_21
REMARK   11  A    between atoms: C_21  and  O_22
REMARK   12  A    between atoms: C_23  and  O_24
REMARK   13  A    between atoms: C_25  and  N_26
REMARK   14  A    between atoms: C_27  and  O_28
REMARK   15  A    between atoms: C_29  and  O_30
REMARK                            x       y       z     vdW  Elec       q    Type
REMARK                         _______ _______ _______ _____ _____    ______ ____
ROOT
ATOM      1  C   UNL     1       2.691   4.202  20.768  0.00  0.00    +0.000 C 
ATOM      2  C   UNL     1       2.237   2.716  20.933  0.00  0.00    +0.000 C 
ATOM      3  C   UNL     1       1.660   2.149  19.629  0.00  0.00    +0.000 C 
ATOM      4  C   UNL     1       2.598   2.282  18.404  0.00  0.00    +0.000 C 
ATOM      5  C   UNL     1       3.148   3.730  18.265  0.00  0.00    +0.000 C 
ATOM      6  C   UNL     1       3.759   4.249  19.606  0.00  0.00    +0.000 C 
ENDROOT
BRANCH   2   7
ATOM      7  N   UNL     1       1.340   2.465  22.064  0.00  0.00    +0.000 NA
ATOM      8  H   UNL     1       1.288   3.263  22.690  0.00  0.00    +0.000 HD
ATOM      9  H   UNL     1       1.621   1.645  22.597  0.00  0.00    +0.000 HD
ENDBRANCH   2   7
BRANCH   4  10
ATOM     10  N   UNL     1       3.647   1.251  18.488  0.00  0.00    +0.000 NA
ATOM     11  H   UNL     1       3.303   0.488  19.082  0.00  0.00    +0.000 HD
ATOM     12  H   UNL     1       4.413   1.635  19.056  0.00  0.00    +0.000 HD
ENDBRANCH   4  10
BRANCH   6  13
ATOM     13  O   UNL     1       4.895   3.452  19.981  0.00  0.00    +0.000 OA
ATOM     14  H   UNL     1       5.288   3.828  20.788  0.00  0.00    +0.000 HD
ENDBRANCH   6  13
BRANCH   1  15
ATOM     15  O   UNL     1       1.654   5.148  20.452  0.00  0.00    +0.000 OA
BRANCH  15  20
ATOM     16  C   UNL     1       0.653   8.611  21.035  0.00  0.00    +0.000 C 
ATOM     17  C   UNL     1       1.062   9.312  19.738  0.00  0.00    +0.000 C 
ATOM     18  C   UNL     1       2.325   8.724  19.121  0.00  0.00    +0.000 C 
ATOM     19  C   UNL     1       2.319   7.185  19.091  0.00  0.00    +0.000 C 
ATOM     20  C   UNL     1       1.887   6.581  20.471  0.00  0.00    +0.000 C 
ATOM     21  O   UNL     1       0.652   7.186  20.898  0.00  0.00    +0.000 OA
BRANCH  19  22
ATOM     22  N   UNL     1       1.443   6.760  17.973  0.00  0.00    +0.000 NA
ATOM     23  H   UNL     1       0.614   7.357  17.992  0.00  0.00    +0.000 HD
ATOM     24  H   UNL     1       1.079   5.834  18.184  0.00  0.00    +0.000 HD
ENDBRANCH  19  22
BRANCH  16  25
ATOM     25  C   UNL     1       1.365   9.138  22.311  0.00  0.00    +0.000 C 
BRANCH  25  26
ATOM     26  N   UNL     1       0.503   9.657  23.379  0.00  0.00    +0.000 NA
ATOM     27  H   UNL     1      -0.339   9.078  23.419  0.00  0.00    +0.000 HD
ATOM     28  H   UNL     1       0.162  10.582  23.108  0.00  0.00    +0.000 HD
ENDBRANCH  25  26
ENDBRANCH  16  25
ENDBRANCH  15  20
ENDBRANCH   1  15
BRANCH   5  29
ATOM     29  O   UNL     1       3.883   3.963  17.031  0.00  0.00    +0.000 OA
BRANCH  29  30
ATOM     30  C   UNL     1       4.550   5.205  16.792  0.00  0.00    +0.000 C 
ATOM     31  O   UNL     1       5.591   5.467  17.749  0.00  0.00    +0.000 OA
ATOM     32  C   UNL     1       6.824   4.746  17.590  0.00  0.00    +0.000 C 
ATOM     33  C   UNL     1       7.421   4.884  16.178  0.00  0.00    +0.000 C 
ATOM     34  C   UNL     1       6.370   4.408  15.160  0.00  0.00    +0.000 C 
ATOM     35  C   UNL     1       5.085   5.252  15.325  0.00  0.00    +0.000 C 
BRANCH  34  36
ATOM     36  N   UNL     1       6.937   4.494  13.791  0.00  0.00    +0.000 NA
ATOM     37  H   UNL     1       7.561   5.307  13.773  0.00  0.00    +0.000 HD
ATOM     38  H   UNL     1       6.192   4.725  13.135  0.00  0.00    +0.000 HD
ENDBRANCH  34  36
BRANCH  33  39
ATOM     39  O   UNL     1       7.768   6.260  15.905  0.00  0.00    +0.000 OA
ATOM     40  H   UNL     1       6.945   6.772  16.033  0.00  0.00    +0.000 HD
ENDBRANCH  33  39
BRANCH  35  41
ATOM     41  O   UNL     1       5.345   6.614  14.925  0.00  0.00    +0.000 OA
ATOM     42  H   UNL     1       4.533   6.919  14.459  0.00  0.00    +0.000 HD
ENDBRANCH  35  41
BRANCH  32  43
ATOM     43  C   UNL     1       7.800   5.287  18.651  0.00  0.00    +0.000 C 
BRANCH  43  44
ATOM     44  O   UNL     1       7.206   5.357  19.942  0.00  0.00    +0.000 OA
ATOM     45  H   UNL     1       7.612   6.106  20.414  0.00  0.00    +0.000 HD
ENDBRANCH  43  44
ENDBRANCH  32  43
ENDBRANCH  29  30
ENDBRANCH   5  29
TORSDOF 15
ENDMDL
MODEL 2
REMARK VINA RESULT:      -6.8      2.026      6.674
REMARK  Name = 
REMARK  15 active torsions:
REMARK  status: ('A' for Active; 'I' for Inactive)
REMARK    1  A    between atoms: N_1  and  C_2
REMARK    2  A    between atoms: C_2  and  C_3
REMARK    3  A    between atoms: C_6  and  N_7
REMARK    4  A    between atoms: C_8  and  O_9
REMARK    5  A    between atoms: O_9  and  C_10
REMARK    6  A    between atoms: C_11  and  N_12
REMARK    7  A    between atoms: C_14  and  N_15
REMARK    8  A    between atoms: C_16  and  O_17
REMARK    9  A    between atoms: O_17  and  C_18
REMARK   10  A    between atoms: C_20  and  C_21
REMARK   11  A    between atoms: C_21  and  O_22
REMARK   12  A    between atoms: C_23  and  O_24
REMARK   13  A    between atoms: C_25  and  N_26
REMARK   14  A    between atoms: C_27  and  O_28
REMARK   15  A    between atoms: C_29  and  O_30
REMARK                            x       y       z     vdW  Elec       q    Type
REMARK                         _______ _______ _______ _____ _____    ______ ____
ROOT
ATOM      1  C   UNL     1       2.410   3.347  17.967  0.00  0.00    +0.000 C 
ATOM      2  C   UNL     1       3.162   2.461  19.010  0.00  0.00    +0.000 C 
ATOM      3  C   UNL     1       3.851   3.310  20.087  0.00  0.00    +0.000 C 
ATOM      4  C   UNL     1       2.912   4.302  20.817  0.00  0.00    +0.000 C 
ATOM      5  C   UNL     1       2.074   5.136  19.807  0.00  0.00    +0.000 C 
ATOM      6  C   UNL     1       1.361   4.226  18.755  0.00  0.00    +0.000 C 
ENDROOT
BRANCH   2   7
ATOM      7  N   UNL     1       4.086   1.479  18.437  0.00  0.00    +0.000 NA
ATOM      8  H   UNL     1       3.605   0.635  18.140  0.00  0.00    +0.000 HD
ATOM      9  H   UNL     1       4.825   1.225  19.088  0.00  0.00    +0.000 HD
ENDBRANCH   2   7
BRANCH   4  10
ATOM     10  N   UNL     1       2.100   3.561  21.799  0.00  0.00    +0.000 NA
ATOM     11  H   UNL     1       2.632   2.738  22.102  0.00  0.00    +0.000 HD
ATOM     12  H   UNL     1       1.316   3.134  21.291  0.00  0.00    +0.000 HD
ENDBRANCH   4  10
BRANCH   6  13
ATOM     13  O   UNL     1       0.414   3.359  19.402  0.00  0.00    +0.000 OA
ATOM     14  H   UNL     1      -0.013   2.804  18.725  0.00  0.00    +0.000 HD
ENDBRANCH   6  13
BRANCH   1  15
ATOM     15  O   UNL     1       3.229   4.234  17.184  0.00  0.00    +0.000 OA
BRANCH  15  20
ATOM     16  C   UNL     1       6.273   6.036  18.089  0.00  0.00    +0.000 C 
ATOM     17  C   UNL     1       7.213   5.736  16.919  0.00  0.00    +0.000 C 
ATOM     18  C   UNL     1       7.008   4.342  16.340  0.00  0.00    +0.000 C 
ATOM     19  C   UNL     1       5.525   3.990  16.129  0.00  0.00    +0.000 C 
ATOM     20  C   UNL     1       4.662   4.339  17.389  0.00  0.00    +0.000 C 
ATOM     21  O   UNL     1       4.915   5.701  17.786  0.00  0.00    +0.000 OA
BRANCH  19  22
ATOM     22  N   UNL     1       5.067   4.687  14.903  0.00  0.00    +0.000 NA
ATOM     23  H   UNL     1       4.065   4.860  15.007  0.00  0.00    +0.000 HD
ATOM     24  H   UNL     1       5.120   4.035  14.124  0.00  0.00    +0.000 HD
ENDBRANCH  19  22
BRANCH  16  25
ATOM     25  C   UNL     1       6.772   5.531  19.470  0.00  0.00    +0.000 C 
BRANCH  25  26
ATOM     26  N   UNL     1       8.222   5.542  19.691  0.00  0.00    +0.000 NA
ATOM     27  H   UNL     1       8.583   4.608  19.487  0.00  0.00    +0.000 HD
ATOM     28  H   UNL     1       8.403   5.671  20.689  0.00  0.00    +0.000 HD
ENDBRANCH  25  26
ENDBRANCH  16  25
ENDBRANCH  15  20
ENDBRANCH   1  15
BRANCH   5  29
ATOM     29  O   UNL     1       1.312   6.211  20.424  0.00  0.00    +0.000 OA
BRANCH  29  30
ATOM     30  C   UNL     1       1.901   7.492  20.661  0.00  0.00    +0.000 C 
ATOM     31  O   UNL     1       1.799   8.367  19.524  0.00  0.00    +0.000 OA
ATOM     32  C   UNL     1       0.520   8.974  19.276  0.00  0.00    +0.000 C 
ATOM     33  C   UNL     1      -0.041   9.712  20.505  0.00  0.00    +0.000 C 
ATOM     34  C   UNL     1      -0.121   8.715  21.674  0.00  0.00    +0.000 C 
ATOM     35  C   UNL     1       1.287   8.135  21.945  0.00  0.00    +0.000 C 
BRANCH  34  36
ATOM     36  N   UNL     1      -0.697   9.394  22.861  0.00  0.00    +0.000 NA
ATOM     37  H   UNL     1       0.075   9.865  23.343  0.00  0.00    +0.000 HD
ATOM     38  H   UNL     1      -1.025   8.691  23.522  0.00  0.00    +0.000 HD
ENDBRANCH  34  36
BRANCH  33  39
ATOM     39  O   UNL     1       0.819  10.815  20.871  0.00  0.00    +0.000 OA
ATOM     40  H   UNL     1       0.497  11.584  20.360  0.00  0.00    +0.000 HD
ENDBRANCH  33  39
BRANCH  35  41
ATOM     41  O   UNL     1       2.149   9.176  22.452  0.00  0.00    +0.000 OA
ATOM     42  H   UNL     1       2.133   9.893  21.778  0.00  0.00    +0.000 HD
ENDBRANCH  35  41
BRANCH  32  43
ATOM     43  C   UNL     1       0.705   9.942  18.094  0.00  0.00    +0.000 C 
BRANCH  43  44
ATOM     44  O   UNL     1       1.971   9.785  17.463  0.00  0.00    +0.000 OA
ATOM     45  H   UNL     1       2.063  10.497  16.805  0.00  0.00    +0.000 HD
ENDBRANCH  43  44
ENDBRANCH  32  43
ENDBRANCH  29  30
ENDBRANCH   5  29
TORSDOF 15
ENDMDL
MODEL 3
REMARK VINA RESULT:      -6.7      1.933      7.228
REMARK  Name = 
REMARK  15 active torsions:
REMARK  status: ('A' for Active; 'I' for Inactive)
REMARK    1  A    between atoms: N_1  and  C_2
REMARK    2  A    between atoms: C_2  and  C_3
REMARK    3  A    between atoms: C_6  and  N_7
REMARK    4  A    between atoms: C_8  and  O_9
REMARK    5  A    between atoms: O_9  and  C_10
REMARK    6  A    between atoms: C_11  and  N_12
REMARK    7  A    between atoms: C_14  and  N_15
REMARK    8  A    between atoms: C_16  and  O_17
REMARK    9  A    between atoms: O_17  and  C_18
REMARK   10  A    between atoms: C_20  and  C_21
REMARK   11  A    between atoms: C_21  and  O_22
REMARK   12  A    between atoms: C_23  and  O_24
REMARK   13  A    between atoms: C_25  and  N_26
REMARK   14  A    between atoms: C_27  and  O_28
REMARK   15  A    between atoms: C_29  and  O_30
REMARK                            x       y       z     vdW  Elec       q    Type
REMARK                         _______ _______ _______ _____ _____    ______ ____
ROOT
ATOM      1  C   UNL     1       3.281   3.695  18.127  0.00  0.00    +0.000 C 
ATOM      2  C   UNL     1       3.141   2.462  19.075  0.00  0.00    +0.000 C 
ATOM      3  C   UNL     1       3.157   2.875  20.553  0.00  0.00    +0.000 C 
ATOM      4  C   UNL     1       2.107   3.950  20.927  0.00  0.00    +0.000 C 
ATOM      5  C   UNL     1       2.153   5.153  19.943  0.00  0.00    +0.000 C 
ATOM      6  C   UNL     1       2.096   4.685  18.453  0.00  0.00    +0.000 C 
ENDROOT
BRANCH   2   7
ATOM      7  N   UNL     1       4.087   1.373  18.817  0.00  0.00    +0.000 NA
ATOM      8  H   UNL     1       4.987   1.720  18.501  0.00  0.00    +0.000 HD
ATOM      9  H   UNL     1       3.729   0.712  18.131  0.00  0.00    +0.000 HD
ENDBRANCH   2   7
BRANCH   4  10
ATOM     10  N   UNL     1       0.783   3.313  21.031  0.00  0.00    +0.000 NA
ATOM     11  H   UNL     1       0.145   3.968  21.497  0.00  0.00    +0.000 HD
ATOM     12  H   UNL     1       0.857   2.558  21.724  0.00  0.00    +0.000 HD
ENDBRANCH   4  10
BRANCH   6  13
ATOM     13  O   UNL     1       0.846   4.027  18.182  0.00  0.00    +0.000 OA
ATOM     14  H   UNL     1       0.813   3.798  17.236  0.00  0.00    +0.000 HD
ENDBRANCH   6  13
BRANCH   1  15
ATOM     15  O   UNL     1       4.512   4.433  18.228  0.00  0.00    +0.000 OA
BRANCH  15  20
ATOM     16  C   UNL     1       6.598   4.003  15.263  0.00  0.00    +0.000 C 
ATOM     17  C   UNL     1       7.673   5.078  15.436  0.00  0.00    +0.000 C 
ATOM     18  C   UNL     1       7.146   6.335  16.118  0.00  0.00    +0.000 C 
ATOM     19  C   UNL     1       6.280   6.031  17.353  0.00  0.00    +0.000 C 
ATOM     20  C   UNL     1       5.217   4.919  17.056  0.00  0.00    +0.000 C 
ATOM     21  O   UNL     1       5.867   3.774  16.472  0.00  0.00    +0.000 OA
BRANCH  19  22
ATOM     22  N   UNL     1       7.192   5.678  18.466  0.00  0.00    +0.000 NA
ATOM     23  H   UNL     1       8.137   5.619  18.080  0.00  0.00    +0.000 HD
ATOM     24  H   UNL     1       6.990   4.724  18.757  0.00  0.00    +0.000 HD
ENDBRANCH  19  22
BRANCH  16  25
ATOM     25  C   UNL     1       5.717   4.164  13.994  0.00  0.00    +0.000 C 
BRANCH  25  26
ATOM     26  N   UNL     1       6.059   3.320  12.843  0.00  0.00    +0.000 NA
ATOM     27  H   UNL     1       7.061   3.415  12.665  0.00  0.00    +0.000 HD
ATOM     28  H   UNL     1       5.615   3.706  12.007  0.00  0.00    +0.000 HD
ENDBRANCH  25  26
ENDBRANCH  16  25
ENDBRANCH  15  20
ENDBRANCH   1  15
BRANCH   5  29
ATOM     29  O   UNL     1       1.322   6.277  20.351  0.00  0.00    +0.000 OA
BRANCH  29  30
ATOM     30  C   UNL     1       1.897   7.553  20.641  0.00  0.00    +0.000 C 
ATOM     31  O   UNL     1       1.797   8.469  19.538  0.00  0.00    +0.000 OA
ATOM     32  C   UNL     1       0.514   9.073  19.301  0.00  0.00    +0.000 C 
ATOM     33  C   UNL     1      -0.065   9.759  20.551  0.00  0.00    +0.000 C 
ATOM     34  C   UNL     1      -0.147   8.717  21.681  0.00  0.00    +0.000 C 
ATOM     35  C   UNL     1       1.264   8.141  21.943  0.00  0.00    +0.000 C 
BRANCH  34  36
ATOM     36  N   UNL     1      -0.740   9.346  22.887  0.00  0.00    +0.000 NA
ATOM     37  H   UNL     1      -1.474   8.715  23.226  0.00  0.00    +0.000 HD
ATOM     38  H   UNL     1      -1.234  10.194  22.612  0.00  0.00    +0.000 HD
ENDBRANCH  34  36
BRANCH  33  39
ATOM     39  O   UNL     1       0.781  10.855  20.968  0.00  0.00    +0.000 OA
ATOM     40  H   UNL     1       0.368  11.218  21.775  0.00  0.00    +0.000 HD
ENDBRANCH  33  39
BRANCH  35  41
ATOM     41  O   UNL     1       2.112   9.169  22.498  0.00  0.00    +0.000 OA
ATOM     42  H   UNL     1       1.746   9.369  23.390  0.00  0.00    +0.000 HD
ENDBRANCH  35  41
BRANCH  32  43
ATOM     43  C   UNL     1       0.701  10.088  18.158  0.00  0.00    +0.000 C 
BRANCH  43  44
ATOM     44  O   UNL     1       1.891   9.848  17.415  0.00  0.00    +0.000 OA
ATOM     45  H   UNL     1       2.427   9.206  17.914  0.00  0.00    +0.000 HD
ENDBRANCH  43  44
ENDBRANCH  32  43
ENDBRANCH  29  30
ENDBRANCH   5  29
TORSDOF 15
ENDMDL
MODEL 4
REMARK VINA RESULT:      -6.7      2.221      6.881
REMARK  Name = 
REMARK  15 active torsions:
REMARK  status: ('A' for Active; 'I' for Inactive)
REMARK    1  A    between atoms: N_1  and  C_2
REMARK    2  A    between atoms: C_2  and  C_3
REMARK    3  A    between atoms: C_6  and  N_7
REMARK    4  A    between atoms: C_8  and  O_9
REMARK    5  A    between atoms: O_9  and  C_10
REMARK    6  A    between atoms: C_11  and  N_12
REMARK    7  A    between atoms: C_14  and  N_15
REMARK    8  A    between atoms: C_16  and  O_17
REMARK    9  A    between atoms: O_17  and  C_18
REMARK   10  A    between atoms: C_20  and  C_21
REMARK   11  A    between atoms: C_21  and  O_22
REMARK   12  A    between atoms: C_23  and  O_24
REMARK   13  A    between atoms: C_25  and  N_26
REMARK   14  A    between atoms: C_27  and  O_28
REMARK   15  A    between atoms: C_29  and  O_30
REMARK                            x       y       z     vdW  Elec       q    Type
REMARK                         _______ _______ _______ _____ _____    ______ ____
ROOT
ATOM      1  C   UNL     1       3.701   4.170  18.619  0.00  0.00    +0.000 C 
ATOM      2  C   UNL     1       3.156   2.830  19.209  0.00  0.00    +0.000 C 
ATOM      3  C   UNL     1       2.696   2.992  20.664  0.00  0.00    +0.000 C 
ATOM      4  C   UNL     1       1.662   4.125  20.884  0.00  0.00    +0.000 C 
ATOM      5  C   UNL     1       2.128   5.453  20.225  0.00  0.00    +0.000 C 
ATOM      6  C   UNL     1       2.550   5.245  18.735  0.00  0.00    +0.000 C 
ENDROOT
BRANCH   2   7
ATOM      7  N   UNL     1       4.051   1.679  19.060  0.00  0.00    +0.000 NA
ATOM      8  H   UNL     1       4.008   1.285  18.125  0.00  0.00    +0.000 HD
ATOM      9  H   UNL     1       3.846   0.947  19.736  0.00  0.00    +0.000 HD
ENDBRANCH   2   7
BRANCH   4  10
ATOM     10  N   UNL     1       0.340   3.663  20.428  0.00  0.00    +0.000 NA
ATOM     11  H   UNL     1       0.446   2.724  20.028  0.00  0.00    +0.000 HD
ATOM     12  H   UNL     1       0.087   4.220  19.602  0.00  0.00    +0.000 HD
ENDBRANCH   4  10
BRANCH   6  13
ATOM     13  O   UNL     1       1.424   4.813  17.952  0.00  0.00    +0.000 OA
ATOM     14  H   UNL     1       0.811   5.563  17.846  0.00  0.00    +0.000 HD
ENDBRANCH   6  13
BRANCH   1  15
ATOM     15  O   UNL     1       4.873   4.709  19.255  0.00  0.00    +0.000 OA
BRANCH  15  20
ATOM     16  C   UNL     1       6.709   6.981  17.065  0.00  0.00    +0.000 C 
ATOM     17  C   UNL     1       7.251   6.051  15.977  0.00  0.00    +0.000 C 
ATOM     18  C   UNL     1       7.602   4.666  16.506  0.00  0.00    +0.000 C 
ATOM     19  C   UNL     1       6.515   4.080  17.425  0.00  0.00    +0.000 C 
ATOM     20  C   UNL     1       6.040   5.119  18.496  0.00  0.00    +0.000 C 
ATOM     21  O   UNL     1       5.687   6.355  17.847  0.00  0.00    +0.000 OA
BRANCH  19  22
ATOM     22  N   UNL     1       5.412   3.592  16.563  0.00  0.00    +0.000 NA
ATOM     23  H   UNL     1       5.615   3.894  15.608  0.00  0.00    +0.000 HD
ATOM     24  H   UNL     1       4.566   4.103  16.804  0.00  0.00    +0.000 HD
ENDBRANCH  19  22
BRANCH  16  25
ATOM     25  C   UNL     1       7.799   7.716  17.893  0.00  0.00    +0.000 C 
BRANCH  25  26
ATOM     26  N   UNL     1       7.844   9.178  17.771  0.00  0.00    +0.000 NA
ATOM     27  H   UNL     1       7.192   9.575  18.450  0.00  0.00    +0.000 HD
ATOM     28  H   UNL     1       7.458   9.446  16.862  0.00  0.00    +0.000 HD
ENDBRANCH  25  26
ENDBRANCH  16  25
ENDBRANCH  15  20
ENDBRANCH   1  15
BRANCH   5  29
ATOM     29  O   UNL     1       1.292   6.598  20.556  0.00  0.00    +0.000 OA
BRANCH  29  30
ATOM     30  C   UNL     1       1.870   7.857  20.908  0.00  0.00    +0.000 C 
ATOM     31  O   UNL     1       1.812   8.812  19.834  0.00  0.00    +0.000 OA
ATOM     32  C   UNL     1       0.542   9.437  19.580  0.00  0.00    +0.000 C 
ATOM     33  C   UNL     1      -0.067  10.086  20.836  0.00  0.00    +0.000 C 
ATOM     34  C   UNL     1      -0.193   9.007  21.926  0.00  0.00    +0.000 C 
ATOM     35  C   UNL     1       1.204   8.407  22.210  0.00  0.00    +0.000 C 
BRANCH  34  36
ATOM     36  N   UNL     1      -0.817   9.599  23.135  0.00  0.00    +0.000 NA
ATOM     37  H   UNL     1      -0.794   8.883  23.868  0.00  0.00    +0.000 HD
ATOM     38  H   UNL     1      -1.809   9.756  22.956  0.00  0.00    +0.000 HD
ENDBRANCH  34  36
BRANCH  33  39
ATOM     39  O   UNL     1       0.776  11.158  21.315  0.00  0.00    +0.000 OA
ATOM     40  H   UNL     1       1.519  10.724  21.778  0.00  0.00    +0.000 HD
ENDBRANCH  33  39
BRANCH  35  41
ATOM     41  O   UNL     1       2.044   9.406  22.825  0.00  0.00    +0.000 OA
ATOM     42  H   UNL     1       2.908   8.965  22.996  0.00  0.00    +0.000 HD
ENDBRANCH  35  41
BRANCH  32  43
ATOM     43  C   UNL     1       0.773  10.488  18.480  0.00  0.00    +0.000 C 
BRANCH  43  44
ATOM     44  O   UNL     1       1.600   9.997  17.431  0.00  0.00    +0.000 OA
ATOM     45  H   UNL     1       2.206  10.714  17.172  0.00  0.00    +0.000 HD
ENDBRANCH  43  44
ENDBRANCH  32  43
ENDBRANCH  29  30
ENDBRANCH   5  29
TORSDOF 15
ENDMDL
MODEL 5
REMARK VINA RESULT:      -6.6      2.057      6.510
REMARK  Name = 
REMARK  15 active torsions:
REMARK  status: ('A' for Active; 'I' for Inactive)
REMARK    1  A    between atoms: N_1  and  C_2
REMARK    2  A    between atoms: C_2  and  C_3
REMARK    3  A    between atoms: C_6  and  N_7
REMARK    4  A    between atoms: C_8  and  O_9
REMARK    5  A    between atoms: O_9  and  C_10
REMARK    6  A    between atoms: C_11  and  N_12
REMARK    7  A    between atoms: C_14  and  N_15
REMARK    8  A    between atoms: C_16  and  O_17
REMARK    9  A    between atoms: O_17  and  C_18
REMARK   10  A    between atoms: C_20  and  C_21
REMARK   11  A    between atoms: C_21  and  O_22
REMARK   12  A    between atoms: C_23  and  O_24
REMARK   13  A    between atoms: C_25  and  N_26
REMARK   14  A    between atoms: C_27  and  O_28
REMARK   15  A    between atoms: C_29  and  O_30
REMARK                            x       y       z     vdW  Elec       q    Type
REMARK                         _______ _______ _______ _____ _____    ______ ____
ROOT
ATOM      1  C   UNL     1       3.838   3.703  18.725  0.00  0.00    +0.000 C 
ATOM      2  C   UNL     1       3.297   2.411  19.417  0.00  0.00    +0.000 C 
ATOM      3  C   UNL     1       2.807   2.691  20.844  0.00  0.00    +0.000 C 
ATOM      4  C   UNL     1       1.757   3.825  20.948  0.00  0.00    +0.000 C 
ATOM      5  C   UNL     1       2.221   5.099  20.186  0.00  0.00    +0.000 C 
ATOM      6  C   UNL     1       2.674   4.769  18.727  0.00  0.00    +0.000 C 
ENDROOT
BRANCH   2   7
ATOM      7  N   UNL     1       4.207   1.263  19.383  0.00  0.00    +0.000 NA
ATOM      8  H   UNL     1       4.348   0.865  20.307  0.00  0.00    +0.000 HD
ATOM      9  H   UNL     1       5.113   1.507  18.988  0.00  0.00    +0.000 HD
ENDBRANCH   2   7
BRANCH   4  10
ATOM     10  N   UNL     1       0.448   3.310  20.508  0.00  0.00    +0.000 NA
ATOM     11  H   UNL     1      -0.005   2.855  21.308  0.00  0.00    +0.000 HD
ATOM     12  H   UNL     1       0.624   2.514  19.882  0.00  0.00    +0.000 HD
ENDBRANCH   4  10
BRANCH   6  13
ATOM     13  O   UNL     1       1.568   4.258  17.963  0.00  0.00    +0.000 OA
ATOM     14  H   UNL     1       1.674   3.294  17.868  0.00  0.00    +0.000 HD
ENDBRANCH   6  13
BRANCH   1  15
ATOM     15  O   UNL     1       4.992   4.309  19.335  0.00  0.00    +0.000 OA
BRANCH  15  20
ATOM     16  C   UNL     1       5.625   6.788  16.730  0.00  0.00    +0.000 C 
ATOM     17  C   UNL     1       7.144   6.968  16.786  0.00  0.00    +0.000 C 
ATOM     18  C   UNL     1       7.703   6.831  18.196  0.00  0.00    +0.000 C 
ATOM     19  C   UNL     1       7.133   5.619  18.954  0.00  0.00    +0.000 C 
ATOM     20  C   UNL     1       5.573   5.538  18.828  0.00  0.00    +0.000 C 
ATOM     21  O   UNL     1       5.197   5.621  17.440  0.00  0.00    +0.000 OA
BRANCH  19  22
ATOM     22  N   UNL     1       7.818   4.407  18.446  0.00  0.00    +0.000 NA
ATOM     23  H   UNL     1       8.022   3.811  19.251  0.00  0.00    +0.000 HD
ATOM     24  H   UNL     1       8.739   4.677  18.106  0.00  0.00    +0.000 HD
ENDBRANCH  19  22
BRANCH  16  25
ATOM     25  C   UNL     1       4.807   8.071  17.040  0.00  0.00    +0.000 C 
BRANCH  25  26
ATOM     26  N   UNL     1       3.351   7.916  17.139  0.00  0.00    +0.000 NA
ATOM     27  H   UNL     1       3.156   7.136  17.770  0.00  0.00    +0.000 HD
ATOM     28  H   UNL     1       2.989   7.607  16.234  0.00  0.00    +0.000 HD
ENDBRANCH  25  26
ENDBRANCH  16  25
ENDBRANCH  15  20
ENDBRANCH   1  15
BRANCH   5  29
ATOM     29  O   UNL     1       1.366   6.257  20.402  0.00  0.00    +0.000 OA
BRANCH  29  30
ATOM     30  C   UNL     1       1.924   7.552  20.640  0.00  0.00    +0.000 C 
ATOM     31  O   UNL     1       1.773   8.434  19.514  0.00  0.00    +0.000 OA
ATOM     32  C   UNL     1       0.472   9.006  19.298  0.00  0.00    +0.000 C 
ATOM     33  C   UNL     1      -0.084   9.716  20.546  0.00  0.00    +0.000 C 
ATOM     34  C   UNL     1      -0.112   8.706  21.706  0.00  0.00    +0.000 C 
ATOM     35  C   UNL     1       1.317   8.164  21.943  0.00  0.00    +0.000 C 
BRANCH  34  36
ATOM     36  N   UNL     1      -0.683   9.357  22.911  0.00  0.00    +0.000 NA
ATOM     37  H   UNL     1      -1.540   8.848  23.152  0.00  0.00    +0.000 HD
ATOM     38  H   UNL     1      -0.999  10.295  22.665  0.00  0.00    +0.000 HD
ENDBRANCH  34  36
BRANCH  33  39
ATOM     39  O   UNL     1       0.751  10.840  20.906  0.00  0.00    +0.000 OA
ATOM     40  H   UNL     1       1.535  10.786  20.323  0.00  0.00    +0.000 HD
ENDBRANCH  33  39
BRANCH  35  41
ATOM     41  O   UNL     1       2.160   9.224  22.443  0.00  0.00    +0.000 OA
ATOM     42  H   UNL     1       2.619   9.599  21.656  0.00  0.00    +0.000 HD
ENDBRANCH  35  41
BRANCH  32  43
ATOM     43  C   UNL     1       0.605   9.990  18.123  0.00  0.00    +0.000 C 
BRANCH  43  44
ATOM     44  O   UNL     1       1.932  10.485  17.983  0.00  0.00    +0.000 OA
ATOM     45  H   UNL     1       2.320  10.546  18.874  0.00  0.00    +0.000 HD
ENDBRANCH  43  44
ENDBRANCH  32  43
ENDBRANCH  29  30
ENDBRANCH   5  29
TORSDOF 15
ENDMDL
MODEL 6
REMARK VINA RESULT:      -6.6      1.344      2.306
REMARK  Name = 
REMARK  15 active torsions:
REMARK  status: ('A' for Active; 'I' for Inactive)
REMARK    1  A    between atoms: N_1  and  C_2
REMARK    2  A    between atoms: C_2  and  C_3
REMARK    3  A    between atoms: C_6  and  N_7
REMARK    4  A    between atoms: C_8  and  O_9
REMARK    5  A    between atoms: O_9  and  C_10
REMARK    6  A    between atoms: C_11  and  N_12
REMARK    7  A    between atoms: C_14  and  N_15
REMARK    8  A    between atoms: C_16  and  O_17
REMARK    9  A    between atoms: O_17  and  C_18
REMARK   10  A    between atoms: C_20  and  C_21
REMARK   11  A    between atoms: C_21  and  O_22
REMARK   12  A    between atoms: C_23  and  O_24
REMARK   13  A    between atoms: C_25  and  N_26
REMARK   14  A    between atoms: C_27  and  O_28
REMARK   15  A    between atoms: C_29  and  O_30
REMARK                            x       y       z     vdW  Elec       q    Type
REMARK                         _______ _______ _______ _____ _____    ______ ____
ROOT
ATOM      1  C   UNL     1       2.813   4.238  20.660  0.00  0.00    +0.000 C 
ATOM      2  C   UNL     1       2.381   2.753  20.886  0.00  0.00    +0.000 C 
ATOM      3  C   UNL     1       1.747   2.146  19.627  0.00  0.00    +0.000 C 
ATOM      4  C   UNL     1       2.623   2.253  18.355  0.00  0.00    +0.000 C 
ATOM      5  C   UNL     1       3.151   3.701  18.150  0.00  0.00    +0.000 C 
ATOM      6  C   UNL     1       3.822   4.261  19.446  0.00  0.00    +0.000 C 
ENDROOT
BRANCH   2   7
ATOM      7  N   UNL     1       1.544   2.526  22.066  0.00  0.00    +0.000 NA
ATOM      8  H   UNL     1       0.621   2.936  21.960  0.00  0.00    +0.000 HD
ATOM      9  H   UNL     1       1.971   2.892  22.913  0.00  0.00    +0.000 HD
ENDBRANCH   2   7
BRANCH   4  10
ATOM     10  N   UNL     1       3.684   1.233  18.415  0.00  0.00    +0.000 NA
ATOM     11  H   UNL     1       4.278   1.433  19.227  0.00  0.00    +0.000 HD
ATOM     12  H   UNL     1       4.326   1.409  17.632  0.00  0.00    +0.000 HD
ENDBRANCH   4  10
BRANCH   6  13
ATOM     13  O   UNL     1       4.983   3.484  19.785  0.00  0.00    +0.000 OA
ATOM     14  H   UNL     1       4.708   2.561  19.933  0.00  0.00    +0.000 HD
ENDBRANCH   6  13
BRANCH   1  15
ATOM     15  O   UNL     1       1.753   5.166  20.369  0.00  0.00    +0.000 OA
BRANCH  15  20
ATOM     16  C   UNL     1       0.706   8.611  20.978  0.00  0.00    +0.000 C 
ATOM     17  C   UNL     1       1.076   9.321  19.673  0.00  0.00    +0.000 C 
ATOM     18  C   UNL     1       2.336   8.754  19.030  0.00  0.00    +0.000 C 
ATOM     19  C   UNL     1       2.355   7.215  18.998  0.00  0.00    +0.000 C 
ATOM     20  C   UNL     1       1.962   6.602  20.385  0.00  0.00    +0.000 C 
ATOM     21  O   UNL     1       0.726   7.187  20.839  0.00  0.00    +0.000 OA
BRANCH  19  22
ATOM     22  N   UNL     1       1.463   6.777  17.898  0.00  0.00    +0.000 NA
ATOM     23  H   UNL     1       1.652   7.380  17.094  0.00  0.00    +0.000 HD
ATOM     24  H   UNL     1       0.505   7.005  18.151  0.00  0.00    +0.000 HD
ENDBRANCH  19  22
BRANCH  16  25
ATOM     25  C   UNL     1       1.436   9.149  22.239  0.00  0.00    +0.000 C 
BRANCH  25  26
ATOM     26  N   UNL     1       0.587   9.631  23.335  0.00  0.00    +0.000 NA
ATOM     27  H   UNL     1       0.715   9.007  24.135  0.00  0.00    +0.000 HD
ATOM     28  H   UNL     1      -0.393   9.509  23.073  0.00  0.00    +0.000 HD
ENDBRANCH  25  26
ENDBRANCH  16  25
ENDBRANCH  15  20
ENDBRANCH   1  15
BRANCH   5  29
ATOM     29  O   UNL     1       3.824   3.906  16.876  0.00  0.00    +0.000 OA
BRANCH  29  30
ATOM     30  C   UNL     1       5.208   3.588  16.712  0.00  0.00    +0.000 C 
ATOM     31  O   UNL     1       5.533   3.213  15.362  0.00  0.00    +0.000 OA
ATOM     32  C   UNL     1       5.635   4.271  14.394  0.00  0.00    +0.000 C 
ATOM     33  C   UNL     1       6.599   5.390  14.829  0.00  0.00    +0.000 C 
ATOM     34  C   UNL     1       6.128   5.932  16.190  0.00  0.00    +0.000 C 
ATOM     35  C   UNL     1       6.092   4.774  17.214  0.00  0.00    +0.000 C 
BRANCH  34  36
ATOM     36  N   UNL     1       7.019   7.041  16.612  0.00  0.00    +0.000 NA
ATOM     37  H   UNL     1       6.869   7.183  17.616  0.00  0.00    +0.000 HD
ATOM     38  H   UNL     1       6.702   7.908  16.178  0.00  0.00    +0.000 HD
ENDBRANCH  34  36
BRANCH  33  39
ATOM     39  O   UNL     1       7.946   4.881  14.954  0.00  0.00    +0.000 OA
ATOM     40  H   UNL     1       8.256   5.164  15.837  0.00  0.00    +0.000 HD
ENDBRANCH  33  39
BRANCH  35  41
ATOM     41  O   UNL     1       7.437   4.323  17.481  0.00  0.00    +0.000 OA
ATOM     42  H   UNL     1       7.891   4.292  16.608  0.00  0.00    +0.000 HD
ENDBRANCH  35  41
BRANCH  32  43
ATOM     43  C   UNL     1       6.104   3.628  13.076  0.00  0.00    +0.000 C 
BRANCH  43  44
ATOM     44  O   UNL     1       7.084   4.417  12.411  0.00  0.00    +0.000 OA
ATOM     45  H   UNL     1       7.453   5.040  13.062  0.00  0.00    +0.000 HD
ENDBRANCH  43  44
ENDBRANCH  32  43
ENDBRANCH  29  30
ENDBRANCH   5  29
TORSDOF 15
ENDMDL
MODEL 7
REMARK VINA RESULT:      -6.2      2.199      6.677
REMARK  Name = 
REMARK  15 active torsions:
REMARK  status: ('A' for Active; 'I' for Inactive)
REMARK    1  A    between atoms: N_1  and  C_2
REMARK    2  A    between atoms: C_2  and  C_3
REMARK    3  A    between atoms: C_6  and  N_7
REMARK    4  A    between atoms: C_8  and  O_9
REMARK    5  A    between atoms: O_9  and  C_10
REMARK    6  A    between atoms: C_11  and  N_12
REMARK    7  A    between atoms: C_14  and  N_15
REMARK    8  A    between atoms: C_16  and  O_17
REMARK    9  A    between atoms: O_17  and  C_18
REMARK   10  A    between atoms: C_20  and  C_21
REMARK   11  A    between atoms: C_21  and  O_22
REMARK   12  A    between atoms: C_23  and  O_24
REMARK   13  A    between atoms: C_25  and  N_26
REMARK   14  A    between atoms: C_27  and  O_28
REMARK   15  A    between atoms: C_29  and  O_30
REMARK                            x       y       z     vdW  Elec       q    Type
REMARK                         _______ _______ _______ _____ _____    ______ ____
ROOT
ATOM      1  C   UNL     1       3.368   3.741  18.400  0.00  0.00    +0.000 C 
ATOM      2  C   UNL     1       2.595   2.424  18.726  0.00  0.00    +0.000 C 
ATOM      3  C   UNL     1       1.989   2.453  20.136  0.00  0.00    +0.000 C 
ATOM      4  C   UNL     1       1.085   3.679  20.418  0.00  0.00    +0.000 C 
ATOM      5  C   UNL     1       1.788   5.006  20.014  0.00  0.00    +0.000 C 
ATOM      6  C   UNL     1       2.355   4.941  18.559  0.00  0.00    +0.000 C 
ENDROOT
BRANCH   2   7
ATOM      7  N   UNL     1       3.350   1.190  18.499  0.00  0.00    +0.000 NA
ATOM      8  H   UNL     1       4.294   1.250  18.870  0.00  0.00    +0.000 HD
ATOM      9  H   UNL     1       3.400   0.950  17.511  0.00  0.00    +0.000 HD
ENDBRANCH   2   7
BRANCH   4  10
ATOM     10  N   UNL     1      -0.221   3.473  19.769  0.00  0.00    +0.000 NA
ATOM     11  H   UNL     1      -0.115   3.660  18.765  0.00  0.00    +0.000 HD
ATOM     12  H   UNL     1      -0.837   4.241  20.064  0.00  0.00    +0.000 HD
ENDBRANCH   4  10
BRANCH   6  13
ATOM     13  O   UNL     1       1.285   4.781  17.612  0.00  0.00    +0.000 OA
ATOM     14  H   UNL     1       0.755   4.005  17.869  0.00  0.00    +0.000 HD
ENDBRANCH   6  13
BRANCH   1  15
ATOM     15  O   UNL     1       4.515   4.020  19.224  0.00  0.00    +0.000 OA
BRANCH  15  20
ATOM     16  C   UNL     1       7.340   6.278  18.723  0.00  0.00    +0.000 C 
ATOM     17  C   UNL     1       7.498   6.303  17.201  0.00  0.00    +0.000 C 
ATOM     18  C   UNL     1       7.152   4.969  16.550  0.00  0.00    +0.000 C 
ATOM     19  C   UNL     1       5.848   4.356  17.090  0.00  0.00    +0.000 C 
ATOM     20  C   UNL     1       5.800   4.384  18.656  0.00  0.00    +0.000 C 
ATOM     21  O   UNL     1       6.086   5.716  19.124  0.00  0.00    +0.000 OA
BRANCH  19  22
ATOM     22  N   UNL     1       4.717   5.080  16.463  0.00  0.00    +0.000 NA
ATOM     23  H   UNL     1       4.665   4.780  15.487  0.00  0.00    +0.000 HD
ATOM     24  H   UNL     1       4.962   6.066  16.399  0.00  0.00    +0.000 HD
ENDBRANCH  19  22
BRANCH  16  25
ATOM     25  C   UNL     1       8.572   5.730  19.495  0.00  0.00    +0.000 C 
BRANCH  25  26
ATOM     26  N   UNL     1       8.329   5.230  20.852  0.00  0.00    +0.000 NA
ATOM     27  H   UNL     1       7.319   5.154  20.988  0.00  0.00    +0.000 HD
ATOM     28  H   UNL     1       8.622   5.943  21.525  0.00  0.00    +0.000 HD
ENDBRANCH  25  26
ENDBRANCH  16  25
ENDBRANCH  15  20
ENDBRANCH   1  15
BRANCH   5  29
ATOM     29  O   UNL     1       1.068   6.201  20.426  0.00  0.00    +0.000 OA
BRANCH  29  30
ATOM     30  C   UNL     1       1.760   7.422  20.700  0.00  0.00    +0.000 C 
ATOM     31  O   UNL     1       1.757   8.323  19.579  0.00  0.00    +0.000 OA
ATOM     32  C   UNL     1       0.539   9.042  19.319  0.00  0.00    +0.000 C 
ATOM     33  C   UNL     1       0.018   9.803  20.551  0.00  0.00    +0.000 C 
ATOM     34  C   UNL     1      -0.172   8.795  21.698  0.00  0.00    +0.000 C 
ATOM     35  C   UNL     1       1.175   8.092  21.985  0.00  0.00    +0.000 C 
BRANCH  34  36
ATOM     36  N   UNL     1      -0.713   9.500  22.887  0.00  0.00    +0.000 NA
ATOM     37  H   UNL     1      -0.734   8.822  23.656  0.00  0.00    +0.000 HD
ATOM     38  H   UNL     1      -1.692   9.732  22.720  0.00  0.00    +0.000 HD
ENDBRANCH  34  36
BRANCH  33  39
ATOM     39  O   UNL     1       0.961  10.821  20.956  0.00  0.00    +0.000 OA
ATOM     40  H   UNL     1       1.478  11.038  20.155  0.00  0.00    +0.000 HD
ENDBRANCH  33  39
BRANCH  35  41
ATOM     41  O   UNL     1       2.113   9.045  22.529  0.00  0.00    +0.000 OA
ATOM     42  H   UNL     1       2.567   8.583  23.271  0.00  0.00    +0.000 HD
ENDBRANCH  35  41
BRANCH  32  43
ATOM     43  C   UNL     1       0.832  10.012  18.160  0.00  0.00    +0.000 C 
BRANCH  43  44
ATOM     44  O   UNL     1       1.942   9.594  17.375  0.00  0.00    +0.000 OA
ATOM     45  H   UNL     1       1.917  10.093  16.539  0.00  0.00    +0.000 HD
ENDBRANCH  43  44
ENDBRANCH  32  43
ENDBRANCH  29  30
ENDBRANCH   5  29
TORSDOF 15
ENDMDL
MODEL 8
REMARK VINA RESULT:      -5.8      7.768     11.500
REMARK  Name = 
REMARK  15 active torsions:
REMARK  status: ('A' for Active; 'I' for Inactive)
REMARK    1  A    between atoms: N_1  and  C_2
REMARK    2  A    between atoms: C_2  and  C_3
REMARK    3  A    between atoms: C_6  and  N_7
REMARK    4  A    between atoms: C_8  and  O_9
REMARK    5  A    between atoms: O_9  and  C_10
REMARK    6  A    between atoms: C_11  and  N_12
REMARK    7  A    between atoms: C_14  and  N_15
REMARK    8  A    between atoms: C_16  and  O_17
REMARK    9  A    between atoms: O_17  and  C_18
REMARK   10  A    between atoms: C_20  and  C_21
REMARK   11  A    between atoms: C_21  and  O_22
REMARK   12  A    between atoms: C_23  and  O_24
REMARK   13  A    between atoms: C_25  and  N_26
REMARK   14  A    between atoms: C_27  and  O_28
REMARK   15  A    between atoms: C_29  and  O_30
REMARK                            x       y       z     vdW  Elec       q    Type
REMARK                         _______ _______ _______ _____ _____    ______ ____
ROOT
ATOM      1  C   UNL     1       0.190  11.408  19.144  0.00  0.00    +0.000 C 
ATOM      2  C   UNL     1       1.693  11.729  18.861  0.00  0.00    +0.000 C 
ATOM      3  C   UNL     1       1.986  13.231  18.979  0.00  0.00    +0.000 C 
ATOM      4  C   UNL     1       1.556  13.863  20.326  0.00  0.00    +0.000 C 
ATOM      5  C   UNL     1       0.092  13.484  20.688  0.00  0.00    +0.000 C 
ATOM      6  C   UNL     1      -0.148  11.942  20.590  0.00  0.00    +0.000 C 
ENDROOT
BRANCH   2   7
ATOM      7  N   UNL     1       2.217  11.182  17.608  0.00  0.00    +0.000 NA
ATOM      8  H   UNL     1       3.121  10.738  17.738  0.00  0.00    +0.000 HD
ATOM      9  H   UNL     1       2.301  11.895  16.886  0.00  0.00    +0.000 HD
ENDBRANCH   2   7
BRANCH   4  10
ATOM     10  N   UNL     1       2.540  13.502  21.362  0.00  0.00    +0.000 NA
ATOM     11  H   UNL     1       2.234  13.909  22.253  0.00  0.00    +0.000 HD
ATOM     12  H   UNL     1       3.399  14.031  21.169  0.00  0.00    +0.000 HD
ENDBRANCH   4  10
BRANCH   6  13
ATOM     13  O   UNL     1       0.666  11.247  21.550  0.00  0.00    +0.000 OA
ATOM     14  H   UNL     1       0.085  10.733  22.139  0.00  0.00    +0.000 HD
ENDBRANCH   6  13
BRANCH   1  15
ATOM     15  O   UNL     1      -0.761  11.982  18.229  0.00  0.00    +0.000 OA
BRANCH  15  20
ATOM     16  C   UNL     1      -3.327  11.208  15.750  0.00  0.00    +0.000 C 
ATOM     17  C   UNL     1      -4.611  11.166  16.582  0.00  0.00    +0.000 C 
ATOM     18  C   UNL     1      -4.384  10.631  17.990  0.00  0.00    +0.000 C 
ATOM     19  C   UNL     1      -3.148  11.243  18.674  0.00  0.00    +0.000 C 
ATOM     20  C   UNL     1      -1.898  11.231  17.730  0.00  0.00    +0.000 C 
ATOM     21  O   UNL     1      -2.246  11.819  16.461  0.00  0.00    +0.000 OA
BRANCH  19  22
ATOM     22  N   UNL     1      -3.515  12.604  19.132  0.00  0.00    +0.000 NA
ATOM     23  H   UNL     1      -2.646  13.122  19.275  0.00  0.00    +0.000 HD
ATOM     24  H   UNL     1      -3.911  12.533  20.066  0.00  0.00    +0.000 HD
ENDBRANCH  19  22
BRANCH  16  25
ATOM     25  C   UNL     1      -2.966   9.873  15.044  0.00  0.00    +0.000 C 
BRANCH  25  26
ATOM     26  N   UNL     1      -2.714   9.938  13.600  0.00  0.00    +0.000 NA
ATOM     27  H   UNL     1      -2.702   8.983  13.235  0.00  0.00    +0.000 HD
ATOM     28  H   UNL     1      -1.763  10.281  13.445  0.00  0.00    +0.000 HD
ENDBRANCH  25  26
ENDBRANCH  16  25
ENDBRANCH  15  20
ENDBRANCH   1  15
BRANCH   5  29
ATOM     29  O   UNL     1      -0.431  14.196  21.844  0.00  0.00    +0.000 OA
BRANCH  29  30
ATOM     30  C   UNL     1      -1.010  13.492  22.945  0.00  0.00    +0.000 C 
ATOM     31  O   UNL     1      -0.874  14.201  24.189  0.00  0.00    +0.000 OA
ATOM     32  C   UNL     1      -1.755  15.317  24.406  0.00  0.00    +0.000 C 
ATOM     33  C   UNL     1      -3.239  14.955  24.217  0.00  0.00    +0.000 C 
ATOM     34  C   UNL     1      -3.419  14.378  22.801  0.00  0.00    +0.000 C 
ATOM     35  C   UNL     1      -2.501  13.146  22.634  0.00  0.00    +0.000 C 
BRANCH  34  36
ATOM     36  N   UNL     1      -4.852  14.058  22.580  0.00  0.00    +0.000 NA
ATOM     37  H   UNL     1      -5.072  13.244  23.163  0.00  0.00    +0.000 HD
ATOM     38  H   UNL     1      -4.977  13.733  21.622  0.00  0.00    +0.000 HD
ENDBRANCH  34  36
BRANCH  33  39
ATOM     39  O   UNL     1      -3.651  13.971  25.193  0.00  0.00    +0.000 OA
ATOM     40  H   UNL     1      -2.834  13.697  25.655  0.00  0.00    +0.000 HD
ENDBRANCH  33  39
BRANCH  35  41
ATOM     41  O   UNL     1      -2.962  12.079  23.490  0.00  0.00    +0.000 OA
ATOM     42  H   UNL     1      -2.406  12.124  24.302  0.00  0.00    +0.000 HD
ENDBRANCH  35  41
BRANCH  32  43
ATOM     43  C   UNL     1      -1.494  15.821  25.837  0.00  0.00    +0.000 C 
BRANCH  43  44
ATOM     44  O   UNL     1      -0.134  15.661  26.225  0.00  0.00    +0.000 OA
ATOM     45  H   UNL     1       0.416  16.133  25.574  0.00  0.00    +0.000 HD
ENDBRANCH  43  44
ENDBRANCH  32  43
ENDBRANCH  29  30
ENDBRANCH   5  29
TORSDOF 15
ENDMDL
MODEL 9
REMARK VINA RESULT:      -5.8      2.099      6.144
REMARK  Name = 
REMARK  15 active torsions:
REMARK  status: ('A' for Active; 'I' for Inactive)
REMARK    1  A    between atoms: N_1  and  C_2
REMARK    2  A    between atoms: C_2  and  C_3
REMARK    3  A    between atoms: C_6  and  N_7
REMARK    4  A    between atoms: C_8  and  O_9
REMARK    5  A    between atoms: O_9  and  C_10
REMARK    6  A    between atoms: C_11  and  N_12
REMARK    7  A    between atoms: C_14  and  N_15
REMARK    8  A    between atoms: C_16  and  O_17
REMARK    9  A    between atoms: O_17  and  C_18
REMARK   10  A    between atoms: C_20  and  C_21
REMARK   11  A    between atoms: C_21  and  O_22
REMARK   12  A    between atoms: C_23  and  O_24
REMARK   13  A    between atoms: C_25  and  N_26
REMARK   14  A    between atoms: C_27  and  O_28
REMARK   15  A    between atoms: C_29  and  O_30
REMARK                            x       y       z     vdW  Elec       q    Type
REMARK                         _______ _______ _______ _____ _____    ______ ____
ROOT
ATOM      1  C   UNL     1       5.523   4.057  17.931  0.00  0.00    +0.000 C 
ATOM      2  C   UNL     1       6.204   4.480  16.590  0.00  0.00    +0.000 C 
ATOM      3  C   UNL     1       5.314   5.425  15.772  0.00  0.00    +0.000 C 
ATOM      4  C   UNL     1       4.839   6.682  16.541  0.00  0.00    +0.000 C 
ATOM      5  C   UNL     1       4.242   6.306  17.926  0.00  0.00    +0.000 C 
ATOM      6  C   UNL     1       5.200   5.375  18.738  0.00  0.00    +0.000 C 
ENDROOT
BRANCH   2   7
ATOM      7  N   UNL     1       6.697   3.370  15.770  0.00  0.00    +0.000 NA
ATOM      8  H   UNL     1       5.944   2.905  15.272  0.00  0.00    +0.000 HD
ATOM      9  H   UNL     1       7.200   2.681  16.324  0.00  0.00    +0.000 HD
ENDBRANCH   2   7
BRANCH   4  10
ATOM     10  N   UNL     1       5.948   7.649  16.612  0.00  0.00    +0.000 NA
ATOM     11  H   UNL     1       6.492   7.456  17.460  0.00  0.00    +0.000 HD
ATOM     12  H   UNL     1       5.542   8.569  16.824  0.00  0.00    +0.000 HD
ENDBRANCH   4  10
BRANCH   6  13
ATOM     13  O   UNL     1       6.430   6.058  19.034  0.00  0.00    +0.000 OA
ATOM     14  H   UNL     1       6.266   7.018  19.013  0.00  0.00    +0.000 HD
ENDBRANCH   6  13
BRANCH   1  15
ATOM     15  O   UNL     1       4.303   3.305  17.809  0.00  0.00    +0.000 OA
BRANCH  15  20
ATOM     16  C   UNL     1       2.516   2.755  20.945  0.00  0.00    +0.000 C 
ATOM     17  C   UNL     1       1.108   2.378  20.480  0.00  0.00    +0.000 C 
ATOM     18  C   UNL     1       0.695   3.101  19.204  0.00  0.00    +0.000 C 
ATOM     19  C   UNL     1       1.793   3.094  18.126  0.00  0.00    +0.000 C 
ATOM     20  C   UNL     1       3.187   3.496  18.718  0.00  0.00    +0.000 C 
ATOM     21  O   UNL     1       3.469   2.692  19.879  0.00  0.00    +0.000 OA
BRANCH  19  22
ATOM     22  N   UNL     1       1.797   1.753  17.496  0.00  0.00    +0.000 NA
ATOM     23  H   UNL     1       1.919   1.065  18.242  0.00  0.00    +0.000 HD
ATOM     24  H   UNL     1       2.644   1.660  16.941  0.00  0.00    +0.000 HD
ENDBRANCH  19  22
BRANCH  16  25
ATOM     25  C   UNL     1       2.592   4.045  21.807  0.00  0.00    +0.000 C 
BRANCH  25  26
ATOM     26  N   UNL     1       2.247   5.305  21.139  0.00  0.00    +0.000 NA
ATOM     27  H   UNL     1       1.323   5.596  21.465  0.00  0.00    +0.000 HD
ATOM     28  H   UNL     1       2.118   5.125  20.140  0.00  0.00    +0.000 HD
ENDBRANCH  25  26
ENDBRANCH  16  25
ENDBRANCH  15  20
ENDBRANCH   1  15
BRANCH   5  29
ATOM     29  O   UNL     1       3.610   7.422  18.615  0.00  0.00    +0.000 OA
BRANCH  29  30
ATOM     30  C   UNL     1       2.207   7.669  18.488  0.00  0.00    +0.000 C 
ATOM     31  O   UNL     1       1.533   7.696  19.758  0.00  0.00    +0.000 OA
ATOM     32  C   UNL     1       1.694   8.877  20.561  0.00  0.00    +0.000 C 
ATOM     33  C   UNL     1       1.344  10.170  19.802  0.00  0.00    +0.000 C 
ATOM     34  C   UNL     1       2.219  10.240  18.538  0.00  0.00    +0.000 C 
ATOM     35  C   UNL     1       1.967   8.981  17.676  0.00  0.00    +0.000 C 
BRANCH  34  36
ATOM     36  N   UNL     1       1.928  11.499  17.808  0.00  0.00    +0.000 NA
ATOM     37  H   UNL     1       1.417  11.244  16.958  0.00  0.00    +0.000 HD
ATOM     38  H   UNL     1       2.804  11.901  17.474  0.00  0.00    +0.000 HD
ENDBRANCH  34  36
BRANCH  33  39
ATOM     39  O   UNL     1      -0.051  10.175  19.423  0.00  0.00    +0.000 OA
ATOM     40  H   UNL     1      -0.120   9.575  18.655  0.00  0.00    +0.000 HD
ENDBRANCH  33  39
BRANCH  35  41
ATOM     41  O   UNL     1       0.621   9.013  17.153  0.00  0.00    +0.000 OA
ATOM     42  H   UNL     1       0.325   9.949  17.225  0.00  0.00    +0.000 HD
ENDBRANCH  35  41
BRANCH  32  43
ATOM     43  C   UNL     1       0.789   8.707  21.795  0.00  0.00    +0.000 C 
BRANCH  43  44
ATOM     44  O   UNL     1      -0.488   8.179  21.457  0.00  0.00    +0.000 OA
ATOM     45  H   UNL     1      -0.394   7.692  20.619  0.00  0.00    +0.000 HD
ENDBRANCH  43  44
ENDBRANCH  32  43
ENDBRANCH  29  30
ENDBRANCH   5  29
TORSDOF 15
ENDMDL
