MODEL 1
REMARK VINA RESULT:      -5.2      0.000      0.000
REMARK  Name = 
REMARK  8 active torsions:
REMARK  status: ('A' for Active; 'I' for Inactive)
REMARK    1  A    between atoms: C_1  and  N_2
REMARK    2  A    between atoms: N_5  and  C_6
REMARK    3  A    between atoms: C_6  and  C_7
REMARK    4  A    between atoms: C_7  and  C_8
REMARK    5  A    between atoms: C_8  and  C_9
REMARK    6  A    between atoms: C_9  and  N_10
REMARK    7  A    between atoms: C_9  and  P_11
REMARK    8  A    between atoms: P_11  and  O_13
REMARK                            x       y       z     vdW  Elec       q    Type
REMARK                         _______ _______ _______ _____ _____    ______ ____
ROOT
ATOM      1  C   UNL     1       5.490   5.415  15.731  0.00  0.00    +0.000 C 
ENDROOT
BRANCH   1   2
ATOM      2  C   UNL     1       4.815   4.066  15.977  0.00  0.00    +0.000 C 
BRANCH   2   7
ATOM      3  C   UNL     1       4.087   2.417  20.521  0.00  0.00    +0.000 C 
ATOM      4  N   UNL     1       4.792   2.579  19.269  0.00  0.00    +0.000 N 
ATOM      5  C   UNL     1       4.318   3.327  18.233  0.00  0.00    +0.000 C 
ATOM      6  N   UNL     1       3.145   3.845  18.160  0.00  0.00    +0.000 NA
ATOM      7  N   UNL     1       5.241   3.476  17.242  0.00  0.00    +0.000 N 
ATOM      8  H   UNL     1       5.796   2.578  19.353  0.00  0.00    +0.000 HD
ATOM      9  H   UNL     1       2.606   3.602  18.988  0.00  0.00    +0.000 HD
ATOM     10  H   UNL     1       5.858   2.682  17.139  0.00  0.00    +0.000 HD
ENDBRANCH   2   7
ENDBRANCH   1   2
BRANCH   1  11
ATOM     11  C   UNL     1       6.958   5.357  16.172  0.00  0.00    +0.000 C 
BRANCH  11  12
ATOM     12  C   UNL     1       7.396   6.489  17.112  0.00  0.00    +0.000 C 
BRANCH  12  13
ATOM     13  N   UNL     1       6.424   7.592  17.209  0.00  0.00    +0.000 NA
ATOM     14  H   UNL     1       5.495   7.178  17.053  0.00  0.00    +0.000 HD
ATOM     15  H   UNL     1       6.561   8.256  16.451  0.00  0.00    +0.000 HD
ENDBRANCH  12  13
BRANCH  12  16
ATOM     16  P   UNL     1       7.655   5.930  18.835  0.00  0.00    +0.000 P 
ATOM     17  O   UNL     1       7.857   4.468  18.397  0.00  0.00    +0.000 OA
ATOM     18  H   UNL     1       8.787   6.756  18.996  0.00  0.00    +0.000 HD
BRANCH  16  19
ATOM     19  O   UNL     1       7.901   5.401  20.464  0.00  0.00    +0.000 OA
ATOM     20  H   UNL     1       8.039   6.227  20.977  0.00  0.00    +0.000 HD
ENDBRANCH  16  19
ENDBRANCH  12  16
ENDBRANCH  11  12
ENDBRANCH   1  11
TORSDOF 7
ENDMDL
MODEL 2
REMARK VINA RESULT:      -5.1      3.210      4.788
REMARK  Name = 
REMARK  8 active torsions:
REMARK  status: ('A' for Active; 'I' for Inactive)
REMARK    1  A    between atoms: C_1  and  N_2
REMARK    2  A    between atoms: N_5  and  C_6
REMARK    3  A    between atoms: C_6  and  C_7
REMARK    4  A    between atoms: C_7  and  C_8
REMARK    5  A    between atoms: C_8  and  C_9
REMARK    6  A    between atoms: C_9  and  N_10
REMARK    7  A    between atoms: C_9  and  P_11
REMARK    8  A    between atoms: P_11  and  O_13
REMARK                            x       y       z     vdW  Elec       q    Type
REMARK                         _______ _______ _______ _____ _____    ______ ____
ROOT
ATOM      1  C   UNL     1       6.304   5.877  18.055  0.00  0.00    +0.000 C 
ENDROOT
BRANCH   1   2
ATOM      2  C   UNL     1       7.151   4.743  17.477  0.00  0.00    +0.000 C 
BRANCH   2   7
ATOM      3  C   UNL     1       6.307   3.686  12.780  0.00  0.00    +0.000 C 
ATOM      4  N   UNL     1       6.244   3.494  14.212  0.00  0.00    +0.000 N 
ATOM      5  C   UNL     1       6.811   4.350  15.109  0.00  0.00    +0.000 C 
ATOM      6  N   UNL     1       7.592   5.327  14.818  0.00  0.00    +0.000 NA
ATOM      7  N   UNL     1       6.459   4.057  16.391  0.00  0.00    +0.000 N 
ATOM      8  H   UNL     1       5.397   3.055  14.537  0.00  0.00    +0.000 HD
ATOM      9  H   UNL     1       7.744   5.364  13.814  0.00  0.00    +0.000 HD
ATOM     10  H   UNL     1       6.310   3.070  16.556  0.00  0.00    +0.000 HD
ENDBRANCH   2   7
ENDBRANCH   1   2
BRANCH   1  11
ATOM     11  C   UNL     1       4.823   5.479  18.055  0.00  0.00    +0.000 C 
BRANCH  11  12
ATOM     12  C   UNL     1       4.377   4.645  19.266  0.00  0.00    +0.000 C 
BRANCH  12  13
ATOM     13  N   UNL     1       3.347   5.300  20.091  0.00  0.00    +0.000 NA
ATOM     14  H   UNL     1       3.078   4.620  20.816  0.00  0.00    +0.000 HD
ATOM     15  H   UNL     1       2.506   5.467  19.545  0.00  0.00    +0.000 HD
ENDBRANCH  12  13
BRANCH  12  16
ATOM     16  P   UNL     1       3.656   3.030  18.797  0.00  0.00    +0.000 P 
ATOM     17  O   UNL     1       3.761   3.347  17.294  0.00  0.00    +0.000 OA
ATOM     18  H   UNL     1       4.702   2.316  19.418  0.00  0.00    +0.000 HD
BRANCH  16  19
ATOM     19  O   UNL     1       2.974   1.503  18.354  0.00  0.00    +0.000 OA
ATOM     20  H   UNL     1       2.266   1.722  17.710  0.00  0.00    +0.000 HD
ENDBRANCH  16  19
ENDBRANCH  12  16
ENDBRANCH  11  12
ENDBRANCH   1  11
TORSDOF 7
ENDMDL
MODEL 3
REMARK VINA RESULT:      -5.1      1.078      1.105
REMARK  Name = 
REMARK  8 active torsions:
REMARK  status: ('A' for Active; 'I' for Inactive)
REMARK    1  A    between atoms: C_1  and  N_2
REMARK    2  A    between atoms: N_5  and  C_6
REMARK    3  A    between atoms: C_6  and  C_7
REMARK    4  A    between atoms: C_7  and  C_8
REMARK    5  A    between atoms: C_8  and  C_9
REMARK    6  A    between atoms: C_9  and  N_10
REMARK    7  A    between atoms: C_9  and  P_11
REMARK    8  A    between atoms: P_11  and  O_13
REMARK                            x       y       z     vdW  Elec       q    Type
REMARK                         _______ _______ _______ _____ _____    ______ ____
ROOT
ATOM      1  C   UNL     1       5.296   5.581  15.894  0.00  0.00    +0.000 C 
ENDROOT
BRANCH   1   2
ATOM      2  C   UNL     1       4.903   4.202  16.424  0.00  0.00    +0.000 C 
BRANCH   2   7
ATOM      3  C   UNL     1       2.353   2.779  20.344  0.00  0.00    +0.000 C 
ATOM      4  N   UNL     1       3.427   3.431  19.630  0.00  0.00    +0.000 N 
ATOM      5  C   UNL     1       3.536   3.427  18.271  0.00  0.00    +0.000 C 
ATOM      6  N   UNL     1       2.815   2.732  17.466  0.00  0.00    +0.000 NA
ATOM      7  N   UNL     1       4.521   4.258  17.831  0.00  0.00    +0.000 N 
ATOM      8  H   UNL     1       3.772   4.270  20.070  0.00  0.00    +0.000 HD
ATOM      9  H   UNL     1       2.155   2.165  17.992  0.00  0.00    +0.000 HD
ATOM     10  H   UNL     1       5.303   4.333  18.468  0.00  0.00    +0.000 HD
ENDBRANCH   2   7
ENDBRANCH   1   2
BRANCH   1  11
ATOM     11  C   UNL     1       5.696   6.497  17.057  0.00  0.00    +0.000 C 
BRANCH  11  12
ATOM     12  C   UNL     1       7.206   6.582  17.324  0.00  0.00    +0.000 C 
BRANCH  12  13
ATOM     13  N   UNL     1       7.742   7.953  17.277  0.00  0.00    +0.000 NA
ATOM     14  H   UNL     1       7.961   8.215  18.247  0.00  0.00    +0.000 HD
ATOM     15  H   UNL     1       7.025   8.606  16.971  0.00  0.00    +0.000 HD
ENDBRANCH  12  13
BRANCH  12  16
ATOM     16  P   UNL     1       7.680   5.942  18.972  0.00  0.00    +0.000 P 
ATOM     17  O   UNL     1       7.684   4.485  18.475  0.00  0.00    +0.000 OA
ATOM     18  H   UNL     1       8.889   6.667  18.971  0.00  0.00    +0.000 HD
BRANCH  16  19
ATOM     19  O   UNL     1       8.127   5.338  20.530  0.00  0.00    +0.000 OA
ATOM     20  H   UNL     1       8.894   4.749  20.359  0.00  0.00    +0.000 HD
ENDBRANCH  16  19
ENDBRANCH  12  16
ENDBRANCH  11  12
ENDBRANCH   1  11
TORSDOF 7
ENDMDL
MODEL 4
REMARK VINA RESULT:      -5.0      1.304      1.695
REMARK  Name = 
REMARK  8 active torsions:
REMARK  status: ('A' for Active; 'I' for Inactive)
REMARK    1  A    between atoms: C_1  and  N_2
REMARK    2  A    between atoms: N_5  and  C_6
REMARK    3  A    between atoms: C_6  and  C_7
REMARK    4  A    between atoms: C_7  and  C_8
REMARK    5  A    between atoms: C_8  and  C_9
REMARK    6  A    between atoms: C_9  and  N_10
REMARK    7  A    between atoms: C_9  and  P_11
REMARK    8  A    between atoms: P_11  and  O_13
REMARK                            x       y       z     vdW  Elec       q    Type
REMARK                         _______ _______ _______ _____ _____    ______ ____
ROOT
ATOM      1  C   UNL     1       4.685   4.809  16.291  0.00  0.00    +0.000 C 
ENDROOT
BRANCH   1   2
ATOM      2  C   UNL     1       4.701   3.554  17.163  0.00  0.00    +0.000 C 
BRANCH   2   7
ATOM      3  C   UNL     1       2.612   2.696  21.498  0.00  0.00    +0.000 C 
ATOM      4  N   UNL     1       2.732   3.274  20.179  0.00  0.00    +0.000 N 
ATOM      5  C   UNL     1       3.786   3.035  19.349  0.00  0.00    +0.000 C 
ATOM      6  N   UNL     1       4.864   2.415  19.670  0.00  0.00    +0.000 NA
ATOM      7  N   UNL     1       3.582   3.539  18.100  0.00  0.00    +0.000 N 
ATOM      8  H   UNL     1       1.854   3.413  19.703  0.00  0.00    +0.000 HD
ATOM      9  H   UNL     1       4.828   2.138  20.647  0.00  0.00    +0.000 HD
ATOM     10  H   UNL     1       3.024   4.382  18.089  0.00  0.00    +0.000 HD
ENDBRANCH   2   7
ENDBRANCH   1   2
BRANCH   1  11
ATOM     11  C   UNL     1       5.370   5.968  17.025  0.00  0.00    +0.000 C 
BRANCH  11  12
ATOM     12  C   UNL     1       6.897   5.843  17.148  0.00  0.00    +0.000 C 
BRANCH  12  13
ATOM     13  N   UNL     1       7.633   7.009  16.628  0.00  0.00    +0.000 NA
ATOM     14  H   UNL     1       8.608   6.899  16.936  0.00  0.00    +0.000 HD
ATOM     15  H   UNL     1       7.300   7.864  17.065  0.00  0.00    +0.000 HD
ENDBRANCH  12  13
BRANCH  12  16
ATOM     16  P   UNL     1       7.463   5.656  18.878  0.00  0.00    +0.000 P 
ATOM     17  O   UNL     1       8.253   6.976  18.829  0.00  0.00    +0.000 OA
ATOM     18  H   UNL     1       6.142   5.670  19.374  0.00  0.00    +0.000 HD
BRANCH  16  19
ATOM     19  O   UNL     1       7.997   5.479  20.514  0.00  0.00    +0.000 OA
ATOM     20  H   UNL     1       7.987   4.510  20.677  0.00  0.00    +0.000 HD
ENDBRANCH  16  19
ENDBRANCH  12  16
ENDBRANCH  11  12
ENDBRANCH   1  11
TORSDOF 7
ENDMDL
MODEL 5
REMARK VINA RESULT:      -5.0      3.926      5.550
REMARK  Name = 
REMARK  8 active torsions:
REMARK  status: ('A' for Active; 'I' for Inactive)
REMARK    1  A    between atoms: C_1  and  N_2
REMARK    2  A    between atoms: N_5  and  C_6
REMARK    3  A    between atoms: C_6  and  C_7
REMARK    4  A    between atoms: C_7  and  C_8
REMARK    5  A    between atoms: C_8  and  C_9
REMARK    6  A    between atoms: C_9  and  N_10
REMARK    7  A    between atoms: C_9  and  P_11
REMARK    8  A    between atoms: P_11  and  O_13
REMARK                            x       y       z     vdW  Elec       q    Type
REMARK                         _______ _______ _______ _____ _____    ______ ____
ROOT
ATOM      1  C   UNL     1       4.938   4.530  17.858  0.00  0.00    +0.000 C 
ENDROOT
BRANCH   1   2
ATOM      2  C   UNL     1       6.190   4.377  16.993  0.00  0.00    +0.000 C 
BRANCH   2   7
ATOM      3  C   UNL     1       6.734   3.642  12.192  0.00  0.00    +0.000 C 
ATOM      4  N   UNL     1       6.319   3.327  13.540  0.00  0.00    +0.000 N 
ATOM      5  C   UNL     1       6.531   4.153  14.603  0.00  0.00    +0.000 C 
ATOM      6  N   UNL     1       7.248   5.218  14.590  0.00  0.00    +0.000 NA
ATOM      7  N   UNL     1       5.888   3.723  15.725  0.00  0.00    +0.000 N 
ATOM      8  H   UNL     1       5.469   2.786  13.599  0.00  0.00    +0.000 HD
ATOM      9  H   UNL     1       7.654   5.352  13.667  0.00  0.00    +0.000 HD
ATOM     10  H   UNL     1       5.811   2.717  15.788  0.00  0.00    +0.000 HD
ENDBRANCH   2   7
ENDBRANCH   1   2
BRANCH   1  11
ATOM     11  C   UNL     1       3.938   3.412  17.537  0.00  0.00    +0.000 C 
BRANCH  11  12
ATOM     12  C   UNL     1       3.736   2.383  18.659  0.00  0.00    +0.000 C 
BRANCH  12  13
ATOM     13  N   UNL     1       4.803   2.394  19.676  0.00  0.00    +0.000 NA
ATOM     14  H   UNL     1       5.460   1.645  19.418  0.00  0.00    +0.000 HD
ATOM     15  H   UNL     1       4.431   2.133  20.585  0.00  0.00    +0.000 HD
ENDBRANCH  12  13
BRANCH  12  16
ATOM     16  P   UNL     1       2.184   2.639  19.595  0.00  0.00    +0.000 P 
ATOM     17  O   UNL     1       1.451   3.178  18.353  0.00  0.00    +0.000 OA
ATOM     18  H   UNL     1       2.078   1.268  19.909  0.00  0.00    +0.000 HD
BRANCH  16  19
ATOM     19  O   UNL     1       0.718   2.881  20.480  0.00  0.00    +0.000 OA
ATOM     20  H   UNL     1       0.034   2.398  19.967  0.00  0.00    +0.000 HD
ENDBRANCH  16  19
ENDBRANCH  12  16
ENDBRANCH  11  12
ENDBRANCH   1  11
TORSDOF 7
ENDMDL
MODEL 6
REMARK VINA RESULT:      -5.0      3.269      5.013
REMARK  Name = 
REMARK  8 active torsions:
REMARK  status: ('A' for Active; 'I' for Inactive)
REMARK    1  A    between atoms: C_1  and  N_2
REMARK    2  A    between atoms: N_5  and  C_6
REMARK    3  A    between atoms: C_6  and  C_7
REMARK    4  A    between atoms: C_7  and  C_8
REMARK    5  A    between atoms: C_8  and  C_9
REMARK    6  A    between atoms: C_9  and  N_10
REMARK    7  A    between atoms: C_9  and  P_11
REMARK    8  A    between atoms: P_11  and  O_13
REMARK                            x       y       z     vdW  Elec       q    Type
REMARK                         _______ _______ _______ _____ _____    ______ ____
ROOT
ATOM      1  C   UNL     1       1.583   3.283  18.129  0.00  0.00    +0.000 C 
ENDROOT
BRANCH   1   2
ATOM      2  C   UNL     1       2.685   2.321  17.684  0.00  0.00    +0.000 C 
BRANCH   2   7
ATOM      3  C   UNL     1       6.904   4.761  18.047  0.00  0.00    +0.000 C 
ATOM      4  N   UNL     1       5.812   3.932  18.503  0.00  0.00    +0.000 N 
ATOM      5  C   UNL     1       4.761   3.574  17.713  0.00  0.00    +0.000 C 
ATOM      6  N   UNL     1       4.516   4.037  16.541  0.00  0.00    +0.000 NA
ATOM      7  N   UNL     1       3.963   2.644  18.309  0.00  0.00    +0.000 N 
ATOM      8  H   UNL     1       6.073   3.237  19.185  0.00  0.00    +0.000 HD
ATOM      9  H   UNL     1       5.215   4.730  16.288  0.00  0.00    +0.000 HD
ATOM     10  H   UNL     1       3.918   2.733  19.316  0.00  0.00    +0.000 HD
ENDBRANCH   2   7
ENDBRANCH   1   2
BRANCH   1  11
ATOM     11  C   UNL     1       0.923   2.768  19.414  0.00  0.00    +0.000 C 
BRANCH  11  12
ATOM     12  C   UNL     1       1.427   3.425  20.708  0.00  0.00    +0.000 C 
BRANCH  12  13
ATOM     13  N   UNL     1       2.616   2.772  21.282  0.00  0.00    +0.000 NA
ATOM     14  H   UNL     1       3.261   3.527  21.553  0.00  0.00    +0.000 HD
ATOM     15  H   UNL     1       3.105   2.233  20.572  0.00  0.00    +0.000 HD
ENDBRANCH  12  13
BRANCH  12  16
ATOM     16  P   UNL     1       1.907   5.176  20.482  0.00  0.00    +0.000 P 
ATOM     17  O   UNL     1       3.406   4.825  20.437  0.00  0.00    +0.000 OA
ATOM     18  H   UNL     1       1.194   5.277  19.269  0.00  0.00    +0.000 HD
BRANCH  16  19
ATOM     19  O   UNL     1       2.361   6.832  20.268  0.00  0.00    +0.000 OA
ATOM     20  H   UNL     1       2.048   7.062  19.366  0.00  0.00    +0.000 HD
ENDBRANCH  16  19
ENDBRANCH  12  16
ENDBRANCH  11  12
ENDBRANCH   1  11
TORSDOF 7
ENDMDL
MODEL 7
REMARK VINA RESULT:      -5.0      1.569      1.725
REMARK  Name = 
REMARK  8 active torsions:
REMARK  status: ('A' for Active; 'I' for Inactive)
REMARK    1  A    between atoms: C_1  and  N_2
REMARK    2  A    between atoms: N_5  and  C_6
REMARK    3  A    between atoms: C_6  and  C_7
REMARK    4  A    between atoms: C_7  and  C_8
REMARK    5  A    between atoms: C_8  and  C_9
REMARK    6  A    between atoms: C_9  and  N_10
REMARK    7  A    between atoms: C_9  and  P_11
REMARK    8  A    between atoms: P_11  and  O_13
REMARK                            x       y       z     vdW  Elec       q    Type
REMARK                         _______ _______ _______ _____ _____    ______ ____
ROOT
ATOM      1  C   UNL     1       4.571   4.841  16.428  0.00  0.00    +0.000 C 
ENDROOT
BRANCH   1   2
ATOM      2  C   UNL     1       4.351   3.468  17.064  0.00  0.00    +0.000 C 
BRANCH   2   7
ATOM      3  C   UNL     1       1.201   3.001  20.773  0.00  0.00    +0.000 C 
ATOM      4  N   UNL     1       2.493   3.179  20.148  0.00  0.00    +0.000 N 
ATOM      5  C   UNL     1       2.673   3.224  18.797  0.00  0.00    +0.000 C 
ATOM      6  N   UNL     1       1.777   2.962  17.915  0.00  0.00    +0.000 NA
ATOM      7  N   UNL     1       3.942   3.583  18.460  0.00  0.00    +0.000 N 
ATOM      8  H   UNL     1       3.133   3.756  20.670  0.00  0.00    +0.000 HD
ATOM      9  H   UNL     1       0.907   2.697  18.371  0.00  0.00    +0.000 HD
ATOM     10  H   UNL     1       4.642   3.272  19.120  0.00  0.00    +0.000 HD
ENDBRANCH   2   7
ENDBRANCH   1   2
BRANCH   1  11
ATOM     11  C   UNL     1       5.279   5.772  17.421  0.00  0.00    +0.000 C 
BRANCH  11  12
ATOM     12  C   UNL     1       6.813   5.685  17.408  0.00  0.00    +0.000 C 
BRANCH  12  13
ATOM     13  N   UNL     1       7.469   6.850  16.788  0.00  0.00    +0.000 NA
ATOM     14  H   UNL     1       6.955   7.681  17.111  0.00  0.00    +0.000 HD
ATOM     15  H   UNL     1       7.352   6.830  15.778  0.00  0.00    +0.000 HD
ENDBRANCH  12  13
BRANCH  12  16
ATOM     16  P   UNL     1       7.538   5.566  19.083  0.00  0.00    +0.000 P 
ATOM     17  O   UNL     1       6.438   4.600  19.559  0.00  0.00    +0.000 OA
ATOM     18  H   UNL     1       8.746   5.033  18.586  0.00  0.00    +0.000 HD
BRANCH  16  19
ATOM     19  O   UNL     1       8.225   5.453  20.667  0.00  0.00    +0.000 OA
ATOM     20  H   UNL     1       8.394   6.383  20.933  0.00  0.00    +0.000 HD
ENDBRANCH  16  19
ENDBRANCH  12  16
ENDBRANCH  11  12
ENDBRANCH   1  11
TORSDOF 7
ENDMDL
MODEL 8
REMARK VINA RESULT:      -5.0      3.654      5.092
REMARK  Name = 
REMARK  8 active torsions:
REMARK  status: ('A' for Active; 'I' for Inactive)
REMARK    1  A    between atoms: C_1  and  N_2
REMARK    2  A    between atoms: N_5  and  C_6
REMARK    3  A    between atoms: C_6  and  C_7
REMARK    4  A    between atoms: C_7  and  C_8
REMARK    5  A    between atoms: C_8  and  C_9
REMARK    6  A    between atoms: C_9  and  N_10
REMARK    7  A    between atoms: C_9  and  P_11
REMARK    8  A    between atoms: P_11  and  O_13
REMARK                            x       y       z     vdW  Elec       q    Type
REMARK                         _______ _______ _______ _____ _____    ______ ____
ROOT
ATOM      1  C   UNL     1       6.106   5.223  18.991  0.00  0.00    +0.000 C 
ENDROOT
BRANCH   1   2
ATOM      2  C   UNL     1       7.133   4.789  17.944  0.00  0.00    +0.000 C 
BRANCH   2   7
ATOM      3  C   UNL     1       6.285   3.804  13.232  0.00  0.00    +0.000 C 
ATOM      4  N   UNL     1       6.296   3.551  14.655  0.00  0.00    +0.000 N 
ATOM      5  C   UNL     1       6.771   4.442  15.571  0.00  0.00    +0.000 C 
ATOM      6  N   UNL     1       7.402   5.527  15.300  0.00  0.00    +0.000 NA
ATOM      7  N   UNL     1       6.505   4.056  16.850  0.00  0.00    +0.000 N 
ATOM      8  H   UNL     1       5.528   2.988  14.985  0.00  0.00    +0.000 HD
ATOM      9  H   UNL     1       7.515   5.622  14.294  0.00  0.00    +0.000 HD
ATOM     10  H   UNL     1       6.497   3.052  16.977  0.00  0.00    +0.000 HD
ENDBRANCH   2   7
ENDBRANCH   1   2
BRANCH   1  11
ATOM     11  C   UNL     1       5.054   4.124  19.181  0.00  0.00    +0.000 C 
BRANCH  11  12
ATOM     12  C   UNL     1       3.623   4.524  18.790  0.00  0.00    +0.000 C 
BRANCH  12  13
ATOM     13  N   UNL     1       3.526   5.172  17.470  0.00  0.00    +0.000 NA
ATOM     14  H   UNL     1       3.169   4.459  16.820  0.00  0.00    +0.000 HD
ATOM     15  H   UNL     1       4.451   5.419  17.126  0.00  0.00    +0.000 HD
ENDBRANCH  12  13
BRANCH  12  16
ATOM     16  P   UNL     1       2.478   3.099  18.705  0.00  0.00    +0.000 P 
ATOM     17  O   UNL     1       1.439   3.800  19.599  0.00  0.00    +0.000 OA
ATOM     18  H   UNL     1       2.356   3.205  17.304  0.00  0.00    +0.000 HD
BRANCH  16  19
ATOM     19  O   UNL     1       1.396   1.752  18.625  0.00  0.00    +0.000 OA
ATOM     20  H   UNL     1       0.924   1.861  17.771  0.00  0.00    +0.000 HD
ENDBRANCH  16  19
ENDBRANCH  12  16
ENDBRANCH  11  12
ENDBRANCH   1  11
TORSDOF 7
ENDMDL
MODEL 9
REMARK VINA RESULT:      -4.9      1.899      2.119
REMARK  Name = 
REMARK  8 active torsions:
REMARK  status: ('A' for Active; 'I' for Inactive)
REMARK    1  A    between atoms: C_1  and  N_2
REMARK    2  A    between atoms: N_5  and  C_6
REMARK    3  A    between atoms: C_6  and  C_7
REMARK    4  A    between atoms: C_7  and  C_8
REMARK    5  A    between atoms: C_8  and  C_9
REMARK    6  A    between atoms: C_9  and  N_10
REMARK    7  A    between atoms: C_9  and  P_11
REMARK    8  A    between atoms: P_11  and  O_13
REMARK                            x       y       z     vdW  Elec       q    Type
REMARK                         _______ _______ _______ _____ _____    ______ ____
ROOT
ATOM      1  C   UNL     1       4.708   5.315  17.462  0.00  0.00    +0.000 C 
ENDROOT
BRANCH   1   2
ATOM      2  C   UNL     1       3.419   5.775  18.145  0.00  0.00    +0.000 C 
BRANCH   2   7
ATOM      3  C   UNL     1       1.511   2.767  21.492  0.00  0.00    +0.000 C 
ATOM      4  N   UNL     1       2.484   3.680  20.934  0.00  0.00    +0.000 N 
ATOM      5  C   UNL     1       2.351   4.260  19.708  0.00  0.00    +0.000 C 
ATOM      6  N   UNL     1       1.456   3.964  18.835  0.00  0.00    +0.000 NA
ATOM      7  N   UNL     1       3.295   5.216  19.487  0.00  0.00    +0.000 N 
ATOM      8  H   UNL     1       2.954   4.255  21.616  0.00  0.00    +0.000 HD
ATOM      9  H   UNL     1       0.863   3.216  19.184  0.00  0.00    +0.000 HD
ATOM     10  H   UNL     1       4.180   5.025  19.937  0.00  0.00    +0.000 HD
ENDBRANCH   2   7
ENDBRANCH   1   2
BRANCH   1  11
ATOM     11  C   UNL     1       5.504   6.529  16.970  0.00  0.00    +0.000 C 
BRANCH  11  12
ATOM     12  C   UNL     1       7.024   6.432  17.174  0.00  0.00    +0.000 C 
BRANCH  12  13
ATOM     13  N   UNL     1       7.731   7.712  16.995  0.00  0.00    +0.000 NA
ATOM     14  H   UNL     1       8.315   7.843  17.832  0.00  0.00    +0.000 HD
ATOM     15  H   UNL     1       7.071   8.487  16.996  0.00  0.00    +0.000 HD
ENDBRANCH  12  13
BRANCH  12  16
ATOM     16  P   UNL     1       7.487   5.863  18.850  0.00  0.00    +0.000 P 
ATOM     17  O   UNL     1       7.957   4.494  18.323  0.00  0.00    +0.000 OA
ATOM     18  H   UNL     1       8.435   6.896  19.003  0.00  0.00    +0.000 HD
BRANCH  16  19
ATOM     19  O   UNL     1       7.926   5.324  20.434  0.00  0.00    +0.000 OA
ATOM     20  H   UNL     1       7.626   4.390  20.473  0.00  0.00    +0.000 HD
ENDBRANCH  16  19
ENDBRANCH  12  16
ENDBRANCH  11  12
ENDBRANCH   1  11
TORSDOF 7
ENDMDL
