MODEL 1
REMARK VINA RESULT:      -7.3      0.000      0.000
REMARK  Name = 
REMARK  5 active torsions:
REMARK  status: ('A' for Active; 'I' for Inactive)
REMARK    1  A    between atoms: C_1  and  C_2
REMARK    2  A    between atoms: N_5  and  C_6
REMARK    3  A    between atoms: N_9  and  S_10
REMARK    4  A    between atoms: S_10  and  C_13
REMARK    5  A    between atoms: N_17  and  C_18
REMARK                            x       y       z     vdW  Elec       q    Type
REMARK                         _______ _______ _______ _____ _____    ______ ____
ROOT
ATOM      1  C   UNL     1       2.931   5.435  18.585  0.00  0.00    +0.000 C 
ATOM      2  C   UNL     1       3.222   6.396  17.429  0.00  0.00    +0.000 C 
ATOM      3  C   UNL     1       4.621   6.302  16.862  0.00  0.00    +0.000 C 
ATOM      4  N   UNL     1       5.709   6.273  17.870  0.00  0.00    +0.000 NA
ATOM      5  C   UNL     1       5.435   5.709  19.212  0.00  0.00    +0.000 C 
ATOM      6  C   UNL     1       3.987   5.723  19.656  0.00  0.00    +0.000 C 
ENDROOT
BRANCH   1  11
ATOM      7  C   UNL     1       1.571   2.501  21.888  0.00  0.00    +0.000 C 
ATOM      8  C   UNL     1       1.650   2.306  20.368  0.00  0.00    +0.000 C 
ATOM      9  C   UNL     1       3.119   2.338  19.916  0.00  0.00    +0.000 C 
ATOM     10  C   UNL     1       3.368   2.903  18.526  0.00  0.00    +0.000 C 
ATOM     11  N   UNL     1       2.569   4.067  18.177  0.00  0.00    +0.000 NA
ATOM     12  C   UNL     1       1.148   3.730  18.277  0.00  0.00    +0.000 C 
ATOM     13  C   UNL     1       0.716   3.312  19.676  0.00  0.00    +0.000 C 
ENDBRANCH   1  11
BRANCH   4  14
ATOM     14  S   UNL     1       7.203   5.666  17.225  0.00  0.00    +0.000 S 
ATOM     15  O   UNL     1       8.088   6.796  17.065  0.00  0.00    +0.000 OA
ATOM     16  O   UNL     1       7.600   4.516  18.013  0.00  0.00    +0.000 OA
BRANCH  14  17
ATOM     17  C   UNL     1       6.876   5.031  15.593  0.00  0.00    +0.000 A 
ATOM     18  N   UNL     1       7.360   5.562  14.475  0.00  0.00    +0.000 NA
ATOM     19  C   UNL     1       6.957   4.751  13.456  0.00  0.00    +0.000 A 
ATOM     20  C   UNL     1       6.210   3.706  13.940  0.00  0.00    +0.000 A 
ATOM     21  N   UNL     1       6.127   3.920  15.291  0.00  0.00    +0.000 N 
ATOM     22  C   UNL     1       5.378   3.094  16.210  0.00  0.00    +0.000 C 
ENDBRANCH  14  17
ENDBRANCH   4  14
TORSDOF 3
ENDMDL
MODEL 2
REMARK VINA RESULT:      -7.2      0.708      1.349
REMARK  Name = 
REMARK  5 active torsions:
REMARK  status: ('A' for Active; 'I' for Inactive)
REMARK    1  A    between atoms: C_1  and  C_2
REMARK    2  A    between atoms: N_5  and  C_6
REMARK    3  A    between atoms: N_9  and  S_10
REMARK    4  A    between atoms: S_10  and  C_13
REMARK    5  A    between atoms: N_17  and  C_18
REMARK                            x       y       z     vdW  Elec       q    Type
REMARK                         _______ _______ _______ _____ _____    ______ ____
ROOT
ATOM      1  C   UNL     1       3.209   5.514  18.609  0.00  0.00    +0.000 C 
ATOM      2  C   UNL     1       3.444   6.604  17.560  0.00  0.00    +0.000 C 
ATOM      3  C   UNL     1       4.738   6.473  16.788  0.00  0.00    +0.000 C 
ATOM      4  N   UNL     1       5.941   6.202  17.614  0.00  0.00    +0.000 NA
ATOM      5  C   UNL     1       5.788   5.474  18.895  0.00  0.00    +0.000 C 
ATOM      6  C   UNL     1       4.421   5.548  19.543  0.00  0.00    +0.000 C 
ENDROOT
BRANCH   1  11
ATOM      7  C   UNL     1       1.677   2.396  21.660  0.00  0.00    +0.000 C 
ATOM      8  C   UNL     1       1.644   2.373  20.126  0.00  0.00    +0.000 C 
ATOM      9  C   UNL     1       3.075   2.281  19.576  0.00  0.00    +0.000 C 
ATOM     10  C   UNL     1       3.314   2.972  18.241  0.00  0.00    +0.000 C 
ATOM     11  N   UNL     1       2.652   4.256  18.080  0.00  0.00    +0.000 NA
ATOM     12  C   UNL     1       1.208   4.083  18.245  0.00  0.00    +0.000 C 
ATOM     13  C   UNL     1       0.807   3.558  19.617  0.00  0.00    +0.000 C 
ENDBRANCH   1  11
BRANCH   4  14
ATOM     14  S   UNL     1       7.263   5.568  16.683  0.00  0.00    +0.000 S 
ATOM     15  O   UNL     1       7.976   6.698  16.134  0.00  0.00    +0.000 OA
ATOM     16  O   UNL     1       7.947   4.576  17.489  0.00  0.00    +0.000 OA
BRANCH  14  17
ATOM     17  C   UNL     1       6.580   4.670  15.304  0.00  0.00    +0.000 A 
ATOM     18  N   UNL     1       5.566   3.817  15.399  0.00  0.00    +0.000 NA
ATOM     19  C   UNL     1       5.289   3.406  14.128  0.00  0.00    +0.000 A 
ATOM     20  C   UNL     1       6.141   4.002  13.233  0.00  0.00    +0.000 A 
ATOM     21  N   UNL     1       6.985   4.766  13.995  0.00  0.00    +0.000 N 
ATOM     22  C   UNL     1       8.095   5.532  13.477  0.00  0.00    +0.000 C 
ENDBRANCH  14  17
ENDBRANCH   4  14
TORSDOF 3
ENDMDL
MODEL 3
REMARK VINA RESULT:      -6.7      5.292      6.997
REMARK  Name = 
REMARK  5 active torsions:
REMARK  status: ('A' for Active; 'I' for Inactive)
REMARK    1  A    between atoms: C_1  and  C_2
REMARK    2  A    between atoms: N_5  and  C_6
REMARK    3  A    between atoms: N_9  and  S_10
REMARK    4  A    between atoms: S_10  and  C_13
REMARK    5  A    between atoms: N_17  and  C_18
REMARK                            x       y       z     vdW  Elec       q    Type
REMARK                         _______ _______ _______ _____ _____    ______ ____
ROOT
ATOM      1  C   UNL     1       2.614   5.998  19.074  0.00  0.00    +0.000 C 
ATOM      2  C   UNL     1       2.489   6.752  20.401  0.00  0.00    +0.000 C 
ATOM      3  C   UNL     1       1.560   7.945  20.368  0.00  0.00    +0.000 C 
ATOM      4  N   UNL     1       1.740   8.853  19.208  0.00  0.00    +0.000 NA
ATOM      5  C   UNL     1       2.251   8.300  17.931  0.00  0.00    +0.000 C 
ATOM      6  C   UNL     1       3.067   7.029  18.037  0.00  0.00    +0.000 C 
ENDROOT
BRANCH   1  11
ATOM      7  C   UNL     1       3.771   1.532  18.782  0.00  0.00    +0.000 C 
ATOM      8  C   UNL     1       2.391   2.199  18.712  0.00  0.00    +0.000 C 
ATOM      9  C   UNL     1       2.292   3.059  17.443  0.00  0.00    +0.000 C 
ATOM     10  C   UNL     1       1.422   4.302  17.555  0.00  0.00    +0.000 C 
ATOM     11  N   UNL     1       1.537   5.029  18.809  0.00  0.00    +0.000 NA
ATOM     12  C   UNL     1       1.196   4.140  19.920  0.00  0.00    +0.000 C 
ATOM     13  C   UNL     1       2.111   2.928  20.037  0.00  0.00    +0.000 C 
ENDBRANCH   1  11
BRANCH   4  14
ATOM     14  S   UNL     1       0.366   9.881  18.944  0.00  0.00    +0.000 S 
ATOM     15  O   UNL     1      -0.186   9.532  17.656  0.00  0.00    +0.000 OA
ATOM     16  O   UNL     1      -0.456   9.851  20.138  0.00  0.00    +0.000 OA
BRANCH  14  17
ATOM     17  C   UNL     1       0.953  11.558  18.816  0.00  0.00    +0.000 A 
ATOM     18  N   UNL     1       2.227  11.891  18.636  0.00  0.00    +0.000 NA
ATOM     19  C   UNL     1       2.256  13.248  18.507  0.00  0.00    +0.000 A 
ATOM     20  C   UNL     1       0.991  13.769  18.612  0.00  0.00    +0.000 A 
ATOM     21  N   UNL     1       0.179  12.692  18.854  0.00  0.00    +0.000 N 
ATOM     22  C   UNL     1      -1.243  12.773  19.096  0.00  0.00    +0.000 C 
ENDBRANCH  14  17
ENDBRANCH   4  14
TORSDOF 3
ENDMDL
MODEL 4
REMARK VINA RESULT:      -6.6      1.620      2.756
REMARK  Name = 
REMARK  5 active torsions:
REMARK  status: ('A' for Active; 'I' for Inactive)
REMARK    1  A    between atoms: C_1  and  C_2
REMARK    2  A    between atoms: N_5  and  C_6
REMARK    3  A    between atoms: N_9  and  S_10
REMARK    4  A    between atoms: S_10  and  C_13
REMARK    5  A    between atoms: N_17  and  C_18
REMARK                            x       y       z     vdW  Elec       q    Type
REMARK                         _______ _______ _______ _____ _____    ______ ____
ROOT
ATOM      1  C   UNL     1       4.172   3.540  18.660  0.00  0.00    +0.000 C 
ATOM      2  C   UNL     1       5.486   4.215  19.062  0.00  0.00    +0.000 C 
ATOM      3  C   UNL     1       6.126   5.053  17.978  0.00  0.00    +0.000 C 
ATOM      4  N   UNL     1       6.197   4.411  16.643  0.00  0.00    +0.000 NA
ATOM      5  C   UNL     1       5.172   3.408  16.268  0.00  0.00    +0.000 C 
ATOM      6  C   UNL     1       4.484   2.701  17.417  0.00  0.00    +0.000 C 
ENDROOT
BRANCH   1  11
ATOM      7  C   UNL     1       1.073   2.548  21.944  0.00  0.00    +0.000 C 
ATOM      8  C   UNL     1       1.107   3.706  20.938  0.00  0.00    +0.000 C 
ATOM      9  C   UNL     1       0.927   3.162  19.512  0.00  0.00    +0.000 C 
ATOM     10  C   UNL     1       1.644   3.936  18.416  0.00  0.00    +0.000 C 
ATOM     11  N   UNL     1       2.980   4.399  18.757  0.00  0.00    +0.000 NA
ATOM     12  C   UNL     1       2.910   5.257  19.941  0.00  0.00    +0.000 C 
ATOM     13  C   UNL     1       2.369   4.551  21.177  0.00  0.00    +0.000 C 
ENDBRANCH   1  11
BRANCH   4  14
ATOM     14  S   UNL     1       6.454   5.556  15.362  0.00  0.00    +0.000 S 
ATOM     15  O   UNL     1       5.264   6.369  15.273  0.00  0.00    +0.000 OA
ATOM     16  O   UNL     1       7.757   6.163  15.556  0.00  0.00    +0.000 OA
BRANCH  14  17
ATOM     17  C   UNL     1       6.576   4.650  13.833  0.00  0.00    +0.000 A 
ATOM     18  N   UNL     1       5.782   3.639  13.500  0.00  0.00    +0.000 NA
ATOM     19  C   UNL     1       6.135   3.272  12.235  0.00  0.00    +0.000 A 
ATOM     20  C   UNL     1       7.163   4.056  11.776  0.00  0.00    +0.000 A 
ATOM     21  N   UNL     1       7.465   4.896  12.815  0.00  0.00    +0.000 N 
ATOM     22  C   UNL     1       8.536   5.865  12.805  0.00  0.00    +0.000 C 
ENDBRANCH  14  17
ENDBRANCH   4  14
TORSDOF 3
ENDMDL
MODEL 5
REMARK VINA RESULT:      -6.6      5.265      7.074
REMARK  Name = 
REMARK  5 active torsions:
REMARK  status: ('A' for Active; 'I' for Inactive)
REMARK    1  A    between atoms: C_1  and  C_2
REMARK    2  A    between atoms: N_5  and  C_6
REMARK    3  A    between atoms: N_9  and  S_10
REMARK    4  A    between atoms: S_10  and  C_13
REMARK    5  A    between atoms: N_17  and  C_18
REMARK                            x       y       z     vdW  Elec       q    Type
REMARK                         _______ _______ _______ _____ _____    ______ ____
ROOT
ATOM      1  C   UNL     1       2.609   5.951  19.110  0.00  0.00    +0.000 C 
ATOM      2  C   UNL     1       2.531   6.597  20.495  0.00  0.00    +0.000 C 
ATOM      3  C   UNL     1       1.602   7.787  20.588  0.00  0.00    +0.000 C 
ATOM      4  N   UNL     1       1.742   8.784  19.497  0.00  0.00    +0.000 NA
ATOM      5  C   UNL     1       2.208   8.335  18.165  0.00  0.00    +0.000 C 
ATOM      6  C   UNL     1       3.027   7.061  18.142  0.00  0.00    +0.000 C 
ENDROOT
BRANCH   1  11
ATOM      7  C   UNL     1       3.716   1.481  18.701  0.00  0.00    +0.000 C 
ATOM      8  C   UNL     1       2.344   2.167  18.637  0.00  0.00    +0.000 C 
ATOM      9  C   UNL     1       2.269   3.064  17.392  0.00  0.00    +0.000 C 
ATOM     10  C   UNL     1       1.413   4.314  17.531  0.00  0.00    +0.000 C 
ATOM     11  N   UNL     1       1.524   5.003  18.806  0.00  0.00    +0.000 NA
ATOM     12  C   UNL     1       1.161   4.086  19.888  0.00  0.00    +0.000 C 
ATOM     13  C   UNL     1       2.060   2.861  19.979  0.00  0.00    +0.000 C 
ENDBRANCH   1  11
BRANCH   4  14
ATOM     14  S   UNL     1       0.360   9.827  19.363  0.00  0.00    +0.000 S 
ATOM     15  O   UNL     1       0.015   9.897  17.962  0.00  0.00    +0.000 OA
ATOM     16  O   UNL     1      -0.618   9.410  20.349  0.00  0.00    +0.000 OA
BRANCH  14  17
ATOM     17  C   UNL     1       0.859  11.465  19.854  0.00  0.00    +0.000 A 
ATOM     18  N   UNL     1       0.396  12.095  20.928  0.00  0.00    +0.000 NA
ATOM     19  C   UNL     1       1.075  13.275  21.006  0.00  0.00    +0.000 A 
ATOM     20  C   UNL     1       1.967  13.386  19.968  0.00  0.00    +0.000 A 
ATOM     21  N   UNL     1       1.788  12.253  19.218  0.00  0.00    +0.000 N 
ATOM     22  C   UNL     1       2.479  11.967  17.983  0.00  0.00    +0.000 C 
ENDBRANCH  14  17
ENDBRANCH   4  14
TORSDOF 3
ENDMDL
MODEL 6
REMARK VINA RESULT:      -6.6      2.940      4.915
REMARK  Name = 
REMARK  5 active torsions:
REMARK  status: ('A' for Active; 'I' for Inactive)
REMARK    1  A    between atoms: C_1  and  C_2
REMARK    2  A    between atoms: N_5  and  C_6
REMARK    3  A    between atoms: N_9  and  S_10
REMARK    4  A    between atoms: S_10  and  C_13
REMARK    5  A    between atoms: N_17  and  C_18
REMARK                            x       y       z     vdW  Elec       q    Type
REMARK                         _______ _______ _______ _____ _____    ______ ____
ROOT
ATOM      1  C   UNL     1       1.409   6.014  19.369  0.00  0.00    +0.000 C 
ATOM      2  C   UNL     1       1.510   5.034  20.541  0.00  0.00    +0.000 C 
ATOM      3  C   UNL     1       2.678   4.076  20.468  0.00  0.00    +0.000 C 
ATOM      4  N   UNL     1       2.873   3.419  19.152  0.00  0.00    +0.000 NA
ATOM      5  C   UNL     1       2.438   4.121  17.922  0.00  0.00    +0.000 C 
ATOM      6  C   UNL     1       1.351   5.160  18.100  0.00  0.00    +0.000 C 
ENDROOT
BRANCH   1  11
ATOM      7  C   UNL     1      -0.419  10.094  18.191  0.00  0.00    +0.000 C 
ATOM      8  C   UNL     1       0.965   9.763  18.766  0.00  0.00    +0.000 C 
ATOM      9  C   UNL     1       1.773   8.951  17.743  0.00  0.00    +0.000 C 
ATOM     10  C   UNL     1       2.751   7.942  18.326  0.00  0.00    +0.000 C 
ATOM     11  N   UNL     1       2.267   7.206  19.483  0.00  0.00    +0.000 NA
ATOM     12  C   UNL     1       1.906   8.148  20.543  0.00  0.00    +0.000 C 
ATOM     13  C   UNL     1       0.798   9.116  20.151  0.00  0.00    +0.000 C 
ENDBRANCH   1  11
BRANCH   4  14
ATOM     14  S   UNL     1       4.467   2.753  18.966  0.00  0.00    +0.000 S 
ATOM     15  O   UNL     1       4.847   2.198  20.245  0.00  0.00    +0.000 OA
ATOM     16  O   UNL     1       4.478   1.937  17.768  0.00  0.00    +0.000 OA
BRANCH  14  17
ATOM     17  C   UNL     1       5.587   4.098  18.634  0.00  0.00    +0.000 A 
ATOM     18  N   UNL     1       6.153   4.847  19.574  0.00  0.00    +0.000 NA
ATOM     19  C   UNL     1       6.997   5.702  18.929  0.00  0.00    +0.000 A 
ATOM     20  C   UNL     1       6.954   5.491  17.574  0.00  0.00    +0.000 A 
ATOM     21  N   UNL     1       6.022   4.502  17.395  0.00  0.00    +0.000 N 
ATOM     22  C   UNL     1       5.600   3.993  16.111  0.00  0.00    +0.000 C 
ENDBRANCH  14  17
ENDBRANCH   4  14
TORSDOF 3
ENDMDL
MODEL 7
REMARK VINA RESULT:      -6.5      1.544      1.919
REMARK  Name = 
REMARK  5 active torsions:
REMARK  status: ('A' for Active; 'I' for Inactive)
REMARK    1  A    between atoms: C_1  and  C_2
REMARK    2  A    between atoms: N_5  and  C_6
REMARK    3  A    between atoms: N_9  and  S_10
REMARK    4  A    between atoms: S_10  and  C_13
REMARK    5  A    between atoms: N_17  and  C_18
REMARK                            x       y       z     vdW  Elec       q    Type
REMARK                         _______ _______ _______ _____ _____    ______ ____
ROOT
ATOM      1  C   UNL     1       3.546   6.323  18.345  0.00  0.00    +0.000 C 
ATOM      2  C   UNL     1       3.934   6.937  16.997  0.00  0.00    +0.000 C 
ATOM      3  C   UNL     1       4.911   6.117  16.184  0.00  0.00    +0.000 C 
ATOM      4  N   UNL     1       6.081   5.601  16.938  0.00  0.00    +0.000 NA
ATOM      5  C   UNL     1       5.944   5.331  18.388  0.00  0.00    +0.000 C 
ATOM      6  C   UNL     1       4.855   6.100  19.107  0.00  0.00    +0.000 C 
ENDROOT
BRANCH   1  11
ATOM      7  C   UNL     1       4.409   2.198  20.246  0.00  0.00    +0.000 C 
ATOM      8  C   UNL     1       3.129   2.732  19.588  0.00  0.00    +0.000 C 
ATOM      9  C   UNL     1       3.373   2.961  18.088  0.00  0.00    +0.000 C 
ATOM     10  C   UNL     1       2.592   4.107  17.461  0.00  0.00    +0.000 C 
ATOM     11  N   UNL     1       2.484   5.305  18.278  0.00  0.00    +0.000 NA
ATOM     12  C   UNL     1       1.846   4.969  19.552  0.00  0.00    +0.000 C 
ATOM     13  C   UNL     1       2.622   3.951  20.376  0.00  0.00    +0.000 C 
ENDBRANCH   1  11
BRANCH   4  14
ATOM     14  S   UNL     1       6.873   4.286  16.125  0.00  0.00    +0.000 S 
ATOM     15  O   UNL     1       8.133   4.069  16.795  0.00  0.00    +0.000 OA
ATOM     16  O   UNL     1       5.916   3.208  15.973  0.00  0.00    +0.000 OA
BRANCH  14  17
ATOM     17  C   UNL     1       7.254   4.817  14.468  0.00  0.00    +0.000 A 
ATOM     18  N   UNL     1       8.219   5.679  14.165  0.00  0.00    +0.000 NA
ATOM     19  C   UNL     1       8.249   5.761  12.804  0.00  0.00    +0.000 A 
ATOM     20  C   UNL     1       7.291   4.947  12.251  0.00  0.00    +0.000 A 
ATOM     21  N   UNL     1       6.636   4.389  13.318  0.00  0.00    +0.000 N 
ATOM     22  C   UNL     1       5.501   3.502  13.213  0.00  0.00    +0.000 C 
ENDBRANCH  14  17
ENDBRANCH   4  14
TORSDOF 3
ENDMDL
MODEL 8
REMARK VINA RESULT:      -6.5      2.539      3.367
REMARK  Name = 
REMARK  5 active torsions:
REMARK  status: ('A' for Active; 'I' for Inactive)
REMARK    1  A    between atoms: C_1  and  C_2
REMARK    2  A    between atoms: N_5  and  C_6
REMARK    3  A    between atoms: N_9  and  S_10
REMARK    4  A    between atoms: S_10  and  C_13
REMARK    5  A    between atoms: N_17  and  C_18
REMARK                            x       y       z     vdW  Elec       q    Type
REMARK                         _______ _______ _______ _____ _____    ______ ____
ROOT
ATOM      1  C   UNL     1       1.745   5.014  19.937  0.00  0.00    +0.000 C 
ATOM      2  C   UNL     1       2.060   6.415  19.407  0.00  0.00    +0.000 C 
ATOM      3  C   UNL     1       3.274   6.495  18.509  0.00  0.00    +0.000 C 
ATOM      4  N   UNL     1       4.478   5.788  19.013  0.00  0.00    +0.000 NA
ATOM      5  C   UNL     1       4.308   4.608  19.892  0.00  0.00    +0.000 C 
ATOM      6  C   UNL     1       3.006   4.537  20.662  0.00  0.00    +0.000 C 
ENDROOT
BRANCH   1  11
ATOM      7  C   UNL     1       3.970   1.422  18.061  0.00  0.00    +0.000 C 
ATOM      8  C   UNL     1       2.503   1.852  17.927  0.00  0.00    +0.000 C 
ATOM      9  C   UNL     1       2.421   3.190  17.177  0.00  0.00    +0.000 C 
ATOM     10  C   UNL     1       1.272   4.103  17.581  0.00  0.00    +0.000 C 
ATOM     11  N   UNL     1       0.993   4.154  19.007  0.00  0.00    +0.000 NA
ATOM     12  C   UNL     1       0.690   2.807  19.493  0.00  0.00    +0.000 C 
ATOM     13  C   UNL     1       1.835   1.819  19.311  0.00  0.00    +0.000 C 
ENDBRANCH   1  11
BRANCH   4  14
ATOM     14  S   UNL     1       5.643   5.479  17.762  0.00  0.00    +0.000 S 
ATOM     15  O   UNL     1       6.279   4.220  18.075  0.00  0.00    +0.000 OA
ATOM     16  O   UNL     1       4.996   5.687  16.482  0.00  0.00    +0.000 OA
BRANCH  14  17
ATOM     17  C   UNL     1       6.904   6.734  17.865  0.00  0.00    +0.000 A 
ATOM     18  N   UNL     1       6.973   7.789  17.060  0.00  0.00    +0.000 NA
ATOM     19  C   UNL     1       8.015   8.547  17.508  0.00  0.00    +0.000 A 
ATOM     20  C   UNL     1       8.605   7.958  18.598  0.00  0.00    +0.000 A 
ATOM     21  N   UNL     1       7.921   6.786  18.787  0.00  0.00    +0.000 N 
ATOM     22  C   UNL     1       8.239   5.802  19.795  0.00  0.00    +0.000 C 
ENDBRANCH  14  17
ENDBRANCH   4  14
TORSDOF 3
ENDMDL
MODEL 9
REMARK VINA RESULT:      -6.4      2.811      4.742
REMARK  Name = 
REMARK  5 active torsions:
REMARK  status: ('A' for Active; 'I' for Inactive)
REMARK    1  A    between atoms: C_1  and  C_2
REMARK    2  A    between atoms: N_5  and  C_6
REMARK    3  A    between atoms: N_9  and  S_10
REMARK    4  A    between atoms: S_10  and  C_13
REMARK    5  A    between atoms: N_17  and  C_18
REMARK                            x       y       z     vdW  Elec       q    Type
REMARK                         _______ _______ _______ _____ _____    ______ ____
ROOT
ATOM      1  C   UNL     1       1.378   5.866  19.375  0.00  0.00    +0.000 C 
ATOM      2  C   UNL     1       1.489   4.822  20.488  0.00  0.00    +0.000 C 
ATOM      3  C   UNL     1       2.614   3.825  20.314  0.00  0.00    +0.000 C 
ATOM      4  N   UNL     1       2.726   3.233  18.958  0.00  0.00    +0.000 NA
ATOM      5  C   UNL     1       2.268   4.017  17.787  0.00  0.00    +0.000 C 
ATOM      6  C   UNL     1       1.232   5.085  18.067  0.00  0.00    +0.000 C 
ENDROOT
BRANCH   1  11
ATOM      7  C   UNL     1      -0.223  10.027  18.150  0.00  0.00    +0.000 C 
ATOM      8  C   UNL     1       1.127   9.632  18.763  0.00  0.00    +0.000 C 
ATOM      9  C   UNL     1       1.924   8.782  17.761  0.00  0.00    +0.000 C 
ATOM     10  C   UNL     1       2.837   7.728  18.370  0.00  0.00    +0.000 C 
ATOM     11  N   UNL     1       2.288   7.017  19.513  0.00  0.00    +0.000 NA
ATOM     12  C   UNL     1       1.943   7.976  20.564  0.00  0.00    +0.000 C 
ATOM     13  C   UNL     1       0.893   8.994  20.142  0.00  0.00    +0.000 C 
ENDBRANCH   1  11
BRANCH   4  14
ATOM     14  S   UNL     1       4.282   2.518  18.667  0.00  0.00    +0.000 S 
ATOM     15  O   UNL     1       4.977   2.484  19.933  0.00  0.00    +0.000 OA
ATOM     16  O   UNL     1       4.085   1.308  17.894  0.00  0.00    +0.000 OA
BRANCH  14  17
ATOM     17  C   UNL     1       5.199   3.615  17.604  0.00  0.00    +0.000 A 
ATOM     18  N   UNL     1       5.439   3.380  16.319  0.00  0.00    +0.000 NA
ATOM     19  C   UNL     1       6.089   4.479  15.841  0.00  0.00    +0.000 A 
ATOM     20  C   UNL     1       6.262   5.407  16.837  0.00  0.00    +0.000 A 
ATOM     21  N   UNL     1       5.735   4.828  17.962  0.00  0.00    +0.000 N 
ATOM     22  C   UNL     1       5.751   5.424  19.278  0.00  0.00    +0.000 C 
ENDBRANCH  14  17
ENDBRANCH   4  14
TORSDOF 3
ENDMDL
