MODEL 1
REMARK VINA RESULT:      -8.1      0.000      0.000
REMARK  Name = 
REMARK  6 active torsions:
REMARK  status: ('A' for Active; 'I' for Inactive)
REMARK    1  A    between atoms: C_1  and  C_2
REMARK    2  A    between atoms: C_2  and  C_3
REMARK    3  A    between atoms: C_2  and  C_4
REMARK    4  A    between atoms: C_4  and  N_5
REMARK    5  A    between atoms: C_13  and  C_14
REMARK    6  A    between atoms: C_14  and  C_15
REMARK                            x       y       z     vdW  Elec       q    Type
REMARK                         _______ _______ _______ _____ _____    ______ ____
ROOT
ATOM      1  N   UNL     1       3.717   4.460  19.679  0.00  0.00    +0.000 N 
ATOM      2  C   UNL     1       4.782   3.607  19.388  0.00  0.00    +0.000 A 
ATOM      3  O   UNL     1       5.014   2.561  19.993  0.00  0.00    +0.000 OA
ATOM      4  N   UNL     1       5.623   3.973  18.351  0.00  0.00    +0.000 N 
ATOM      5  C   UNL     1       5.532   5.096  17.560  0.00  0.00    +0.000 A 
ATOM      6  O   UNL     1       6.326   5.350  16.662  0.00  0.00    +0.000 OA
ATOM      7  C   UNL     1       4.427   5.905  17.908  0.00  0.00    +0.000 A 
ATOM      8  N   UNL     1       3.975   7.077  17.379  0.00  0.00    +0.000 N 
ATOM      9  C   UNL     1       2.848   7.430  18.091  0.00  0.00    +0.000 A 
ATOM     10  N   UNL     1       2.594   6.544  19.042  0.00  0.00    +0.000 NA
ATOM     11  C   UNL     1       3.568   5.603  18.922  0.00  0.00    +0.000 A 
ATOM     12  H   UNL     1       6.389   3.346  18.163  0.00  0.00    +0.000 HD
ATOM     13  H   UNL     1       4.390   7.585  16.609  0.00  0.00    +0.000 HD
ENDROOT
BRANCH   1  14
ATOM     14  C   UNL     1       2.805   4.151  20.783  0.00  0.00    +0.000 C 
BRANCH  14  16
ATOM     15  C   UNL     1       1.338   2.370  21.842  0.00  0.00    +0.000 C 
ATOM     16  C   UNL     1       1.910   2.921  20.536  0.00  0.00    +0.000 C 
ATOM     17  C   UNL     1       0.776   3.266  19.569  0.00  0.00    +0.000 C 
ENDBRANCH  14  16
ENDBRANCH   1  14
BRANCH   9  18
ATOM     18  C   UNL     1       2.056   8.658  17.778  0.00  0.00    +0.000 C 
BRANCH  18  19
ATOM     19  C   UNL     1       1.301   9.198  18.972  0.00  0.00    +0.000 A 
ATOM     20  C   UNL     1       1.490   8.652  20.249  0.00  0.00    +0.000 A 
ATOM     21  C   UNL     1       0.823   9.188  21.354  0.00  0.00    +0.000 A 
ATOM     22  C   UNL     1      -0.037  10.272  21.186  0.00  0.00    +0.000 A 
ATOM     23 BR   UNL     1      -0.917  11.013  22.686  0.00  0.00    +0.000 Br
ATOM     24  C   UNL     1      -0.245  10.820  19.923  0.00  0.00    +0.000 A 
ATOM     25  C   UNL     1       0.424  10.284  18.821  0.00  0.00    +0.000 A 
ENDBRANCH  18  19
ENDBRANCH   9  18
TORSDOF 4
ENDMDL
MODEL 2
REMARK VINA RESULT:      -8.1      0.189      1.023
REMARK  Name = 
REMARK  6 active torsions:
REMARK  status: ('A' for Active; 'I' for Inactive)
REMARK    1  A    between atoms: C_1  and  C_2
REMARK    2  A    between atoms: C_2  and  C_3
REMARK    3  A    between atoms: C_2  and  C_4
REMARK    4  A    between atoms: C_4  and  N_5
REMARK    5  A    between atoms: C_13  and  C_14
REMARK    6  A    between atoms: C_14  and  C_15
REMARK                            x       y       z     vdW  Elec       q    Type
REMARK                         _______ _______ _______ _____ _____    ______ ____
ROOT
ATOM      1  N   UNL     1       3.708   4.559  19.628  0.00  0.00    +0.000 N 
ATOM      2  C   UNL     1       4.778   3.733  19.286  0.00  0.00    +0.000 A 
ATOM      3  O   UNL     1       5.055   2.683  19.867  0.00  0.00    +0.000 OA
ATOM      4  N   UNL     1       5.573   4.130  18.224  0.00  0.00    +0.000 N 
ATOM      5  C   UNL     1       5.430   5.261  17.452  0.00  0.00    +0.000 A 
ATOM      6  O   UNL     1       6.185   5.543  16.529  0.00  0.00    +0.000 OA
ATOM      7  C   UNL     1       4.322   6.042  17.853  0.00  0.00    +0.000 A 
ATOM      8  N   UNL     1       3.827   7.211  17.357  0.00  0.00    +0.000 N 
ATOM      9  C   UNL     1       2.721   7.531  18.114  0.00  0.00    +0.000 A 
ATOM     10  N   UNL     1       2.519   6.628  19.062  0.00  0.00    +0.000 NA
ATOM     11  C   UNL     1       3.508   5.709  18.893  0.00  0.00    +0.000 A 
ATOM     12  H   UNL     1       6.344   3.522  17.999  0.00  0.00    +0.000 HD
ATOM     13  H   UNL     1       4.203   7.738  16.579  0.00  0.00    +0.000 HD
ENDROOT
BRANCH   1  14
ATOM     14  C   UNL     1       2.844   4.216  20.760  0.00  0.00    +0.000 C 
BRANCH  14  16
ATOM     15  C   UNL     1       1.390   2.424  21.818  0.00  0.00    +0.000 C 
ATOM     16  C   UNL     1       1.927   3.003  20.509  0.00  0.00    +0.000 C 
ATOM     17  C   UNL     1       0.767   3.388  19.589  0.00  0.00    +0.000 C 
ENDBRANCH  14  16
ENDBRANCH   1  14
BRANCH   9  18
ATOM     18  C   UNL     1       1.893   8.746  17.849  0.00  0.00    +0.000 C 
BRANCH  18  19
ATOM     19  C   UNL     1       1.210   9.283  19.087  0.00  0.00    +0.000 A 
ATOM     20  C   UNL     1       0.235  10.285  18.993  0.00  0.00    +0.000 A 
ATOM     21  C   UNL     1      -0.423  10.743  20.137  0.00  0.00    +0.000 A 
ATOM     22  C   UNL     1      -0.108  10.200  21.382  0.00  0.00    +0.000 A 
ATOM     23 BR   UNL     1      -1.021  10.800  22.925  0.00  0.00    +0.000 Br
ATOM     24  C   UNL     1       0.865   9.211  21.496  0.00  0.00    +0.000 A 
ATOM     25  C   UNL     1       1.520   8.754  20.351  0.00  0.00    +0.000 A 
ENDBRANCH  18  19
ENDBRANCH   9  18
TORSDOF 4
ENDMDL
MODEL 3
REMARK VINA RESULT:      -8.0      0.888      1.433
REMARK  Name = 
REMARK  6 active torsions:
REMARK  status: ('A' for Active; 'I' for Inactive)
REMARK    1  A    between atoms: C_1  and  C_2
REMARK    2  A    between atoms: C_2  and  C_3
REMARK    3  A    between atoms: C_2  and  C_4
REMARK    4  A    between atoms: C_4  and  N_5
REMARK    5  A    between atoms: C_13  and  C_14
REMARK    6  A    between atoms: C_14  and  C_15
REMARK                            x       y       z     vdW  Elec       q    Type
REMARK                         _______ _______ _______ _____ _____    ______ ____
ROOT
ATOM      1  N   UNL     1       3.177   3.725  18.937  0.00  0.00    +0.000 N 
ATOM      2  C   UNL     1       4.327   2.969  19.164  0.00  0.00    +0.000 A 
ATOM      3  O   UNL     1       4.322   1.782  19.488  0.00  0.00    +0.000 OA
ATOM      4  N   UNL     1       5.547   3.608  19.013  0.00  0.00    +0.000 N 
ATOM      5  C   UNL     1       5.763   4.921  18.659  0.00  0.00    +0.000 A 
ATOM      6  O   UNL     1       6.881   5.412  18.553  0.00  0.00    +0.000 OA
ATOM      7  C   UNL     1       4.554   5.619  18.439  0.00  0.00    +0.000 A 
ATOM      8  N   UNL     1       4.322   6.909  18.068  0.00  0.00    +0.000 N 
ATOM      9  C   UNL     1       2.955   7.063  17.985  0.00  0.00    +0.000 A 
ATOM     10  N   UNL     1       2.333   5.938  18.303  0.00  0.00    +0.000 NA
ATOM     11  C   UNL     1       3.324   5.049  18.578  0.00  0.00    +0.000 A 
ATOM     12  H   UNL     1       6.364   3.045  19.189  0.00  0.00    +0.000 HD
ATOM     13  H   UNL     1       5.024   7.615  17.885  0.00  0.00    +0.000 HD
ENDROOT
BRANCH   1  14
ATOM     14  C   UNL     1       1.854   3.123  19.109  0.00  0.00    +0.000 C 
BRANCH  14  16
ATOM     15  C   UNL     1       1.622   2.476  21.553  0.00  0.00    +0.000 C 
ATOM     16  C   UNL     1       1.183   3.447  20.458  0.00  0.00    +0.000 C 
ATOM     17  C   UNL     1       1.487   4.886  20.878  0.00  0.00    +0.000 C 
ENDBRANCH  14  16
ENDBRANCH   1  14
BRANCH   9  18
ATOM     18  C   UNL     1       2.317   8.351  17.577  0.00  0.00    +0.000 C 
BRANCH  18  19
ATOM     19  C   UNL     1       1.608   9.050  18.715  0.00  0.00    +0.000 A 
ATOM     20  C   UNL     1       0.876  10.225  18.493  0.00  0.00    +0.000 A 
ATOM     21  C   UNL     1       0.186  10.838  19.542  0.00  0.00    +0.000 A 
ATOM     22  C   UNL     1       0.224  10.279  20.818  0.00  0.00    +0.000 A 
ATOM     23 BR   UNL     1      -0.734  11.095  22.229  0.00  0.00    +0.000 Br
ATOM     24  C   UNL     1       0.954   9.118  21.059  0.00  0.00    +0.000 A 
ATOM     25  C   UNL     1       1.641   8.506  20.010  0.00  0.00    +0.000 A 
ENDBRANCH  18  19
ENDBRANCH   9  18
TORSDOF 4
ENDMDL
MODEL 4
REMARK VINA RESULT:      -8.0      0.945      1.131
REMARK  Name = 
REMARK  6 active torsions:
REMARK  status: ('A' for Active; 'I' for Inactive)
REMARK    1  A    between atoms: C_1  and  C_2
REMARK    2  A    between atoms: C_2  and  C_3
REMARK    3  A    between atoms: C_2  and  C_4
REMARK    4  A    between atoms: C_4  and  N_5
REMARK    5  A    between atoms: C_13  and  C_14
REMARK    6  A    between atoms: C_14  and  C_15
REMARK                            x       y       z     vdW  Elec       q    Type
REMARK                         _______ _______ _______ _____ _____    ______ ____
ROOT
ATOM      1  N   UNL     1       2.726   3.746  18.413  0.00  0.00    +0.000 N 
ATOM      2  C   UNL     1       3.767   2.828  18.268  0.00  0.00    +0.000 A 
ATOM      3  O   UNL     1       3.655   1.619  18.470  0.00  0.00    +0.000 OA
ATOM      4  N   UNL     1       4.999   3.322  17.872  0.00  0.00    +0.000 N 
ATOM      5  C   UNL     1       5.324   4.631  17.598  0.00  0.00    +0.000 A 
ATOM      6  O   UNL     1       6.446   4.986  17.257  0.00  0.00    +0.000 OA
ATOM      7  C   UNL     1       4.220   5.499  17.759  0.00  0.00    +0.000 A 
ATOM      8  N   UNL     1       4.108   6.845  17.581  0.00  0.00    +0.000 N 
ATOM      9  C   UNL     1       2.801   7.180  17.863  0.00  0.00    +0.000 A 
ATOM     10  N   UNL     1       2.107   6.111  18.223  0.00  0.00    +0.000 NA
ATOM     11  C   UNL     1       2.986   5.076  18.153  0.00  0.00    +0.000 A 
ATOM     12  H   UNL     1       5.737   2.642  17.780  0.00  0.00    +0.000 HD
ATOM     13  H   UNL     1       4.846   7.474  17.292  0.00  0.00    +0.000 HD
ENDROOT
BRANCH   1  14
ATOM     14  C   UNL     1       1.405   3.299  18.859  0.00  0.00    +0.000 C 
BRANCH  14  16
ATOM     15  C   UNL     1       1.765   2.294  21.162  0.00  0.00    +0.000 C 
ATOM     16  C   UNL     1       1.163   3.456  20.372  0.00  0.00    +0.000 C 
ATOM     17  C   UNL     1       1.735   4.784  20.873  0.00  0.00    +0.000 C 
ENDBRANCH  14  16
ENDBRANCH   1  14
BRANCH   9  18
ATOM     18  C   UNL     1       2.291   8.580  17.753  0.00  0.00    +0.000 C 
BRANCH  18  19
ATOM     19  C   UNL     1       1.518   9.029  18.973  0.00  0.00    +0.000 A 
ATOM     20  C   UNL     1       1.689   8.389  20.208  0.00  0.00    +0.000 A 
ATOM     21  C   UNL     1       1.005   8.841  21.340  0.00  0.00    +0.000 A 
ATOM     22  C   UNL     1       0.147   9.935  21.241  0.00  0.00    +0.000 A 
ATOM     23 BR   UNL     1      -0.755  10.561  22.780  0.00  0.00    +0.000 Br
ATOM     24  C   UNL     1      -0.043  10.576  20.020  0.00  0.00    +0.000 A 
ATOM     25  C   UNL     1       0.643  10.125  18.891  0.00  0.00    +0.000 A 
ENDBRANCH  18  19
ENDBRANCH   9  18
TORSDOF 4
ENDMDL
MODEL 5
REMARK VINA RESULT:      -8.0      1.519      3.307
REMARK  Name = 
REMARK  6 active torsions:
REMARK  status: ('A' for Active; 'I' for Inactive)
REMARK    1  A    between atoms: C_1  and  C_2
REMARK    2  A    between atoms: C_2  and  C_3
REMARK    3  A    between atoms: C_2  and  C_4
REMARK    4  A    between atoms: C_4  and  N_5
REMARK    5  A    between atoms: C_13  and  C_14
REMARK    6  A    between atoms: C_14  and  C_15
REMARK                            x       y       z     vdW  Elec       q    Type
REMARK                         _______ _______ _______ _____ _____    ______ ____
ROOT
ATOM      1  N   UNL     1       4.724   4.563  19.133  0.00  0.00    +0.000 N 
ATOM      2  C   UNL     1       4.452   3.209  19.332  0.00  0.00    +0.000 A 
ATOM      3  O   UNL     1       5.289   2.381  19.689  0.00  0.00    +0.000 OA
ATOM      4  N   UNL     1       3.153   2.782  19.108  0.00  0.00    +0.000 N 
ATOM      5  C   UNL     1       2.081   3.548  18.707  0.00  0.00    +0.000 A 
ATOM      6  O   UNL     1       0.960   3.088  18.526  0.00  0.00    +0.000 OA
ATOM      7  C   UNL     1       2.431   4.906  18.535  0.00  0.00    +0.000 A 
ATOM      8  N   UNL     1       1.681   5.982  18.165  0.00  0.00    +0.000 N 
ATOM      9  C   UNL     1       2.521   7.075  18.166  0.00  0.00    +0.000 A 
ATOM     10  N   UNL     1       3.753   6.724  18.501  0.00  0.00    +0.000 NA
ATOM     11  C   UNL     1       3.691   5.385  18.731  0.00  0.00    +0.000 A 
ATOM     12  H   UNL     1       2.982   1.800  19.251  0.00  0.00    +0.000 HD
ATOM     13  H   UNL     1       0.695   5.975  17.937  0.00  0.00    +0.000 HD
ENDROOT
BRANCH   1  14
ATOM     14  C   UNL     1       6.082   5.077  19.321  0.00  0.00    +0.000 C 
BRANCH  14  16
ATOM     15  C   UNL     1       7.718   6.750  18.335  0.00  0.00    +0.000 C 
ATOM     16  C   UNL     1       6.735   5.619  18.034  0.00  0.00    +0.000 C 
ATOM     17  C   UNL     1       7.443   4.494  17.277  0.00  0.00    +0.000 C 
ENDBRANCH  14  16
ENDBRANCH   1  14
BRANCH   9  18
ATOM     18  C   UNL     1       2.044   8.451  17.833  0.00  0.00    +0.000 C 
BRANCH  18  19
ATOM     19  C   UNL     1       1.277   9.105  18.960  0.00  0.00    +0.000 A 
ATOM     20  C   UNL     1       1.458   8.691  20.287  0.00  0.00    +0.000 A 
ATOM     21  C   UNL     1       0.780   9.332  21.328  0.00  0.00    +0.000 A 
ATOM     22  C   UNL     1      -0.083  10.390  21.045  0.00  0.00    +0.000 A 
ATOM     23 BR   UNL     1      -0.977  11.273  22.457  0.00  0.00    +0.000 Br
ATOM     24  C   UNL     1      -0.282  10.807  19.732  0.00  0.00    +0.000 A 
ATOM     25  C   UNL     1       0.397  10.167  18.694  0.00  0.00    +0.000 A 
ENDBRANCH  18  19
ENDBRANCH   9  18
TORSDOF 4
ENDMDL
MODEL 6
REMARK VINA RESULT:      -7.9      0.878      1.095
REMARK  Name = 
REMARK  6 active torsions:
REMARK  status: ('A' for Active; 'I' for Inactive)
REMARK    1  A    between atoms: C_1  and  C_2
REMARK    2  A    between atoms: C_2  and  C_3
REMARK    3  A    between atoms: C_2  and  C_4
REMARK    4  A    between atoms: C_4  and  N_5
REMARK    5  A    between atoms: C_13  and  C_14
REMARK    6  A    between atoms: C_14  and  C_15
REMARK                            x       y       z     vdW  Elec       q    Type
REMARK                         _______ _______ _______ _____ _____    ______ ____
ROOT
ATOM      1  N   UNL     1       3.663   3.934  19.460  0.00  0.00    +0.000 N 
ATOM      2  C   UNL     1       4.902   3.293  19.490  0.00  0.00    +0.000 A 
ATOM      3  O   UNL     1       5.087   2.167  19.952  0.00  0.00    +0.000 OA
ATOM      4  N   UNL     1       5.985   3.980  18.965  0.00  0.00    +0.000 N 
ATOM      5  C   UNL     1       5.983   5.238  18.408  0.00  0.00    +0.000 A 
ATOM      6  O   UNL     1       6.992   5.778  17.969  0.00  0.00    +0.000 OA
ATOM      7  C   UNL     1       4.695   5.818  18.405  0.00  0.00    +0.000 A 
ATOM      8  N   UNL     1       4.259   7.024  17.944  0.00  0.00    +0.000 N 
ATOM      9  C   UNL     1       2.902   7.077  18.181  0.00  0.00    +0.000 A 
ATOM     10  N   UNL     1       2.484   5.973  18.781  0.00  0.00    +0.000 NA
ATOM     11  C   UNL     1       3.593   5.198  18.913  0.00  0.00    +0.000 A 
ATOM     12  H   UNL     1       6.870   3.501  19.004  0.00  0.00    +0.000 HD
ATOM     13  H   UNL     1       4.826   7.739  17.507  0.00  0.00    +0.000 HD
ENDROOT
BRANCH   1  14
ATOM     14  C   UNL     1       2.482   3.279  20.026  0.00  0.00    +0.000 C 
BRANCH  14  16
ATOM     15  C   UNL     1       0.298   2.644  18.897  0.00  0.00    +0.000 C 
ATOM     16  C   UNL     1       1.779   2.303  19.062  0.00  0.00    +0.000 C 
ATOM     17  C   UNL     1       2.473   2.300  17.699  0.00  0.00    +0.000 C 
ENDBRANCH  14  16
ENDBRANCH   1  14
BRANCH   9  18
ATOM     18  C   UNL     1       2.065   8.249  17.784  0.00  0.00    +0.000 C 
BRANCH  18  19
ATOM     19  C   UNL     1       1.340   8.884  18.950  0.00  0.00    +0.000 A 
ATOM     20  C   UNL     1       1.577   8.456  20.263  0.00  0.00    +0.000 A 
ATOM     21  C   UNL     1       0.937   9.079  21.338  0.00  0.00    +0.000 A 
ATOM     22  C   UNL     1       0.057  10.135  21.103  0.00  0.00    +0.000 A 
ATOM     23 BR   UNL     1      -0.785  10.995  22.560  0.00  0.00    +0.000 Br
ATOM     24  C   UNL     1      -0.198  10.567  19.804  0.00  0.00    +0.000 A 
ATOM     25  C   UNL     1       0.444   9.944  18.732  0.00  0.00    +0.000 A 
ENDBRANCH  18  19
ENDBRANCH   9  18
TORSDOF 4
ENDMDL
MODEL 7
REMARK VINA RESULT:      -7.9      2.019      4.094
REMARK  Name = 
REMARK  6 active torsions:
REMARK  status: ('A' for Active; 'I' for Inactive)
REMARK    1  A    between atoms: C_1  and  C_2
REMARK    2  A    between atoms: C_2  and  C_3
REMARK    3  A    between atoms: C_2  and  C_4
REMARK    4  A    between atoms: C_4  and  N_5
REMARK    5  A    between atoms: C_13  and  C_14
REMARK    6  A    between atoms: C_14  and  C_15
REMARK                            x       y       z     vdW  Elec       q    Type
REMARK                         _______ _______ _______ _____ _____    ______ ____
ROOT
ATOM      1  N   UNL     1       5.290   5.396  17.258  0.00  0.00    +0.000 N 
ATOM      2  C   UNL     1       5.649   4.219  16.600  0.00  0.00    +0.000 A 
ATOM      3  O   UNL     1       6.577   4.133  15.796  0.00  0.00    +0.000 OA
ATOM      4  N   UNL     1       4.906   3.084  16.877  0.00  0.00    +0.000 N 
ATOM      5  C   UNL     1       3.839   2.976  17.740  0.00  0.00    +0.000 A 
ATOM      6  O   UNL     1       3.229   1.929  17.924  0.00  0.00    +0.000 OA
ATOM      7  C   UNL     1       3.540   4.203  18.373  0.00  0.00    +0.000 A 
ATOM      8  N   UNL     1       2.585   4.526  19.291  0.00  0.00    +0.000 N 
ATOM      9  C   UNL     1       2.746   5.864  19.583  0.00  0.00    +0.000 A 
ATOM     10  N   UNL     1       3.738   6.385  18.879  0.00  0.00    +0.000 NA
ATOM     11  C   UNL     1       4.228   5.355  18.138  0.00  0.00    +0.000 A 
ATOM     12  H   UNL     1       5.179   2.248  16.386  0.00  0.00    +0.000 HD
ATOM     13  H   UNL     1       1.895   3.898  19.683  0.00  0.00    +0.000 HD
ENDROOT
BRANCH   1  14
ATOM     14  C   UNL     1       6.012   6.641  16.989  0.00  0.00    +0.000 C 
BRANCH  14  16
ATOM     15  C   UNL     1       7.940   8.118  17.728  0.00  0.00    +0.000 C 
ATOM     16  C   UNL     1       7.436   6.683  17.577  0.00  0.00    +0.000 C 
ATOM     17  C   UNL     1       7.483   5.964  18.926  0.00  0.00    +0.000 C 
ENDBRANCH  14  16
ENDBRANCH   1  14
BRANCH   9  18
ATOM     18  C   UNL     1       1.887   6.575  20.577  0.00  0.00    +0.000 C 
BRANCH  18  19
ATOM     19  C   UNL     1       1.565   7.997  20.176  0.00  0.00    +0.000 A 
ATOM     20  C   UNL     1       1.712   8.420  18.847  0.00  0.00    +0.000 A 
ATOM     21  C   UNL     1       1.368   9.722  18.476  0.00  0.00    +0.000 A 
ATOM     22  C   UNL     1       0.875  10.608  19.433  0.00  0.00    +0.000 A 
ATOM     23 BR   UNL     1       0.384  12.361  18.923  0.00  0.00    +0.000 Br
ATOM     24  C   UNL     1       0.732  10.209  20.759  0.00  0.00    +0.000 A 
ATOM     25  C   UNL     1       1.075   8.906  21.127  0.00  0.00    +0.000 A 
ENDBRANCH  18  19
ENDBRANCH   9  18
TORSDOF 4
ENDMDL
MODEL 8
REMARK VINA RESULT:      -7.9      0.767      1.013
REMARK  Name = 
REMARK  6 active torsions:
REMARK  status: ('A' for Active; 'I' for Inactive)
REMARK    1  A    between atoms: C_1  and  C_2
REMARK    2  A    between atoms: C_2  and  C_3
REMARK    3  A    between atoms: C_2  and  C_4
REMARK    4  A    between atoms: C_4  and  N_5
REMARK    5  A    between atoms: C_13  and  C_14
REMARK    6  A    between atoms: C_14  and  C_15
REMARK                            x       y       z     vdW  Elec       q    Type
REMARK                         _______ _______ _______ _____ _____    ______ ____
ROOT
ATOM      1  N   UNL     1       3.737   4.005  19.049  0.00  0.00    +0.000 N 
ATOM      2  C   UNL     1       4.974   3.365  19.124  0.00  0.00    +0.000 A 
ATOM      3  O   UNL     1       5.130   2.205  19.506  0.00  0.00    +0.000 OA
ATOM      4  N   UNL     1       6.089   4.092  18.743  0.00  0.00    +0.000 N 
ATOM      5  C   UNL     1       6.123   5.391  18.291  0.00  0.00    +0.000 A 
ATOM      6  O   UNL     1       7.160   5.966  17.978  0.00  0.00    +0.000 OA
ATOM      7  C   UNL     1       4.835   5.970  18.234  0.00  0.00    +0.000 A 
ATOM      8  N   UNL     1       4.428   7.209  17.839  0.00  0.00    +0.000 N 
ATOM      9  C   UNL     1       3.056   7.242  17.973  0.00  0.00    +0.000 A 
ATOM     10  N   UNL     1       2.600   6.093  18.447  0.00  0.00    +0.000 NA
ATOM     11  C   UNL     1       3.701   5.310  18.602  0.00  0.00    +0.000 A 
ATOM     12  H   UNL     1       6.972   3.612  18.812  0.00  0.00    +0.000 HD
ATOM     13  H   UNL     1       5.023   7.957  17.508  0.00  0.00    +0.000 HD
ENDROOT
BRANCH   1  14
ATOM     14  C   UNL     1       2.519   3.307  19.466  0.00  0.00    +0.000 C 
BRANCH  14  16
ATOM     15  C   UNL     1       0.788   4.680  20.716  0.00  0.00    +0.000 C 
ATOM     16  C   UNL     1       1.985   3.739  20.846  0.00  0.00    +0.000 C 
ATOM     17  C   UNL     1       1.604   2.515  21.681  0.00  0.00    +0.000 C 
ENDBRANCH  14  16
ENDBRANCH   1  14
BRANCH   9  18
ATOM     18  C   UNL     1       2.245   8.442  17.608  0.00  0.00    +0.000 C 
BRANCH  18  19
ATOM     19  C   UNL     1       1.479   9.020  18.777  0.00  0.00    +0.000 A 
ATOM     20  C   UNL     1       1.632   8.495  20.067  0.00  0.00    +0.000 A 
ATOM     21  C   UNL     1       0.956   9.064  21.149  0.00  0.00    +0.000 A 
ATOM     22  C   UNL     1       0.121  10.162  20.944  0.00  0.00    +0.000 A 
ATOM     23 BR   UNL     1      -0.771  10.948  22.414  0.00  0.00    +0.000 Br
ATOM     24  C   UNL     1      -0.052  10.690  19.668  0.00  0.00    +0.000 A 
ATOM     25  C   UNL     1       0.627  10.121  18.589  0.00  0.00    +0.000 A 
ENDBRANCH  18  19
ENDBRANCH   9  18
TORSDOF 4
ENDMDL
MODEL 9
REMARK VINA RESULT:      -7.8      4.894      7.837
REMARK  Name = 
REMARK  6 active torsions:
REMARK  status: ('A' for Active; 'I' for Inactive)
REMARK    1  A    between atoms: C_1  and  C_2
REMARK    2  A    between atoms: C_2  and  C_3
REMARK    3  A    between atoms: C_2  and  C_4
REMARK    4  A    between atoms: C_4  and  N_5
REMARK    5  A    between atoms: C_13  and  C_14
REMARK    6  A    between atoms: C_14  and  C_15
REMARK                            x       y       z     vdW  Elec       q    Type
REMARK                         _______ _______ _______ _____ _____    ______ ____
ROOT
ATOM      1  N   UNL     1      -1.464  11.378  18.876  0.00  0.00    +0.000 N 
ATOM      2  C   UNL     1      -2.065  12.010  19.965  0.00  0.00    +0.000 A 
ATOM      3  O   UNL     1      -3.069  12.717  19.886  0.00  0.00    +0.000 OA
ATOM      4  N   UNL     1      -1.484  11.822  21.208  0.00  0.00    +0.000 N 
ATOM      5  C   UNL     1      -0.368  11.073  21.502  0.00  0.00    +0.000 A 
ATOM      6  O   UNL     1       0.087  10.963  22.635  0.00  0.00    +0.000 OA
ATOM      7  C   UNL     1       0.180  10.458  20.353  0.00  0.00    +0.000 A 
ATOM      8  N   UNL     1       1.258   9.638  20.207  0.00  0.00    +0.000 N 
ATOM      9  C   UNL     1       1.337   9.315  18.869  0.00  0.00    +0.000 A 
ATOM     10  N   UNL     1       0.373   9.910  18.182  0.00  0.00    +0.000 NA
ATOM     11  C   UNL     1      -0.340  10.610  19.104  0.00  0.00    +0.000 A 
ATOM     12  H   UNL     1      -1.931  12.293  21.978  0.00  0.00    +0.000 HD
ATOM     13  H   UNL     1       1.877   9.324  20.944  0.00  0.00    +0.000 HD
ENDROOT
BRANCH   1  14
ATOM     14  C   UNL     1      -2.006  11.558  17.528  0.00  0.00    +0.000 C 
BRANCH  14  16
ATOM     15  C   UNL     1      -4.469  11.047  17.184  0.00  0.00    +0.000 C 
ATOM     16  C   UNL     1      -3.045  10.496  17.119  0.00  0.00    +0.000 C 
ATOM     17  C   UNL     1      -2.749   9.967  15.714  0.00  0.00    +0.000 C 
ENDBRANCH  14  16
ENDBRANCH   1  14
BRANCH   9  18
ATOM     18  C   UNL     1       2.389   8.405  18.325  0.00  0.00    +0.000 C 
BRANCH  18  19
ATOM     19  C   UNL     1       2.235   6.974  18.789  0.00  0.00    +0.000 A 
ATOM     20  C   UNL     1       2.023   6.676  20.143  0.00  0.00    +0.000 A 
ATOM     21  C   UNL     1       1.836   5.354  20.556  0.00  0.00    +0.000 A 
ATOM     22  C   UNL     1       1.859   4.324  19.617  0.00  0.00    +0.000 A 
ATOM     23 BR   UNL     1       1.577   2.540  20.175  0.00  0.00    +0.000 Br
ATOM     24  C   UNL     1       2.079   4.601  18.270  0.00  0.00    +0.000 A 
ATOM     25  C   UNL     1       2.264   5.922  17.859  0.00  0.00    +0.000 A 
ENDBRANCH  18  19
ENDBRANCH   9  18
TORSDOF 4
ENDMDL
