MODEL 1
REMARK VINA RESULT:      -7.3      0.000      0.000
REMARK  Name = 
REMARK  4 active torsions:
REMARK  status: ('A' for Active; 'I' for Inactive)
REMARK    1  A    between atoms: C_1  and  C_2
REMARK    2  A    between atoms: N_4  and  C_5
REMARK    3  A    between atoms: N_16  and  C_17
REMARK    4  A    between atoms: C_17  and  C_18
REMARK                            x       y       z     vdW  Elec       q    Type
REMARK                         _______ _______ _______ _____ _____    ______ ____
ROOT
ATOM      1  C   UNL     1       4.146   7.393  16.483  0.00  0.00    +0.000 C 
ATOM      2  C   UNL     1       3.987   6.661  17.818  0.00  0.00    +0.000 C 
ATOM      3  C   UNL     1       2.468   6.580  18.113  0.00  0.00    +0.000 C 
ATOM      4  N   UNL     1       2.174   6.365  19.520  0.00  0.00    +0.000 N 
ATOM      5  C   UNL     1       2.029   7.450  20.467  0.00  0.00    +0.000 C 
ATOM      6  C   UNL     1       2.193   5.055  19.960  0.00  0.00    +0.000 A 
ATOM      7  C   UNL     1       1.004   4.482  20.432  0.00  0.00    +0.000 A 
ATOM      8  C   UNL     1       0.945   3.137  20.800  0.00  0.00    +0.000 A 
ATOM      9  C   UNL     1       2.094   2.361  20.723  0.00  0.00    +0.000 A 
ATOM     10  C   UNL     1       3.293   2.921  20.268  0.00  0.00    +0.000 A 
ATOM     11  C   UNL     1       3.354   4.267  19.872  0.00  0.00    +0.000 A 
ATOM     12  C   UNL     1       4.674   4.870  19.420  0.00  0.00    +0.000 C 
ATOM     13  N   UNL     1       4.693   5.354  18.028  0.00  0.00    +0.000 N 
ATOM     14  C   UNL     1       5.168   4.437  17.102  0.00  0.00    +0.000 C 
ATOM     15  O   UNL     1       5.520   3.298  17.408  0.00  0.00    +0.000 OA
ATOM     16  N   UNL     1       5.273   4.863  15.812  0.00  0.00    +0.000 N 
ATOM     17  H   UNL     1       5.623   5.795  15.727  0.00  0.00    +0.000 HD
ENDROOT
BRANCH  16  18
ATOM     18  C   UNL     1       5.778   3.986  14.765  0.00  0.00    +0.000 C 
BRANCH  18  19
ATOM     19  C   UNL     1       6.854   4.662  13.991  0.00  0.00    +0.000 A 
ATOM     20  C   UNL     1       7.103   4.604  12.603  0.00  0.00    +0.000 A 
ATOM     21  C   UNL     1       8.206   5.403  12.422  0.00  0.00    +0.000 A 
ATOM     22  O   UNL     1       8.603   5.897  13.618  0.00  0.00    +0.000 OA
ATOM     23  N   UNL     1       7.763   5.434  14.614  0.00  0.00    +0.000 NA
ENDBRANCH  18  19
ENDBRANCH  16  18
TORSDOF 2
ENDMDL
MODEL 2
REMARK VINA RESULT:      -7.1      1.509      3.198
REMARK  Name = 
REMARK  4 active torsions:
REMARK  status: ('A' for Active; 'I' for Inactive)
REMARK    1  A    between atoms: C_1  and  C_2
REMARK    2  A    between atoms: N_4  and  C_5
REMARK    3  A    between atoms: N_16  and  C_17
REMARK    4  A    between atoms: C_17  and  C_18
REMARK                            x       y       z     vdW  Elec       q    Type
REMARK                         _______ _______ _______ _____ _____    ______ ____
ROOT
ATOM      1  C   UNL     1       4.637   2.270  19.047  0.00  0.00    +0.000 C 
ATOM      2  C   UNL     1       3.540   3.326  18.893  0.00  0.00    +0.000 C 
ATOM      3  C   UNL     1       3.238   3.875  20.311  0.00  0.00    +0.000 C 
ATOM      4  N   UNL     1       1.931   4.503  20.409  0.00  0.00    +0.000 N 
ATOM      5  C   UNL     1       0.727   3.765  20.729  0.00  0.00    +0.000 C 
ATOM      6  C   UNL     1       1.853   5.828  20.025  0.00  0.00    +0.000 A 
ATOM      7  C   UNL     1       1.519   6.794  20.986  0.00  0.00    +0.000 A 
ATOM      8  C   UNL     1       1.518   8.154  20.674  0.00  0.00    +0.000 A 
ATOM      9  C   UNL     1       1.828   8.555  19.382  0.00  0.00    +0.000 A 
ATOM     10  C   UNL     1       2.148   7.603  18.407  0.00  0.00    +0.000 A 
ATOM     11  C   UNL     1       2.177   6.235  18.718  0.00  0.00    +0.000 A 
ATOM     12  C   UNL     1       2.486   5.213  17.637  0.00  0.00    +0.000 C 
ATOM     13  N   UNL     1       3.701   4.411  17.869  0.00  0.00    +0.000 N 
ATOM     14  C   UNL     1       4.848   4.910  17.271  0.00  0.00    +0.000 C 
ATOM     15  O   UNL     1       4.864   5.955  16.620  0.00  0.00    +0.000 OA
ATOM     16  N   UNL     1       5.982   4.165  17.396  0.00  0.00    +0.000 N 
ATOM     17  H   UNL     1       5.827   3.182  17.297  0.00  0.00    +0.000 HD
ENDROOT
BRANCH  16  18
ATOM     18  C   UNL     1       7.236   4.589  16.789  0.00  0.00    +0.000 C 
BRANCH  18  19
ATOM     19  C   UNL     1       7.117   4.615  15.306  0.00  0.00    +0.000 A 
ATOM     20  C   UNL     1       6.342   3.779  14.475  0.00  0.00    +0.000 A 
ATOM     21  C   UNL     1       6.599   4.231  13.203  0.00  0.00    +0.000 A 
ATOM     22  O   UNL     1       7.479   5.257  13.262  0.00  0.00    +0.000 OA
ATOM     23  N   UNL     1       7.816   5.506  14.579  0.00  0.00    +0.000 NA
ENDBRANCH  18  19
ENDBRANCH  16  18
TORSDOF 2
ENDMDL
MODEL 3
REMARK VINA RESULT:      -6.7      2.307      3.824
REMARK  Name = 
REMARK  4 active torsions:
REMARK  status: ('A' for Active; 'I' for Inactive)
REMARK    1  A    between atoms: C_1  and  C_2
REMARK    2  A    between atoms: N_4  and  C_5
REMARK    3  A    between atoms: N_16  and  C_17
REMARK    4  A    between atoms: C_17  and  C_18
REMARK                            x       y       z     vdW  Elec       q    Type
REMARK                         _______ _______ _______ _____ _____    ______ ____
ROOT
ATOM      1  C   UNL     1       4.610   1.986  19.003  0.00  0.00    +0.000 C 
ATOM      2  C   UNL     1       3.496   3.029  18.886  0.00  0.00    +0.000 C 
ATOM      3  C   UNL     1       3.218   3.559  20.316  0.00  0.00    +0.000 C 
ATOM      4  N   UNL     1       1.906   4.168  20.450  0.00  0.00    +0.000 N 
ATOM      5  C   UNL     1       0.719   3.411  20.789  0.00  0.00    +0.000 C 
ATOM      6  C   UNL     1       1.802   5.496  20.082  0.00  0.00    +0.000 A 
ATOM      7  C   UNL     1       1.477   6.446  21.061  0.00  0.00    +0.000 A 
ATOM      8  C   UNL     1       1.451   7.810  20.765  0.00  0.00    +0.000 A 
ATOM      9  C   UNL     1       1.726   8.229  19.471  0.00  0.00    +0.000 A 
ATOM     10  C   UNL     1       2.037   7.293  18.478  0.00  0.00    +0.000 A 
ATOM     11  C   UNL     1       2.091   5.921  18.774  0.00  0.00    +0.000 A 
ATOM     12  C   UNL     1       2.390   4.915  17.675  0.00  0.00    +0.000 C 
ATOM     13  N   UNL     1       3.620   4.127  17.870  0.00  0.00    +0.000 N 
ATOM     14  C   UNL     1       4.746   4.648  17.252  0.00  0.00    +0.000 C 
ATOM     15  O   UNL     1       4.734   5.700  16.613  0.00  0.00    +0.000 OA
ATOM     16  N   UNL     1       5.892   3.917  17.344  0.00  0.00    +0.000 N 
ATOM     17  H   UNL     1       5.748   2.934  17.237  0.00  0.00    +0.000 HD
ENDROOT
BRANCH  16  18
ATOM     18  C   UNL     1       7.127   4.364  16.714  0.00  0.00    +0.000 C 
BRANCH  18  19
ATOM     19  C   UNL     1       7.522   5.703  17.231  0.00  0.00    +0.000 A 
ATOM     20  C   UNL     1       7.819   6.076  18.559  0.00  0.00    +0.000 A 
ATOM     21  C   UNL     1       8.117   7.415  18.477  0.00  0.00    +0.000 A 
ATOM     22  O   UNL     1       7.993   7.824  17.193  0.00  0.00    +0.000 OA
ATOM     23  N   UNL     1       7.615   6.757  16.400  0.00  0.00    +0.000 NA
ENDBRANCH  18  19
ENDBRANCH  16  18
TORSDOF 2
ENDMDL
MODEL 4
REMARK VINA RESULT:      -6.7      4.140      7.162
REMARK  Name = 
REMARK  4 active torsions:
REMARK  status: ('A' for Active; 'I' for Inactive)
REMARK    1  A    between atoms: C_1  and  C_2
REMARK    2  A    between atoms: N_4  and  C_5
REMARK    3  A    between atoms: N_16  and  C_17
REMARK    4  A    between atoms: C_17  and  C_18
REMARK                            x       y       z     vdW  Elec       q    Type
REMARK                         _______ _______ _______ _____ _____    ______ ____
ROOT
ATOM      1  C   UNL     1       0.880   7.630  21.200  0.00  0.00    +0.000 C 
ATOM      2  C   UNL     1       0.674   8.997  20.544  0.00  0.00    +0.000 C 
ATOM      3  C   UNL     1       1.234  10.059  21.524  0.00  0.00    +0.000 C 
ATOM      4  N   UNL     1       0.694  11.388  21.291  0.00  0.00    +0.000 N 
ATOM      5  C   UNL     1      -0.531  11.857  21.904  0.00  0.00    +0.000 C 
ATOM      6  C   UNL     1       1.321  12.147  20.321  0.00  0.00    +0.000 A 
ATOM      7  C   UNL     1       1.968  13.332  20.701  0.00  0.00    +0.000 A 
ATOM      8  C   UNL     1       2.695  14.086  19.780  0.00  0.00    +0.000 A 
ATOM      9  C   UNL     1       2.757  13.669  18.458  0.00  0.00    +0.000 A 
ATOM     10  C   UNL     1       2.105  12.496  18.058  0.00  0.00    +0.000 A 
ATOM     11  C   UNL     1       1.392  11.718  18.984  0.00  0.00    +0.000 A 
ATOM     12  C   UNL     1       0.656  10.471  18.525  0.00  0.00    +0.000 C 
ATOM     13  N   UNL     1       1.127   9.211  19.130  0.00  0.00    +0.000 N 
ATOM     14  C   UNL     1       2.078   8.531  18.385  0.00  0.00    +0.000 C 
ATOM     15  O   UNL     1       2.519   8.952  17.316  0.00  0.00    +0.000 OA
ATOM     16  N   UNL     1       2.491   7.325  18.868  0.00  0.00    +0.000 N 
ATOM     17  H   UNL     1       1.750   6.771  19.246  0.00  0.00    +0.000 HD
ENDROOT
BRANCH  16  18
ATOM     18  C   UNL     1       3.471   6.520  18.153  0.00  0.00    +0.000 C 
BRANCH  18  19
ATOM     19  C   UNL     1       2.922   5.169  17.858  0.00  0.00    +0.000 A 
ATOM     20  C   UNL     1       3.627   3.989  17.538  0.00  0.00    +0.000 A 
ATOM     21  C   UNL     1       2.645   3.044  17.361  0.00  0.00    +0.000 A 
ATOM     22  O   UNL     1       1.433   3.617  17.546  0.00  0.00    +0.000 OA
ATOM     23  N   UNL     1       1.594   4.955  17.855  0.00  0.00    +0.000 NA
ENDBRANCH  18  19
ENDBRANCH  16  18
TORSDOF 2
ENDMDL
MODEL 5
REMARK VINA RESULT:      -6.6      4.435      7.733
REMARK  Name = 
REMARK  4 active torsions:
REMARK  status: ('A' for Active; 'I' for Inactive)
REMARK    1  A    between atoms: C_1  and  C_2
REMARK    2  A    between atoms: N_4  and  C_5
REMARK    3  A    between atoms: N_16  and  C_17
REMARK    4  A    between atoms: C_17  and  C_18
REMARK                            x       y       z     vdW  Elec       q    Type
REMARK                         _______ _______ _______ _____ _____    ______ ____
ROOT
ATOM      1  C   UNL     1      -0.120   8.345  21.685  0.00  0.00    +0.000 C 
ATOM      2  C   UNL     1       0.020   9.559  20.764  0.00  0.00    +0.000 C 
ATOM      3  C   UNL     1       0.515  10.738  21.640  0.00  0.00    +0.000 C 
ATOM      4  N   UNL     1       0.239  12.038  21.052  0.00  0.00    +0.000 N 
ATOM      5  C   UNL     1      -1.004  12.749  21.267  0.00  0.00    +0.000 C 
ATOM      6  C   UNL     1       1.159  12.508  20.135  0.00  0.00    +0.000 A 
ATOM      7  C   UNL     1       1.881  13.672  20.435  0.00  0.00    +0.000 A 
ATOM      8  C   UNL     1       2.888  14.137  19.589  0.00  0.00    +0.000 A 
ATOM      9  C   UNL     1       3.161  13.449  18.415  0.00  0.00    +0.000 A 
ATOM     10  C   UNL     1       2.441  12.293  18.093  0.00  0.00    +0.000 A 
ATOM     11  C   UNL     1       1.443  11.804  18.951  0.00  0.00    +0.000 A 
ATOM     12  C   UNL     1       0.642  10.572  18.565  0.00  0.00    +0.000 C 
ATOM     13  N   UNL     1       0.785   9.424  19.480  0.00  0.00    +0.000 N 
ATOM     14  C   UNL     1       1.758   8.508  19.113  0.00  0.00    +0.000 C 
ATOM     15  O   UNL     1       2.470   8.649  18.119  0.00  0.00    +0.000 OA
ATOM     16  N   UNL     1       1.878   7.394  19.888  0.00  0.00    +0.000 N 
ATOM     17  H   UNL     1       1.001   7.012  20.176  0.00  0.00    +0.000 HD
ENDROOT
BRANCH  16  18
ATOM     18  C   UNL     1       2.856   6.359  19.580  0.00  0.00    +0.000 C 
BRANCH  18  19
ATOM     19  C   UNL     1       2.175   5.113  19.135  0.00  0.00    +0.000 A 
ATOM     20  C   UNL     1       1.540   4.133  19.927  0.00  0.00    +0.000 A 
ATOM     21  C   UNL     1       1.086   3.206  19.020  0.00  0.00    +0.000 A 
ATOM     22  O   UNL     1       1.437   3.591  17.772  0.00  0.00    +0.000 OA
ATOM     23  N   UNL     1       2.127   4.788  17.831  0.00  0.00    +0.000 NA
ENDBRANCH  18  19
ENDBRANCH  16  18
TORSDOF 2
ENDMDL
MODEL 6
REMARK VINA RESULT:      -6.6      3.774      6.670
REMARK  Name = 
REMARK  4 active torsions:
REMARK  status: ('A' for Active; 'I' for Inactive)
REMARK    1  A    between atoms: C_1  and  C_2
REMARK    2  A    between atoms: N_4  and  C_5
REMARK    3  A    between atoms: N_16  and  C_17
REMARK    4  A    between atoms: C_17  and  C_18
REMARK                            x       y       z     vdW  Elec       q    Type
REMARK                         _______ _______ _______ _____ _____    ______ ____
ROOT
ATOM      1  C   UNL     1       0.823   7.410  21.332  0.00  0.00    +0.000 C 
ATOM      2  C   UNL     1       1.825   6.384  20.798  0.00  0.00    +0.000 C 
ATOM      3  C   UNL     1       1.044   5.064  20.569  0.00  0.00    +0.000 C 
ATOM      4  N   UNL     1       1.904   3.894  20.536  0.00  0.00    +0.000 N 
ATOM      5  C   UNL     1       2.274   3.156  21.726  0.00  0.00    +0.000 C 
ATOM      6  C   UNL     1       2.495   3.598  19.322  0.00  0.00    +0.000 A 
ATOM      7  C   UNL     1       2.159   2.398  18.680  0.00  0.00    +0.000 A 
ATOM      8  C   UNL     1       2.653   2.093  17.411  0.00  0.00    +0.000 A 
ATOM      9  C   UNL     1       3.515   2.984  16.786  0.00  0.00    +0.000 A 
ATOM     10  C   UNL     1       3.873   4.179  17.420  0.00  0.00    +0.000 A 
ATOM     11  C   UNL     1       3.360   4.505  18.685  0.00  0.00    +0.000 A 
ATOM     12  C   UNL     1       3.792   5.788  19.376  0.00  0.00    +0.000 C 
ATOM     13  N   UNL     1       2.706   6.749  19.640  0.00  0.00    +0.000 N 
ATOM     14  C   UNL     1       2.538   7.716  18.661  0.00  0.00    +0.000 C 
ATOM     15  O   UNL     1       3.219   7.758  17.637  0.00  0.00    +0.000 OA
ATOM     16  N   UNL     1       1.594   8.671  18.894  0.00  0.00    +0.000 N 
ATOM     17  H   UNL     1       1.579   8.995  19.840  0.00  0.00    +0.000 HD
ENDROOT
BRANCH  16  18
ATOM     18  C   UNL     1       1.350   9.743  17.940  0.00  0.00    +0.000 C 
BRANCH  18  19
ATOM     19  C   UNL     1       0.134  10.513  18.318  0.00  0.00    +0.000 A 
ATOM     20  C   UNL     1      -1.213  10.230  18.009  0.00  0.00    +0.000 A 
ATOM     21  C   UNL     1      -1.918  11.253  18.596  0.00  0.00    +0.000 A 
ATOM     22  O   UNL     1      -1.057  12.102  19.202  0.00  0.00    +0.000 OA
ATOM     23  N   UNL     1       0.239  11.650  19.031  0.00  0.00    +0.000 NA
ENDBRANCH  18  19
ENDBRANCH  16  18
TORSDOF 2
ENDMDL
MODEL 7
REMARK VINA RESULT:      -6.5      4.694      7.843
REMARK  Name = 
REMARK  4 active torsions:
REMARK  status: ('A' for Active; 'I' for Inactive)
REMARK    1  A    between atoms: C_1  and  C_2
REMARK    2  A    between atoms: N_4  and  C_5
REMARK    3  A    between atoms: N_16  and  C_17
REMARK    4  A    between atoms: C_17  and  C_18
REMARK                            x       y       z     vdW  Elec       q    Type
REMARK                         _______ _______ _______ _____ _____    ______ ____
ROOT
ATOM      1  C   UNL     1       1.321   9.115  17.844  0.00  0.00    +0.000 C 
ATOM      2  C   UNL     1       0.939  10.212  18.841  0.00  0.00    +0.000 C 
ATOM      3  C   UNL     1      -0.515  10.636  18.515  0.00  0.00    +0.000 C 
ATOM      4  N   UNL     1      -0.850  11.955  19.024  0.00  0.00    +0.000 N 
ATOM      5  C   UNL     1      -0.610  13.171  18.273  0.00  0.00    +0.000 C 
ATOM      6  C   UNL     1      -1.268  12.021  20.339  0.00  0.00    +0.000 A 
ATOM      7  C   UNL     1      -2.576  12.446  20.613  0.00  0.00    +0.000 A 
ATOM      8  C   UNL     1      -3.080  12.442  21.914  0.00  0.00    +0.000 A 
ATOM      9  C   UNL     1      -2.261  12.034  22.959  0.00  0.00    +0.000 A 
ATOM     10  C   UNL     1      -0.948  11.622  22.704  0.00  0.00    +0.000 A 
ATOM     11  C   UNL     1      -0.442  11.599  21.395  0.00  0.00    +0.000 A 
ATOM     12  C   UNL     1       0.999  11.188  21.142  0.00  0.00    +0.000 C 
ATOM     13  N   UNL     1       1.166   9.984  20.307  0.00  0.00    +0.000 N 
ATOM     14  C   UNL     1       1.293   8.800  21.017  0.00  0.00    +0.000 C 
ATOM     15  O   UNL     1       1.244   8.747  22.246  0.00  0.00    +0.000 OA
ATOM     16  N   UNL     1       1.522   7.669  20.292  0.00  0.00    +0.000 N 
ATOM     17  H   UNL     1       2.165   7.801  19.538  0.00  0.00    +0.000 HD
ENDROOT
BRANCH  16  18
ATOM     18  C   UNL     1       1.690   6.376  20.940  0.00  0.00    +0.000 C 
BRANCH  18  19
ATOM     19  C   UNL     1       1.664   5.280  19.934  0.00  0.00    +0.000 A 
ATOM     20  C   UNL     1       1.074   4.003  20.047  0.00  0.00    +0.000 A 
ATOM     21  C   UNL     1       1.343   3.397  18.843  0.00  0.00    +0.000 A 
ATOM     22  O   UNL     1       2.058   4.243  18.065  0.00  0.00    +0.000 OA
ATOM     23  N   UNL     1       2.270   5.430  18.742  0.00  0.00    +0.000 NA
ENDBRANCH  18  19
ENDBRANCH  16  18
TORSDOF 2
ENDMDL
MODEL 8
REMARK VINA RESULT:      -6.5      3.677      6.257
REMARK  Name = 
REMARK  4 active torsions:
REMARK  status: ('A' for Active; 'I' for Inactive)
REMARK    1  A    between atoms: C_1  and  C_2
REMARK    2  A    between atoms: N_4  and  C_5
REMARK    3  A    between atoms: N_16  and  C_17
REMARK    4  A    between atoms: C_17  and  C_18
REMARK                            x       y       z     vdW  Elec       q    Type
REMARK                         _______ _______ _______ _____ _____    ______ ____
ROOT
ATOM      1  C   UNL     1       0.905   7.530  21.239  0.00  0.00    +0.000 C 
ATOM      2  C   UNL     1       1.870   6.446  20.753  0.00  0.00    +0.000 C 
ATOM      3  C   UNL     1       1.035   5.157  20.541  0.00  0.00    +0.000 C 
ATOM      4  N   UNL     1       1.842   3.949  20.555  0.00  0.00    +0.000 N 
ATOM      5  C   UNL     1       2.154   3.227  21.770  0.00  0.00    +0.000 C 
ATOM      6  C   UNL     1       2.443   3.595  19.362  0.00  0.00    +0.000 A 
ATOM      7  C   UNL     1       2.065   2.395  18.743  0.00  0.00    +0.000 A 
ATOM      8  C   UNL     1       2.570   2.035  17.493  0.00  0.00    +0.000 A 
ATOM      9  C   UNL     1       3.484   2.870  16.864  0.00  0.00    +0.000 A 
ATOM     10  C   UNL     1       3.883   4.065  17.474  0.00  0.00    +0.000 A 
ATOM     11  C   UNL     1       3.360   4.446  18.720  0.00  0.00    +0.000 A 
ATOM     12  C   UNL     1       3.836   5.726  19.387  0.00  0.00    +0.000 C 
ATOM     13  N   UNL     1       2.789   6.741  19.604  0.00  0.00    +0.000 N 
ATOM     14  C   UNL     1       2.684   7.689  18.598  0.00  0.00    +0.000 C 
ATOM     15  O   UNL     1       3.386   7.673  17.587  0.00  0.00    +0.000 OA
ATOM     16  N   UNL     1       1.780   8.690  18.787  0.00  0.00    +0.000 N 
ATOM     17  H   UNL     1       1.761   9.039  19.723  0.00  0.00    +0.000 HD
ENDROOT
BRANCH  16  18
ATOM     18  C   UNL     1       1.604   9.747  17.801  0.00  0.00    +0.000 C 
BRANCH  18  19
ATOM     19  C   UNL     1       1.713  11.085  18.443  0.00  0.00    +0.000 A 
ATOM     20  C   UNL     1       2.488  12.191  18.034  0.00  0.00    +0.000 A 
ATOM     21  C   UNL     1       2.223  13.157  18.975  0.00  0.00    +0.000 A 
ATOM     22  O   UNL     1       1.362  12.664  19.895  0.00  0.00    +0.000 OA
ATOM     23  N   UNL     1       1.037  11.359  19.574  0.00  0.00    +0.000 NA
ENDBRANCH  18  19
ENDBRANCH  16  18
TORSDOF 2
ENDMDL
MODEL 9
REMARK VINA RESULT:      -6.4      4.224      7.235
REMARK  Name = 
REMARK  4 active torsions:
REMARK  status: ('A' for Active; 'I' for Inactive)
REMARK    1  A    between atoms: C_1  and  C_2
REMARK    2  A    between atoms: N_4  and  C_5
REMARK    3  A    between atoms: N_16  and  C_17
REMARK    4  A    between atoms: C_17  and  C_18
REMARK                            x       y       z     vdW  Elec       q    Type
REMARK                         _______ _______ _______ _____ _____    ______ ____
ROOT
ATOM      1  C   UNL     1       1.073   7.653  21.169  0.00  0.00    +0.000 C 
ATOM      2  C   UNL     1       0.600   9.015  20.655  0.00  0.00    +0.000 C 
ATOM      3  C   UNL     1       1.093  10.079  21.669  0.00  0.00    +0.000 C 
ATOM      4  N   UNL     1       0.341  11.320  21.599  0.00  0.00    +0.000 N 
ATOM      5  C   UNL     1      -0.871  11.547  22.358  0.00  0.00    +0.000 C 
ATOM      6  C   UNL     1       0.747  12.235  20.646  0.00  0.00    +0.000 A 
ATOM      7  C   UNL     1       1.245  13.476  21.067  0.00  0.00    +0.000 A 
ATOM      8  C   UNL     1       1.755  14.399  20.153  0.00  0.00    +0.000 A 
ATOM      9  C   UNL     1       1.743  14.091  18.800  0.00  0.00    +0.000 A 
ATOM     10  C   UNL     1       1.236  12.863  18.361  0.00  0.00    +0.000 A 
ATOM     11  C   UNL     1       0.745  11.918  19.276  0.00  0.00    +0.000 A 
ATOM     12  C   UNL     1       0.159  10.607  18.779  0.00  0.00    +0.000 C 
ATOM     13  N   UNL     1       0.871   9.397  19.229  0.00  0.00    +0.000 N 
ATOM     14  C   UNL     1       1.832   8.928  18.346  0.00  0.00    +0.000 C 
ATOM     15  O   UNL     1       2.095   9.489  17.283  0.00  0.00    +0.000 OA
ATOM     16  N   UNL     1       2.466   7.771  18.685  0.00  0.00    +0.000 N 
ATOM     17  H   UNL     1       1.858   7.083  19.079  0.00  0.00    +0.000 HD
ENDROOT
BRANCH  16  18
ATOM     18  C   UNL     1       3.478   7.182  17.819  0.00  0.00    +0.000 C 
BRANCH  18  19
ATOM     19  C   UNL     1       3.758   5.777  18.223  0.00  0.00    +0.000 A 
ATOM     20  C   UNL     1       3.369   4.586  17.574  0.00  0.00    +0.000 A 
ATOM     21  C   UNL     1       3.882   3.586  18.364  0.00  0.00    +0.000 A 
ATOM     22  O   UNL     1       4.523   4.134  19.422  0.00  0.00    +0.000 OA
ATOM     23  N   UNL     1       4.448   5.513  19.348  0.00  0.00    +0.000 NA
ENDBRANCH  18  19
ENDBRANCH  16  18
TORSDOF 2
ENDMDL
