MODEL 1
REMARK VINA RESULT:      -7.7      0.000      0.000
REMARK  Name = 
REMARK  8 active torsions:
REMARK  status: ('A' for Active; 'I' for Inactive)
REMARK    1  A    between atoms: C_1  and  C_2
REMARK    2  A    between atoms: C_2  and  O_3
REMARK    3  A    between atoms: O_3  and  C_4
REMARK    4  A    between atoms: C_4  and  C_6
REMARK    5  A    between atoms: C_12  and  O_13
REMARK    6  A    between atoms: O_13  and  C_14
REMARK    7  A    between atoms: C_18  and  C_19
REMARK    8  A    between atoms: C_24  and  N_25
REMARK                            x       y       z     vdW  Elec       q    Type
REMARK                         _______ _______ _______ _____ _____    ______ ____
ROOT
ATOM      1  C   UNL     1      -0.925  10.839  22.575  0.00  0.00    +0.000 A 
ATOM      2  C   UNL     1      -0.279   9.779  23.246  0.00  0.00    +0.000 A 
ATOM      3  N   UNL     1       0.446   9.003  22.437  0.00  0.00    +0.000 NA
ATOM      4  N   UNL     1       0.311   9.585  21.208  0.00  0.00    +0.000 N 
ATOM      5  C   UNL     1       1.032   9.103  20.064  0.00  0.00    +0.000 A 
ATOM      6  C   UNL     1       1.800   7.961  20.184  0.00  0.00    +0.000 A 
ATOM      7  C   UNL     1       2.458   7.573  19.038  0.00  0.00    +0.000 A 
ATOM      8  N   UNL     1       2.439   8.271  17.888  0.00  0.00    +0.000 NA
ATOM      9  C   UNL     1       1.664   9.354  17.875  0.00  0.00    +0.000 A 
ATOM     10  N   UNL     1       0.936   9.804  18.901  0.00  0.00    +0.000 NA
ATOM     11  C   UNL     1      -0.558  10.677  21.255  0.00  0.00    +0.000 A 
ENDROOT
BRANCH  11  12
ATOM     12  N   UNL     1      -0.915  11.407  20.173  0.00  0.00    +0.000 N 
ATOM     13  H   UNL     1      -0.227  11.694  19.475  0.00  0.00    +0.000 HD
ATOM     14  H   UNL     1      -1.867  11.752  20.039  0.00  0.00    +0.000 HD
ENDBRANCH  11  12
BRANCH   1  15
ATOM     15  C   UNL     1      -1.742  11.903  23.114  0.00  0.00    +0.000 C 
ATOM     16  O   UNL     1      -2.967  11.850  23.175  0.00  0.00    +0.000 OA
BRANCH  15  17
ATOM     17  O   UNL     1      -1.003  13.001  23.445  0.00  0.00    +0.000 OA
BRANCH  17  19
ATOM     18  C   UNL     1      -0.850  15.378  23.375  0.00  0.00    +0.000 C 
ATOM     19  C   UNL     1      -1.181  14.128  22.579  0.00  0.00    +0.000 C 
ENDBRANCH  17  19
ENDBRANCH  15  17
ENDBRANCH   1  15
BRANCH   7  20
ATOM     20  O   UNL     1       3.199   6.396  19.104  0.00  0.00    +0.000 OA
BRANCH  20  21
ATOM     21  C   UNL     1       2.505   5.203  19.087  0.00  0.00    +0.000 A 
ATOM     22  C   UNL     1       1.917   4.674  17.934  0.00  0.00    +0.000 A 
ATOM     23  C   UNL     1       1.224   3.466  17.991  0.00  0.00    +0.000 A 
ATOM     24  C   UNL     1       1.079   2.803  19.208  0.00  0.00    +0.000 A 
ATOM     25  C   UNL     1       1.625   3.341  20.379  0.00  0.00    +0.000 A 
ATOM     26  C   UNL     1       1.453   2.639  21.694  0.00  0.00    +0.000 C 
ATOM     27  C   UNL     1       2.337   4.550  20.311  0.00  0.00    +0.000 A 
ENDBRANCH  20  21
ENDBRANCH   7  20
TORSDOF 6
ENDMDL
MODEL 2
REMARK VINA RESULT:      -7.6      3.380      8.223
REMARK  Name = 
REMARK  8 active torsions:
REMARK  status: ('A' for Active; 'I' for Inactive)
REMARK    1  A    between atoms: C_1  and  C_2
REMARK    2  A    between atoms: C_2  and  O_3
REMARK    3  A    between atoms: O_3  and  C_4
REMARK    4  A    between atoms: C_4  and  C_6
REMARK    5  A    between atoms: C_12  and  O_13
REMARK    6  A    between atoms: O_13  and  C_14
REMARK    7  A    between atoms: C_18  and  C_19
REMARK    8  A    between atoms: C_24  and  N_25
REMARK                            x       y       z     vdW  Elec       q    Type
REMARK                         _______ _______ _______ _____ _____    ______ ____
ROOT
ATOM      1  C   UNL     1       4.379   5.720  18.424  0.00  0.00    +0.000 A 
ATOM      2  C   UNL     1       4.295   6.674  17.387  0.00  0.00    +0.000 A 
ATOM      3  N   UNL     1       3.355   7.599  17.593  0.00  0.00    +0.000 NA
ATOM      4  N   UNL     1       2.830   7.277  18.813  0.00  0.00    +0.000 N 
ATOM      5  C   UNL     1       1.845   8.102  19.450  0.00  0.00    +0.000 A 
ATOM      6  C   UNL     1       1.338   9.193  18.771  0.00  0.00    +0.000 A 
ATOM      7  C   UNL     1       0.399   9.929  19.458  0.00  0.00    +0.000 A 
ATOM      8  N   UNL     1       0.033   9.680  20.729  0.00  0.00    +0.000 NA
ATOM      9  C   UNL     1       0.576   8.603  21.293  0.00  0.00    +0.000 A 
ATOM     10  N   UNL     1       1.454   7.780  20.714  0.00  0.00    +0.000 NA
ATOM     11  C   UNL     1       3.402   6.107  19.319  0.00  0.00    +0.000 A 
ENDROOT
BRANCH  11  12
ATOM     12  N   UNL     1       3.034   5.528  20.485  0.00  0.00    +0.000 N 
ATOM     13  H   UNL     1       2.856   4.524  20.547  0.00  0.00    +0.000 HD
ATOM     14  H   UNL     1       2.857   6.071  21.331  0.00  0.00    +0.000 HD
ENDBRANCH  11  12
BRANCH   1  15
ATOM     15  C   UNL     1       5.296   4.614  18.580  0.00  0.00    +0.000 C 
ATOM     16  O   UNL     1       5.062   3.637  19.286  0.00  0.00    +0.000 OA
BRANCH  15  17
ATOM     17  O   UNL     1       6.480   4.834  17.940  0.00  0.00    +0.000 OA
BRANCH  17  19
ATOM     18  C   UNL     1       7.826   6.766  18.308  0.00  0.00    +0.000 C 
ATOM     19  C   UNL     1       7.525   5.351  18.772  0.00  0.00    +0.000 C 
ENDBRANCH  17  19
ENDBRANCH  15  17
ENDBRANCH   1  15
BRANCH   7  20
ATOM     20  O   UNL     1      -0.176  11.004  18.786  0.00  0.00    +0.000 OA
BRANCH  20  21
ATOM     21  C   UNL     1      -1.459  10.844  18.305  0.00  0.00    +0.000 A 
ATOM     22  C   UNL     1      -1.780  10.000  17.237  0.00  0.00    +0.000 A 
ATOM     23  C   UNL     1      -3.098   9.894  16.798  0.00  0.00    +0.000 A 
ATOM     24  C   UNL     1      -4.096  10.660  17.397  0.00  0.00    +0.000 A 
ATOM     25  C   UNL     1      -3.785  11.542  18.439  0.00  0.00    +0.000 A 
ATOM     26  C   UNL     1      -4.855  12.382  19.072  0.00  0.00    +0.000 C 
ATOM     27  C   UNL     1      -2.457  11.631  18.888  0.00  0.00    +0.000 A 
ENDBRANCH  20  21
ENDBRANCH   7  20
TORSDOF 6
ENDMDL
MODEL 3
REMARK VINA RESULT:      -7.6      2.982      8.361
REMARK  Name = 
REMARK  8 active torsions:
REMARK  status: ('A' for Active; 'I' for Inactive)
REMARK    1  A    between atoms: C_1  and  C_2
REMARK    2  A    between atoms: C_2  and  O_3
REMARK    3  A    between atoms: O_3  and  C_4
REMARK    4  A    between atoms: C_4  and  C_6
REMARK    5  A    between atoms: C_12  and  O_13
REMARK    6  A    between atoms: O_13  and  C_14
REMARK    7  A    between atoms: C_18  and  C_19
REMARK    8  A    between atoms: C_24  and  N_25
REMARK                            x       y       z     vdW  Elec       q    Type
REMARK                         _______ _______ _______ _____ _____    ______ ____
ROOT
ATOM      1  C   UNL     1       4.050   5.530  18.486  0.00  0.00    +0.000 A 
ATOM      2  C   UNL     1       4.052   6.515  17.477  0.00  0.00    +0.000 A 
ATOM      3  N   UNL     1       3.222   7.530  17.726  0.00  0.00    +0.000 NA
ATOM      4  N   UNL     1       2.687   7.233  18.947  0.00  0.00    +0.000 N 
ATOM      5  C   UNL     1       1.808   8.142  19.626  0.00  0.00    +0.000 A 
ATOM      6  C   UNL     1       1.411   9.300  18.985  0.00  0.00    +0.000 A 
ATOM      7  C   UNL     1       0.570  10.113  19.710  0.00  0.00    +0.000 A 
ATOM      8  N   UNL     1       0.201   9.870  20.981  0.00  0.00    +0.000 NA
ATOM      9  C   UNL     1       0.633   8.725  21.506  0.00  0.00    +0.000 A 
ATOM     10  N   UNL     1       1.407   7.829  20.888  0.00  0.00    +0.000 NA
ATOM     11  C   UNL     1       3.137   5.995  19.411  0.00  0.00    +0.000 A 
ENDROOT
BRANCH  11  12
ATOM     12  N   UNL     1       2.728   5.427  20.569  0.00  0.00    +0.000 N 
ATOM     13  H   UNL     1       3.121   5.710  21.468  0.00  0.00    +0.000 HD
ATOM     14  H   UNL     1       2.061   4.654  20.590  0.00  0.00    +0.000 HD
ENDBRANCH  11  12
BRANCH   1  15
ATOM     15  C   UNL     1       4.844   4.326  18.596  0.00  0.00    +0.000 C 
ATOM     16  O   UNL     1       5.698   4.156  19.461  0.00  0.00    +0.000 OA
BRANCH  15  17
ATOM     17  O   UNL     1       4.605   3.459  17.571  0.00  0.00    +0.000 OA
BRANCH  17  19
ATOM     18  C   UNL     1       3.544   1.529  18.484  0.00  0.00    +0.000 C 
ATOM     19  C   UNL     1       3.346   2.778  17.643  0.00  0.00    +0.000 C 
ENDBRANCH  17  19
ENDBRANCH  15  17
ENDBRANCH   1  15
BRANCH   7  20
ATOM     20  O   UNL     1       0.103  11.263  19.078  0.00  0.00    +0.000 OA
BRANCH  20  21
ATOM     21  C   UNL     1      -1.192  11.249  18.603  0.00  0.00    +0.000 A 
ATOM     22  C   UNL     1      -2.263  11.846  19.276  0.00  0.00    +0.000 A 
ATOM     23  C   UNL     1      -3.548  11.787  18.741  0.00  0.00    +0.000 A 
ATOM     24  C   UNL     1      -3.778  11.096  17.553  0.00  0.00    +0.000 A 
ATOM     25  C   UNL     1      -2.724  10.456  16.889  0.00  0.00    +0.000 A 
ATOM     26  C   UNL     1      -2.972   9.695  15.619  0.00  0.00    +0.000 C 
ATOM     27  C   UNL     1      -1.428  10.535  17.424  0.00  0.00    +0.000 A 
ENDBRANCH  20  21
ENDBRANCH   7  20
TORSDOF 6
ENDMDL
MODEL 4
REMARK VINA RESULT:      -7.6      3.259      8.183
REMARK  Name = 
REMARK  8 active torsions:
REMARK  status: ('A' for Active; 'I' for Inactive)
REMARK    1  A    between atoms: C_1  and  C_2
REMARK    2  A    between atoms: C_2  and  O_3
REMARK    3  A    between atoms: O_3  and  C_4
REMARK    4  A    between atoms: C_4  and  C_6
REMARK    5  A    between atoms: C_12  and  O_13
REMARK    6  A    between atoms: O_13  and  C_14
REMARK    7  A    between atoms: C_18  and  C_19
REMARK    8  A    between atoms: C_24  and  N_25
REMARK                            x       y       z     vdW  Elec       q    Type
REMARK                         _______ _______ _______ _____ _____    ______ ____
ROOT
ATOM      1  C   UNL     1       4.076   5.536  18.602  0.00  0.00    +0.000 A 
ATOM      2  C   UNL     1       4.094   6.499  17.572  0.00  0.00    +0.000 A 
ATOM      3  N   UNL     1       3.245   7.509  17.775  0.00  0.00    +0.000 NA
ATOM      4  N   UNL     1       2.680   7.231  18.988  0.00  0.00    +0.000 N 
ATOM      5  C   UNL     1       1.771   8.143  19.622  0.00  0.00    +0.000 A 
ATOM      6  C   UNL     1       1.377   9.281  18.945  0.00  0.00    +0.000 A 
ATOM      7  C   UNL     1       0.507  10.100  19.629  0.00  0.00    +0.000 A 
ATOM      8  N   UNL     1       0.106   9.879  20.894  0.00  0.00    +0.000 NA
ATOM      9  C   UNL     1       0.537   8.751  21.455  0.00  0.00    +0.000 A 
ATOM     10  N   UNL     1       1.339   7.852  20.879  0.00  0.00    +0.000 NA
ATOM     11  C   UNL     1       3.132   6.009  19.491  0.00  0.00    +0.000 A 
ENDROOT
BRANCH  11  12
ATOM     12  N   UNL     1       2.698   5.460  20.649  0.00  0.00    +0.000 N 
ATOM     13  H   UNL     1       2.666   6.002  21.515  0.00  0.00    +0.000 HD
ATOM     14  H   UNL     1       2.444   4.474  20.723  0.00  0.00    +0.000 HD
ENDBRANCH  11  12
BRANCH   1  15
ATOM     15  C   UNL     1       4.881   4.345  18.759  0.00  0.00    +0.000 C 
ATOM     16  O   UNL     1       4.463   3.212  18.541  0.00  0.00    +0.000 OA
BRANCH  15  17
ATOM     17  O   UNL     1       6.114   4.624  19.274  0.00  0.00    +0.000 OA
BRANCH  17  19
ATOM     18  C   UNL     1       7.759   6.239  18.669  0.00  0.00    +0.000 C 
ATOM     19  C   UNL     1       7.120   4.913  18.296  0.00  0.00    +0.000 C 
ENDBRANCH  17  19
ENDBRANCH  15  17
ENDBRANCH   1  15
BRANCH   7  20
ATOM     20  O   UNL     1       0.044  11.229  18.959  0.00  0.00    +0.000 OA
BRANCH  20  21
ATOM     21  C   UNL     1      -1.254  11.207  18.491  0.00  0.00    +0.000 A 
ATOM     22  C   UNL     1      -2.330  11.770  19.184  0.00  0.00    +0.000 A 
ATOM     23  C   UNL     1      -3.617  11.704  18.655  0.00  0.00    +0.000 A 
ATOM     24  C   UNL     1      -3.843  11.039  17.451  0.00  0.00    +0.000 A 
ATOM     25  C   UNL     1      -2.783  10.433  16.766  0.00  0.00    +0.000 A 
ATOM     26  C   UNL     1      -3.026   9.700  15.479  0.00  0.00    +0.000 C 
ATOM     27  C   UNL     1      -1.485  10.519  17.296  0.00  0.00    +0.000 A 
ENDBRANCH  20  21
ENDBRANCH   7  20
TORSDOF 6
ENDMDL
MODEL 5
REMARK VINA RESULT:      -7.6      3.188      4.861
REMARK  Name = 
REMARK  8 active torsions:
REMARK  status: ('A' for Active; 'I' for Inactive)
REMARK    1  A    between atoms: C_1  and  C_2
REMARK    2  A    between atoms: C_2  and  O_3
REMARK    3  A    between atoms: O_3  and  C_4
REMARK    4  A    between atoms: C_4  and  C_6
REMARK    5  A    between atoms: C_12  and  O_13
REMARK    6  A    between atoms: O_13  and  C_14
REMARK    7  A    between atoms: C_18  and  C_19
REMARK    8  A    between atoms: C_24  and  N_25
REMARK                            x       y       z     vdW  Elec       q    Type
REMARK                         _______ _______ _______ _____ _____    ______ ____
ROOT
ATOM      1  C   UNL     1       1.228   9.773  19.262  0.00  0.00    +0.000 A 
ATOM      2  C   UNL     1       1.721   9.430  17.986  0.00  0.00    +0.000 A 
ATOM      3  N   UNL     1       2.201   8.186  17.920  0.00  0.00    +0.000 NA
ATOM      4  N   UNL     1       1.985   7.678  19.170  0.00  0.00    +0.000 N 
ATOM      5  C   UNL     1       2.274   6.308  19.486  0.00  0.00    +0.000 A 
ATOM      6  C   UNL     1       2.881   5.511  18.535  0.00  0.00    +0.000 A 
ATOM      7  C   UNL     1       3.119   4.212  18.923  0.00  0.00    +0.000 A 
ATOM      8  N   UNL     1       2.734   3.698  20.105  0.00  0.00    +0.000 NA
ATOM      9  C   UNL     1       2.161   4.551  20.953  0.00  0.00    +0.000 A 
ATOM     10  N   UNL     1       1.925   5.844  20.717  0.00  0.00    +0.000 NA
ATOM     11  C   UNL     1       1.437   8.640  20.022  0.00  0.00    +0.000 A 
ENDROOT
BRANCH  11  12
ATOM     12  N   UNL     1       1.171   8.427  21.331  0.00  0.00    +0.000 N 
ATOM     13  H   UNL     1       1.869   8.613  22.053  0.00  0.00    +0.000 HD
ATOM     14  H   UNL     1       0.292   8.016  21.648  0.00  0.00    +0.000 HD
ENDBRANCH  11  12
BRANCH   1  15
ATOM     15  C   UNL     1       0.590  10.994  19.702  0.00  0.00    +0.000 C 
ATOM     16  O   UNL     1       1.066  12.110  19.514  0.00  0.00    +0.000 OA
BRANCH  15  17
ATOM     17  O   UNL     1      -0.536  10.751  20.433  0.00  0.00    +0.000 OA
BRANCH  17  19
ATOM     18  C   UNL     1      -0.852  11.077  22.773  0.00  0.00    +0.000 C 
ATOM     19  C   UNL     1      -0.843  11.752  21.411  0.00  0.00    +0.000 C 
ENDBRANCH  17  19
ENDBRANCH  15  17
ENDBRANCH   1  15
BRANCH   7  20
ATOM     20  O   UNL     1       3.779   3.392  18.012  0.00  0.00    +0.000 OA
BRANCH  20  21
ATOM     21  C   UNL     1       4.963   3.856  17.476  0.00  0.00    +0.000 A 
ATOM     22  C   UNL     1       5.988   4.414  18.248  0.00  0.00    +0.000 A 
ATOM     23  C   UNL     1       7.155   4.870  17.639  0.00  0.00    +0.000 A 
ATOM     24  C   UNL     1       7.288   4.809  16.253  0.00  0.00    +0.000 A 
ATOM     25  C   UNL     1       6.254   4.293  15.462  0.00  0.00    +0.000 A 
ATOM     26  C   UNL     1       6.387   4.244  13.968  0.00  0.00    +0.000 C 
ATOM     27  C   UNL     1       5.087   3.819  16.084  0.00  0.00    +0.000 A 
ENDBRANCH  20  21
ENDBRANCH   7  20
TORSDOF 6
ENDMDL
MODEL 6
REMARK VINA RESULT:      -7.6      3.312      8.451
REMARK  Name = 
REMARK  8 active torsions:
REMARK  status: ('A' for Active; 'I' for Inactive)
REMARK    1  A    between atoms: C_1  and  C_2
REMARK    2  A    between atoms: C_2  and  O_3
REMARK    3  A    between atoms: O_3  and  C_4
REMARK    4  A    between atoms: C_4  and  C_6
REMARK    5  A    between atoms: C_12  and  O_13
REMARK    6  A    between atoms: O_13  and  C_14
REMARK    7  A    between atoms: C_18  and  C_19
REMARK    8  A    between atoms: C_24  and  N_25
REMARK                            x       y       z     vdW  Elec       q    Type
REMARK                         _______ _______ _______ _____ _____    ______ ____
ROOT
ATOM      1  C   UNL     1       4.294   5.733  18.240  0.00  0.00    +0.000 A 
ATOM      2  C   UNL     1       4.281   6.775  17.290  0.00  0.00    +0.000 A 
ATOM      3  N   UNL     1       3.394   7.733  17.567  0.00  0.00    +0.000 NA
ATOM      4  N   UNL     1       2.833   7.338  18.748  0.00  0.00    +0.000 N 
ATOM      5  C   UNL     1       1.886   8.162  19.445  0.00  0.00    +0.000 A 
ATOM      6  C   UNL     1       1.454   9.336  18.858  0.00  0.00    +0.000 A 
ATOM      7  C   UNL     1       0.549  10.064  19.597  0.00  0.00    +0.000 A 
ATOM      8  N   UNL     1       0.149   9.728  20.837  0.00  0.00    +0.000 NA
ATOM      9  C   UNL     1       0.620   8.575  21.310  0.00  0.00    +0.000 A 
ATOM     10  N   UNL     1       1.458   7.755  20.671  0.00  0.00    +0.000 NA
ATOM     11  C   UNL     1       3.328   6.097  19.156  0.00  0.00    +0.000 A 
ENDROOT
BRANCH  11  12
ATOM     12  N   UNL     1       2.908   5.442  20.263  0.00  0.00    +0.000 N 
ATOM     13  H   UNL     1       2.826   4.424  20.279  0.00  0.00    +0.000 HD
ATOM     14  H   UNL     1       2.599   5.934  21.102  0.00  0.00    +0.000 HD
ENDBRANCH  11  12
BRANCH   1  15
ATOM     15  C   UNL     1       5.143   4.564  18.309  0.00  0.00    +0.000 C 
ATOM     16  O   UNL     1       5.531   4.072  19.365  0.00  0.00    +0.000 OA
BRANCH  15  17
ATOM     17  O   UNL     1       5.539   4.144  17.074  0.00  0.00    +0.000 OA
BRANCH  17  19
ATOM     18  C   UNL     1       6.971   4.771  15.274  0.00  0.00    +0.000 C 
ATOM     19  C   UNL     1       6.906   4.428  16.753  0.00  0.00    +0.000 C 
ENDBRANCH  17  19
ENDBRANCH  15  17
ENDBRANCH   1  15
BRANCH   7  20
ATOM     20  O   UNL     1       0.048  11.225  19.015  0.00  0.00    +0.000 OA
BRANCH  20  21
ATOM     21  C   UNL     1      -1.249  11.195  18.545  0.00  0.00    +0.000 A 
ATOM     22  C   UNL     1      -2.327  11.767  19.228  0.00  0.00    +0.000 A 
ATOM     23  C   UNL     1      -3.613  11.692  18.697  0.00  0.00    +0.000 A 
ATOM     24  C   UNL     1      -3.835  11.011  17.502  0.00  0.00    +0.000 A 
ATOM     25  C   UNL     1      -2.773  10.396  16.827  0.00  0.00    +0.000 A 
ATOM     26  C   UNL     1      -3.014   9.645  15.551  0.00  0.00    +0.000 C 
ATOM     27  C   UNL     1      -1.477  10.490  17.359  0.00  0.00    +0.000 A 
ENDBRANCH  20  21
ENDBRANCH   7  20
TORSDOF 6
ENDMDL
MODEL 7
REMARK VINA RESULT:      -7.6      3.279      4.831
REMARK  Name = 
REMARK  8 active torsions:
REMARK  status: ('A' for Active; 'I' for Inactive)
REMARK    1  A    between atoms: C_1  and  C_2
REMARK    2  A    between atoms: C_2  and  O_3
REMARK    3  A    between atoms: O_3  and  C_4
REMARK    4  A    between atoms: C_4  and  C_6
REMARK    5  A    between atoms: C_12  and  O_13
REMARK    6  A    between atoms: O_13  and  C_14
REMARK    7  A    between atoms: C_18  and  C_19
REMARK    8  A    between atoms: C_24  and  N_25
REMARK                            x       y       z     vdW  Elec       q    Type
REMARK                         _______ _______ _______ _____ _____    ______ ____
ROOT
ATOM      1  C   UNL     1       1.078   9.841  19.752  0.00  0.00    +0.000 A 
ATOM      2  C   UNL     1       1.383   9.621  18.392  0.00  0.00    +0.000 A 
ATOM      3  N   UNL     1       1.880   8.406  18.151  0.00  0.00    +0.000 NA
ATOM      4  N   UNL     1       1.867   7.791  19.371  0.00  0.00    +0.000 N 
ATOM      5  C   UNL     1       2.236   6.412  19.522  0.00  0.00    +0.000 A 
ATOM      6  C   UNL     1       2.715   5.718  18.428  0.00  0.00    +0.000 A 
ATOM      7  C   UNL     1       3.042   4.402  18.664  0.00  0.00    +0.000 A 
ATOM      8  N   UNL     1       2.852   3.781  19.842  0.00  0.00    +0.000 NA
ATOM      9  C   UNL     1       2.391   4.539  20.835  0.00  0.00    +0.000 A 
ATOM     10  N   UNL     1       2.088   5.837  20.747  0.00  0.00    +0.000 NA
ATOM     11  C   UNL     1       1.429   8.659  20.373  0.00  0.00    +0.000 A 
ENDROOT
BRANCH  11  12
ATOM     12  N   UNL     1       1.368   8.331  21.684  0.00  0.00    +0.000 N 
ATOM     13  H   UNL     1       1.519   9.030  22.415  0.00  0.00    +0.000 HD
ATOM     14  H   UNL     1       1.231   7.370  21.999  0.00  0.00    +0.000 HD
ENDBRANCH  11  12
BRANCH   1  15
ATOM     15  C   UNL     1       0.482  10.997  20.384  0.00  0.00    +0.000 C 
ATOM     16  O   UNL     1       0.918  11.504  21.413  0.00  0.00    +0.000 OA
BRANCH  15  17
ATOM     17  O   UNL     1      -0.668  11.386  19.762  0.00  0.00    +0.000 OA
BRANCH  17  19
ATOM     18  C   UNL     1      -0.341  13.215  18.268  0.00  0.00    +0.000 C 
ATOM     19  C   UNL     1      -0.836  12.804  19.644  0.00  0.00    +0.000 C 
ENDBRANCH  17  19
ENDBRANCH  15  17
ENDBRANCH   1  15
BRANCH   7  20
ATOM     20  O   UNL     1       3.579   3.684  17.599  0.00  0.00    +0.000 OA
BRANCH  20  21
ATOM     21  C   UNL     1       4.852   4.016  17.183  0.00  0.00    +0.000 A 
ATOM     22  C   UNL     1       5.869   4.408  18.060  0.00  0.00    +0.000 A 
ATOM     23  C   UNL     1       7.131   4.737  17.569  0.00  0.00    +0.000 A 
ATOM     24  C   UNL     1       7.372   4.716  16.196  0.00  0.00    +0.000 A 
ATOM     25  C   UNL     1       6.353   4.367  15.302  0.00  0.00    +0.000 A 
ATOM     26  C   UNL     1       6.604   4.364  13.822  0.00  0.00    +0.000 C 
ATOM     27  C   UNL     1       5.088   4.020  15.805  0.00  0.00    +0.000 A 
ENDBRANCH  20  21
ENDBRANCH   7  20
TORSDOF 6
ENDMDL
MODEL 8
REMARK VINA RESULT:      -7.5      3.097      4.576
REMARK  Name = 
REMARK  8 active torsions:
REMARK  status: ('A' for Active; 'I' for Inactive)
REMARK    1  A    between atoms: C_1  and  C_2
REMARK    2  A    between atoms: C_2  and  O_3
REMARK    3  A    between atoms: O_3  and  C_4
REMARK    4  A    between atoms: C_4  and  C_6
REMARK    5  A    between atoms: C_12  and  O_13
REMARK    6  A    between atoms: O_13  and  C_14
REMARK    7  A    between atoms: C_18  and  C_19
REMARK    8  A    between atoms: C_24  and  N_25
REMARK                            x       y       z     vdW  Elec       q    Type
REMARK                         _______ _______ _______ _____ _____    ______ ____
ROOT
ATOM      1  C   UNL     1       1.155   9.869  19.420  0.00  0.00    +0.000 A 
ATOM      2  C   UNL     1       1.678   9.583  18.141  0.00  0.00    +0.000 A 
ATOM      3  N   UNL     1       2.156   8.342  18.030  0.00  0.00    +0.000 NA
ATOM      4  N   UNL     1       1.908   7.778  19.249  0.00  0.00    +0.000 N 
ATOM      5  C   UNL     1       2.185   6.394  19.508  0.00  0.00    +0.000 A 
ATOM      6  C   UNL     1       2.813   5.639  18.537  0.00  0.00    +0.000 A 
ATOM      7  C   UNL     1       3.038   4.322  18.870  0.00  0.00    +0.000 A 
ATOM      8  N   UNL     1       2.623   3.756  20.018  0.00  0.00    +0.000 NA
ATOM      9  C   UNL     1       2.032   4.571  20.890  0.00  0.00    +0.000 A 
ATOM     10  N   UNL     1       1.805   5.875  20.708  0.00  0.00    +0.000 NA
ATOM     11  C   UNL     1       1.343   8.702  20.131  0.00  0.00    +0.000 A 
ENDROOT
BRANCH  11  12
ATOM     12  N   UNL     1       1.043   8.429  21.422  0.00  0.00    +0.000 N 
ATOM     13  H   UNL     1       1.773   8.203  22.101  0.00  0.00    +0.000 HD
ATOM     14  H   UNL     1       0.081   8.377  21.758  0.00  0.00    +0.000 HD
ENDBRANCH  11  12
BRANCH   1  15
ATOM     15  C   UNL     1       0.510  11.071  19.900  0.00  0.00    +0.000 C 
ATOM     16  O   UNL     1       0.902  12.203  19.629  0.00  0.00    +0.000 OA
BRANCH  15  17
ATOM     17  O   UNL     1      -0.509  10.797  20.763  0.00  0.00    +0.000 OA
BRANCH  17  19
ATOM     18  C   UNL     1      -1.134  10.832  23.063  0.00  0.00    +0.000 C 
ATOM     19  C   UNL     1      -0.564  11.647  21.915  0.00  0.00    +0.000 C 
ENDBRANCH  17  19
ENDBRANCH  15  17
ENDBRANCH   1  15
BRANCH   7  20
ATOM     20  O   UNL     1       3.718   3.543  17.938  0.00  0.00    +0.000 OA
BRANCH  20  21
ATOM     21  C   UNL     1       4.934   4.009  17.481  0.00  0.00    +0.000 A 
ATOM     22  C   UNL     1       5.357   3.876  16.154  0.00  0.00    +0.000 A 
ATOM     23  C   UNL     1       6.602   4.364  15.763  0.00  0.00    +0.000 A 
ATOM     24  C   UNL     1       7.448   4.951  16.704  0.00  0.00    +0.000 A 
ATOM     25  C   UNL     1       7.056   5.053  18.044  0.00  0.00    +0.000 A 
ATOM     26  C   UNL     1       7.973   5.666  19.062  0.00  0.00    +0.000 C 
ATOM     27  C   UNL     1       5.793   4.574  18.428  0.00  0.00    +0.000 A 
ENDBRANCH  20  21
ENDBRANCH   7  20
TORSDOF 6
ENDMDL
MODEL 9
REMARK VINA RESULT:      -7.5      3.070      8.342
REMARK  Name = 
REMARK  8 active torsions:
REMARK  status: ('A' for Active; 'I' for Inactive)
REMARK    1  A    between atoms: C_1  and  C_2
REMARK    2  A    between atoms: C_2  and  O_3
REMARK    3  A    between atoms: O_3  and  C_4
REMARK    4  A    between atoms: C_4  and  C_6
REMARK    5  A    between atoms: C_12  and  O_13
REMARK    6  A    between atoms: O_13  and  C_14
REMARK    7  A    between atoms: C_18  and  C_19
REMARK    8  A    between atoms: C_24  and  N_25
REMARK                            x       y       z     vdW  Elec       q    Type
REMARK                         _______ _______ _______ _____ _____    ______ ____
ROOT
ATOM      1  C   UNL     1       4.254   5.601  18.460  0.00  0.00    +0.000 A 
ATOM      2  C   UNL     1       4.187   6.555  17.422  0.00  0.00    +0.000 A 
ATOM      3  N   UNL     1       3.275   7.505  17.635  0.00  0.00    +0.000 NA
ATOM      4  N   UNL     1       2.752   7.199  18.860  0.00  0.00    +0.000 N 
ATOM      5  C   UNL     1       1.795   8.053  19.504  0.00  0.00    +0.000 A 
ATOM      6  C   UNL     1       1.312   9.156  18.828  0.00  0.00    +0.000 A 
ATOM      7  C   UNL     1       0.401   9.918  19.522  0.00  0.00    +0.000 A 
ATOM      8  N   UNL     1       0.038   9.681  20.796  0.00  0.00    +0.000 NA
ATOM      9  C   UNL     1       0.556   8.590  21.357  0.00  0.00    +0.000 A 
ATOM     10  N   UNL     1       1.407   7.743  20.772  0.00  0.00    +0.000 NA
ATOM     11  C   UNL     1       3.296   6.015  19.363  0.00  0.00    +0.000 A 
ENDROOT
BRANCH  11  12
ATOM     12  N   UNL     1       2.922   5.448  20.532  0.00  0.00    +0.000 N 
ATOM     13  H   UNL     1       2.041   5.698  20.987  0.00  0.00    +0.000 HD
ATOM     14  H   UNL     1       3.524   4.799  21.040  0.00  0.00    +0.000 HD
ENDBRANCH  11  12
BRANCH   1  15
ATOM     15  C   UNL     1       5.141   4.469  18.610  0.00  0.00    +0.000 C 
ATOM     16  O   UNL     1       6.285   4.443  18.164  0.00  0.00    +0.000 OA
BRANCH  15  17
ATOM     17  O   UNL     1       4.525   3.409  19.208  0.00  0.00    +0.000 OA
BRANCH  17  19
ATOM     18  C   UNL     1       2.535   2.119  18.970  0.00  0.00    +0.000 C 
ATOM     19  C   UNL     1       3.841   2.528  18.310  0.00  0.00    +0.000 C 
ENDBRANCH  17  19
ENDBRANCH  15  17
ENDBRANCH   1  15
BRANCH   7  20
ATOM     20  O   UNL     1      -0.150  11.008  18.853  0.00  0.00    +0.000 OA
BRANCH  20  21
ATOM     21  C   UNL     1      -1.433  10.875  18.363  0.00  0.00    +0.000 A 
ATOM     22  C   UNL     1      -1.758  10.061  17.273  0.00  0.00    +0.000 A 
ATOM     23  C   UNL     1      -3.075   9.980  16.826  0.00  0.00    +0.000 A 
ATOM     24  C   UNL     1      -4.068  10.743  17.438  0.00  0.00    +0.000 A 
ATOM     25  C   UNL     1      -3.752  11.595  18.503  0.00  0.00    +0.000 A 
ATOM     26  C   UNL     1      -4.815  12.433  19.152  0.00  0.00    +0.000 C 
ATOM     27  C   UNL     1      -2.425  11.659  18.960  0.00  0.00    +0.000 A 
ENDBRANCH  20  21
ENDBRANCH   7  20
TORSDOF 6
ENDMDL
