MODEL 1
REMARK VINA RESULT:      -7.9      0.000      0.000
REMARK  Name = 
REMARK  5 active torsions:
REMARK  status: ('A' for Active; 'I' for Inactive)
REMARK    1  A    between atoms: C_1  and  N_2
REMARK    2  A    between atoms: N_5  and  C_6
REMARK    3  A    between atoms: C_16  and  C_17
REMARK    4  A    between atoms: C_21  and  O_22
REMARK    5  A    between atoms: C_23  and  O_24
REMARK                            x       y       z     vdW  Elec       q    Type
REMARK                         _______ _______ _______ _____ _____    ______ ____
ROOT
ATOM      1  C   UNL     1       1.480   6.114  20.796  0.00  0.00    +0.000 C 
ATOM      2  N   UNL     1       1.833   7.323  20.086  0.00  0.00    +0.000 N 
ATOM      3  C   UNL     1       1.412   8.618  20.470  0.00  0.00    +0.000 C 
ATOM      4  S   UNL     1       1.024   9.091  22.035  0.00  0.00    +0.000 S 
ATOM      5  N   UNL     1       1.478   9.440  19.335  0.00  0.00    +0.000 N 
ATOM      6  C   UNL     1       2.041   8.755  18.266  0.00  0.00    +0.000 C 
ATOM      7  O   UNL     1       2.227   9.113  17.119  0.00  0.00    +0.000 OA
ATOM      8  C   UNL     1       2.291   7.362  18.788  0.00  0.00    +0.000 C 
ATOM      9  C   UNL     1       2.850   6.412  18.028  0.00  0.00    +0.000 C 
ENDROOT
BRANCH   5  10
ATOM     10  C   UNL     1       0.716  10.621  19.131  0.00  0.00    +0.000 A 
ATOM     11  C   UNL     1       1.312  11.888  19.173  0.00  0.00    +0.000 A 
ATOM     12  C   UNL     1       0.563  13.030  18.865  0.00  0.00    +0.000 A 
ATOM     13  C   UNL     1      -0.774  12.913  18.482  0.00  0.00    +0.000 A 
ATOM     14  C   UNL     1      -1.369  11.657  18.438  0.00  0.00    +0.000 A 
ATOM     15 CL   UNL     1      -3.005  11.493  17.931  0.00  0.00    +0.000 Cl
ATOM     16  C   UNL     1      -0.637  10.520  18.768  0.00  0.00    +0.000 A 
ENDBRANCH   5  10
BRANCH   9  17
ATOM     17  C   UNL     1       3.210   5.037  18.411  0.00  0.00    +0.000 A 
ATOM     18  C   UNL     1       4.402   4.806  19.113  0.00  0.00    +0.000 A 
ATOM     19  C   UNL     1       4.819   3.500  19.404  0.00  0.00    +0.000 A 
ATOM     20  C   UNL     1       4.049   2.407  19.009  0.00  0.00    +0.000 A 
ATOM     21  C   UNL     1       2.847   2.634  18.352  0.00  0.00    +0.000 A 
ATOM     22  C   UNL     1       2.428   3.934  18.054  0.00  0.00    +0.000 A 
BRANCH  21  23
ATOM     23  O   UNL     1       2.033   1.602  17.970  0.00  0.00    +0.000 OA
ATOM     24  H   UNL     1       1.607   1.236  18.765  0.00  0.00    +0.000 HD
ENDBRANCH  21  23
BRANCH  22  25
ATOM     25  O   UNL     1       1.229   4.106  17.414  0.00  0.00    +0.000 OA
ATOM     26  H   UNL     1       1.447   4.030  16.463  0.00  0.00    +0.000 HD
ENDBRANCH  22  25
ENDBRANCH   9  17
TORSDOF 4
ENDMDL
MODEL 2
REMARK VINA RESULT:      -7.7      1.123      1.491
REMARK  Name = 
REMARK  5 active torsions:
REMARK  status: ('A' for Active; 'I' for Inactive)
REMARK    1  A    between atoms: C_1  and  N_2
REMARK    2  A    between atoms: N_5  and  C_6
REMARK    3  A    between atoms: C_16  and  C_17
REMARK    4  A    between atoms: C_21  and  O_22
REMARK    5  A    between atoms: C_23  and  O_24
REMARK                            x       y       z     vdW  Elec       q    Type
REMARK                         _______ _______ _______ _____ _____    ______ ____
ROOT
ATOM      1  C   UNL     1       1.511   6.126  20.814  0.00  0.00    +0.000 C 
ATOM      2  N   UNL     1       1.818   7.350  20.106  0.00  0.00    +0.000 N 
ATOM      3  C   UNL     1       1.369   8.631  20.508  0.00  0.00    +0.000 C 
ATOM      4  S   UNL     1       1.001   9.082  22.084  0.00  0.00    +0.000 S 
ATOM      5  N   UNL     1       1.390   9.462  19.378  0.00  0.00    +0.000 N 
ATOM      6  C   UNL     1       1.949   8.800  18.293  0.00  0.00    +0.000 C 
ATOM      7  O   UNL     1       2.103   9.170  17.146  0.00  0.00    +0.000 OA
ATOM      8  C   UNL     1       2.248   7.410  18.799  0.00  0.00    +0.000 C 
ATOM      9  C   UNL     1       2.817   6.481  18.022  0.00  0.00    +0.000 C 
ENDROOT
BRANCH   5  10
ATOM     10  C   UNL     1       0.593  10.623  19.198  0.00  0.00    +0.000 A 
ATOM     11  C   UNL     1      -0.800  10.540  19.088  0.00  0.00    +0.000 A 
ATOM     12  C   UNL     1      -1.573  11.706  19.017  0.00  0.00    +0.000 A 
ATOM     13  C   UNL     1      -0.964  12.959  19.087  0.00  0.00    +0.000 A 
ATOM     14  C   UNL     1       0.420  13.046  19.197  0.00  0.00    +0.000 A 
ATOM     15 CL   UNL     1       1.181  14.584  19.323  0.00  0.00    +0.000 Cl
ATOM     16  C   UNL     1       1.196  11.891  19.242  0.00  0.00    +0.000 A 
ENDBRANCH   5  10
BRANCH   9  17
ATOM     17  C   UNL     1       3.220   5.114  18.387  0.00  0.00    +0.000 A 
ATOM     18  C   UNL     1       4.432   4.911  19.065  0.00  0.00    +0.000 A 
ATOM     19  C   UNL     1       4.890   3.614  19.338  0.00  0.00    +0.000 A 
ATOM     20  C   UNL     1       4.143   2.503  18.949  0.00  0.00    +0.000 A 
ATOM     21  C   UNL     1       2.922   2.701  18.316  0.00  0.00    +0.000 A 
ATOM     22  C   UNL     1       2.463   3.992  18.036  0.00  0.00    +0.000 A 
BRANCH  21  23
ATOM     23  O   UNL     1       2.130   1.650  17.941  0.00  0.00    +0.000 OA
ATOM     24  H   UNL     1       1.678   1.309  18.732  0.00  0.00    +0.000 HD
ENDBRANCH  21  23
BRANCH  22  25
ATOM     25  O   UNL     1       1.248   4.136  17.420  0.00  0.00    +0.000 OA
ATOM     26  H   UNL     1       1.281   3.512  16.666  0.00  0.00    +0.000 HD
ENDBRANCH  22  25
ENDBRANCH   9  17
TORSDOF 4
ENDMDL
MODEL 3
REMARK VINA RESULT:      -7.7      1.268      1.606
REMARK  Name = 
REMARK  5 active torsions:
REMARK  status: ('A' for Active; 'I' for Inactive)
REMARK    1  A    between atoms: C_1  and  N_2
REMARK    2  A    between atoms: N_5  and  C_6
REMARK    3  A    between atoms: C_16  and  C_17
REMARK    4  A    between atoms: C_21  and  O_22
REMARK    5  A    between atoms: C_23  and  O_24
REMARK                            x       y       z     vdW  Elec       q    Type
REMARK                         _______ _______ _______ _____ _____    ______ ____
ROOT
ATOM      1  C   UNL     1       1.334   5.940  20.669  0.00  0.00    +0.000 C 
ATOM      2  N   UNL     1       1.755   7.147  19.992  0.00  0.00    +0.000 N 
ATOM      3  C   UNL     1       1.472   8.454  20.455  0.00  0.00    +0.000 C 
ATOM      4  S   UNL     1       1.213   8.883  22.059  0.00  0.00    +0.000 S 
ATOM      5  N   UNL     1       1.549   9.320  19.355  0.00  0.00    +0.000 N 
ATOM      6  C   UNL     1       1.990   8.641  18.226  0.00  0.00    +0.000 C 
ATOM      7  O   UNL     1       2.145   9.036  17.087  0.00  0.00    +0.000 OA
ATOM      8  C   UNL     1       2.143   7.208  18.672  0.00  0.00    +0.000 C 
ATOM      9  C   UNL     1       2.574   6.251  17.842  0.00  0.00    +0.000 C 
ENDROOT
BRANCH   5  10
ATOM     10  C   UNL     1       0.885  10.570  19.246  0.00  0.00    +0.000 A 
ATOM     11  C   UNL     1       1.602  11.770  19.156  0.00  0.00    +0.000 A 
ATOM     12  C   UNL     1       0.930  12.979  18.943  0.00  0.00    +0.000 A 
ATOM     13  C   UNL     1      -0.457  12.996  18.788  0.00  0.00    +0.000 A 
ATOM     14  C   UNL     1      -1.172  11.807  18.876  0.00  0.00    +0.000 A 
ATOM     15 CL   UNL     1      -2.878  11.808  18.650  0.00  0.00    +0.000 Cl
ATOM     16  C   UNL     1      -0.513  10.605  19.113  0.00  0.00    +0.000 A 
ENDBRANCH   5  10
BRANCH   9  17
ATOM     17  C   UNL     1       2.830   4.833  18.143  0.00  0.00    +0.000 A 
ATOM     18  C   UNL     1       1.876   3.869  17.785  0.00  0.00    +0.000 A 
ATOM     19  C   UNL     1       2.046   2.526  18.146  0.00  0.00    +0.000 A 
ATOM     20  C   UNL     1       3.174   2.122  18.861  0.00  0.00    +0.000 A 
ATOM     21  C   UNL     1       4.141   3.067  19.179  0.00  0.00    +0.000 A 
ATOM     22  C   UNL     1       3.974   4.409  18.826  0.00  0.00    +0.000 A 
BRANCH  21  23
ATOM     23  O   UNL     1       5.285   2.724  19.850  0.00  0.00    +0.000 OA
ATOM     24  H   UNL     1       5.893   3.482  19.824  0.00  0.00    +0.000 HD
ENDBRANCH  21  23
BRANCH  22  25
ATOM     25  O   UNL     1       4.961   5.301  19.154  0.00  0.00    +0.000 OA
ATOM     26  H   UNL     1       5.011   5.904  18.386  0.00  0.00    +0.000 HD
ENDBRANCH  22  25
ENDBRANCH   9  17
TORSDOF 4
ENDMDL
MODEL 4
REMARK VINA RESULT:      -7.4      1.790      2.264
REMARK  Name = 
REMARK  5 active torsions:
REMARK  status: ('A' for Active; 'I' for Inactive)
REMARK    1  A    between atoms: C_1  and  N_2
REMARK    2  A    between atoms: N_5  and  C_6
REMARK    3  A    between atoms: C_16  and  C_17
REMARK    4  A    between atoms: C_21  and  O_22
REMARK    5  A    between atoms: C_23  and  O_24
REMARK                            x       y       z     vdW  Elec       q    Type
REMARK                         _______ _______ _______ _____ _____    ______ ____
ROOT
ATOM      1  C   UNL     1       1.378   6.034  20.691  0.00  0.00    +0.000 C 
ATOM      2  N   UNL     1       1.748   7.272  20.040  0.00  0.00    +0.000 N 
ATOM      3  C   UNL     1       1.451   8.557  20.555  0.00  0.00    +0.000 C 
ATOM      4  S   UNL     1       1.237   8.928  22.179  0.00  0.00    +0.000 S 
ATOM      5  N   UNL     1       1.471   9.459  19.481  0.00  0.00    +0.000 N 
ATOM      6  C   UNL     1       1.888   8.827  18.317  0.00  0.00    +0.000 C 
ATOM      7  O   UNL     1       1.996   9.261  17.187  0.00  0.00    +0.000 OA
ATOM      8  C   UNL     1       2.090   7.384  18.711  0.00  0.00    +0.000 C 
ATOM      9  C   UNL     1       2.513   6.465  17.836  0.00  0.00    +0.000 C 
ENDROOT
BRANCH   5  10
ATOM     10  C   UNL     1       0.776  10.696  19.435  0.00  0.00    +0.000 A 
ATOM     11  C   UNL     1      -0.623  10.745  19.399  0.00  0.00    +0.000 A 
ATOM     12  C   UNL     1      -1.288  11.976  19.461  0.00  0.00    +0.000 A 
ATOM     13  C   UNL     1      -0.564  13.161  19.591  0.00  0.00    +0.000 A 
ATOM     14  C   UNL     1       0.825  13.117  19.628  0.00  0.00    +0.000 A 
ATOM     15 CL   UNL     1       1.730  14.568  19.826  0.00  0.00    +0.000 Cl
ATOM     16  C   UNL     1       1.494  11.900  19.541  0.00  0.00    +0.000 A 
ENDBRANCH   5  10
BRANCH   9  17
ATOM     17  C   UNL     1       2.811   5.045  18.082  0.00  0.00    +0.000 A 
ATOM     18  C   UNL     1       1.883   4.068  17.692  0.00  0.00    +0.000 A 
ATOM     19  C   UNL     1       2.094   2.717  18.002  0.00  0.00    +0.000 A 
ATOM     20  C   UNL     1       3.237   2.320  18.695  0.00  0.00    +0.000 A 
ATOM     21  C   UNL     1       4.179   3.279  19.044  0.00  0.00    +0.000 A 
ATOM     22  C   UNL     1       3.971   4.629  18.743  0.00  0.00    +0.000 A 
BRANCH  21  23
ATOM     23  O   UNL     1       5.335   2.945  19.696  0.00  0.00    +0.000 OA
ATOM     24  H   UNL     1       5.117   2.740  20.621  0.00  0.00    +0.000 HD
ENDBRANCH  21  23
BRANCH  22  25
ATOM     25  O   UNL     1       4.934   5.535  19.099  0.00  0.00    +0.000 OA
ATOM     26  H   UNL     1       4.939   5.515  20.078  0.00  0.00    +0.000 HD
ENDBRANCH  22  25
ENDBRANCH   9  17
TORSDOF 4
ENDMDL
MODEL 5
REMARK VINA RESULT:      -6.7      3.563      7.523
REMARK  Name = 
REMARK  5 active torsions:
REMARK  status: ('A' for Active; 'I' for Inactive)
REMARK    1  A    between atoms: C_1  and  N_2
REMARK    2  A    between atoms: N_5  and  C_6
REMARK    3  A    between atoms: C_16  and  C_17
REMARK    4  A    between atoms: C_21  and  O_22
REMARK    5  A    between atoms: C_23  and  O_24
REMARK                            x       y       z     vdW  Elec       q    Type
REMARK                         _______ _______ _______ _____ _____    ______ ____
ROOT
ATOM      1  C   UNL     1       1.263   8.267  20.964  0.00  0.00    +0.000 C 
ATOM      2  N   UNL     1       1.749   7.754  19.702  0.00  0.00    +0.000 N 
ATOM      3  C   UNL     1       2.378   6.495  19.549  0.00  0.00    +0.000 C 
ATOM      4  S   UNL     1       2.126   5.157  20.533  0.00  0.00    +0.000 S 
ATOM      5  N   UNL     1       3.155   6.548  18.382  0.00  0.00    +0.000 N 
ATOM      6  C   UNL     1       2.955   7.749  17.714  0.00  0.00    +0.000 C 
ATOM      7  O   UNL     1       3.473   8.174  16.700  0.00  0.00    +0.000 OA
ATOM      8  C   UNL     1       2.004   8.526  18.590  0.00  0.00    +0.000 C 
ATOM      9  C   UNL     1       1.566   9.744  18.252  0.00  0.00    +0.000 C 
ENDROOT
BRANCH   5  10
ATOM     10  C   UNL     1       4.291   5.740  18.116  0.00  0.00    +0.000 A 
ATOM     11  C   UNL     1       4.290   4.801  17.077  0.00  0.00    +0.000 A 
ATOM     12  C   UNL     1       5.456   4.091  16.766  0.00  0.00    +0.000 A 
ATOM     13  C   UNL     1       6.637   4.336  17.468  0.00  0.00    +0.000 A 
ATOM     14  C   UNL     1       6.643   5.268  18.499  0.00  0.00    +0.000 A 
ATOM     15 CL   UNL     1       8.101   5.607  19.348  0.00  0.00    +0.000 Cl
ATOM     16  C   UNL     1       5.481   5.958  18.831  0.00  0.00    +0.000 A 
ENDBRANCH   5  10
BRANCH   9  17
ATOM     17  C   UNL     1       0.600  10.593  18.967  0.00  0.00    +0.000 A 
ATOM     18  C   UNL     1       1.000  11.263  20.133  0.00  0.00    +0.000 A 
ATOM     19  C   UNL     1       0.076  11.999  20.888  0.00  0.00    +0.000 A 
ATOM     20  C   UNL     1      -1.257  12.086  20.487  0.00  0.00    +0.000 A 
ATOM     21  C   UNL     1      -1.647  11.460  19.310  0.00  0.00    +0.000 A 
ATOM     22  C   UNL     1      -0.731  10.720  18.556  0.00  0.00    +0.000 A 
BRANCH  21  23
ATOM     23  O   UNL     1      -2.933  11.537  18.848  0.00  0.00    +0.000 OA
ATOM     24  H   UNL     1      -3.062  12.414  18.447  0.00  0.00    +0.000 HD
ENDBRANCH  21  23
BRANCH  22  25
ATOM     25  O   UNL     1      -1.162  10.129  17.397  0.00  0.00    +0.000 OA
ATOM     26  H   UNL     1      -0.375   9.660  17.054  0.00  0.00    +0.000 HD
ENDBRANCH  22  25
ENDBRANCH   9  17
TORSDOF 4
ENDMDL
MODEL 6
REMARK VINA RESULT:      -6.5      3.462      7.862
REMARK  Name = 
REMARK  5 active torsions:
REMARK  status: ('A' for Active; 'I' for Inactive)
REMARK    1  A    between atoms: C_1  and  N_2
REMARK    2  A    between atoms: N_5  and  C_6
REMARK    3  A    between atoms: C_16  and  C_17
REMARK    4  A    between atoms: C_21  and  O_22
REMARK    5  A    between atoms: C_23  and  O_24
REMARK                            x       y       z     vdW  Elec       q    Type
REMARK                         _______ _______ _______ _____ _____    ______ ____
ROOT
ATOM      1  C   UNL     1       2.198   9.385  17.565  0.00  0.00    +0.000 C 
ATOM      2  N   UNL     1       2.360   8.352  18.564  0.00  0.00    +0.000 N 
ATOM      3  C   UNL     1       3.066   7.145  18.347  0.00  0.00    +0.000 C 
ATOM      4  S   UNL     1       4.321   6.936  17.251  0.00  0.00    +0.000 S 
ATOM      5  N   UNL     1       2.595   6.205  19.277  0.00  0.00    +0.000 N 
ATOM      6  C   UNL     1       1.703   6.795  20.162  0.00  0.00    +0.000 C 
ATOM      7  O   UNL     1       1.063   6.304  21.071  0.00  0.00    +0.000 OA
ATOM      8  C   UNL     1       1.576   8.223  19.689  0.00  0.00    +0.000 C 
ATOM      9  C   UNL     1       0.799   9.111  20.321  0.00  0.00    +0.000 C 
ENDROOT
BRANCH   5  10
ATOM     10  C   UNL     1       2.646   4.795  19.116  0.00  0.00    +0.000 A 
ATOM     11  C   UNL     1       1.885   4.147  18.136  0.00  0.00    +0.000 A 
ATOM     12  C   UNL     1       2.030   2.770  17.927  0.00  0.00    +0.000 A 
ATOM     13  C   UNL     1       2.957   2.039  18.672  0.00  0.00    +0.000 A 
ATOM     14  C   UNL     1       3.715   2.679  19.645  0.00  0.00    +0.000 A 
ATOM     15 CL   UNL     1       4.888   1.798  20.545  0.00  0.00    +0.000 Cl
ATOM     16  C   UNL     1       3.557   4.043  19.876  0.00  0.00    +0.000 A 
ENDBRANCH   5  10
BRANCH   9  17
ATOM     17  C   UNL     1       0.621  10.540  20.018  0.00  0.00    +0.000 A 
ATOM     18  C   UNL     1       1.402  11.490  20.694  0.00  0.00    +0.000 A 
ATOM     19  C   UNL     1       1.187  12.861  20.499  0.00  0.00    +0.000 A 
ATOM     20  C   UNL     1       0.198  13.305  19.622  0.00  0.00    +0.000 A 
ATOM     21  C   UNL     1      -0.548  12.367  18.920  0.00  0.00    +0.000 A 
ATOM     22  C   UNL     1      -0.342  10.998  19.114  0.00  0.00    +0.000 A 
BRANCH  21  23
ATOM     23  O   UNL     1      -1.510  12.743  18.021  0.00  0.00    +0.000 OA
ATOM     24  H   UNL     1      -1.681  11.994  17.424  0.00  0.00    +0.000 HD
ENDBRANCH  21  23
BRANCH  22  25
ATOM     25  O   UNL     1      -1.096  10.113  18.389  0.00  0.00    +0.000 OA
ATOM     26  H   UNL     1      -0.491   9.364  18.213  0.00  0.00    +0.000 HD
ENDBRANCH  22  25
ENDBRANCH   9  17
TORSDOF 4
ENDMDL
MODEL 7
REMARK VINA RESULT:      -6.4      3.430      7.748
REMARK  Name = 
REMARK  5 active torsions:
REMARK  status: ('A' for Active; 'I' for Inactive)
REMARK    1  A    between atoms: C_1  and  N_2
REMARK    2  A    between atoms: N_5  and  C_6
REMARK    3  A    between atoms: C_16  and  C_17
REMARK    4  A    between atoms: C_21  and  O_22
REMARK    5  A    between atoms: C_23  and  O_24
REMARK                            x       y       z     vdW  Elec       q    Type
REMARK                         _______ _______ _______ _____ _____    ______ ____
ROOT
ATOM      1  C   UNL     1       1.247   8.729  21.654  0.00  0.00    +0.000 C 
ATOM      2  N   UNL     1       1.442   8.292  20.289  0.00  0.00    +0.000 N 
ATOM      3  C   UNL     1       1.946   7.019  19.929  0.00  0.00    +0.000 C 
ATOM      4  S   UNL     1       1.806   5.622  20.852  0.00  0.00    +0.000 S 
ATOM      5  N   UNL     1       2.481   7.124  18.637  0.00  0.00    +0.000 N 
ATOM      6  C   UNL     1       2.232   8.382  18.104  0.00  0.00    +0.000 C 
ATOM      7  O   UNL     1       2.568   8.859  17.037  0.00  0.00    +0.000 OA
ATOM      8  C   UNL     1       1.524   9.135  19.202  0.00  0.00    +0.000 C 
ATOM      9  C   UNL     1       1.108  10.397  19.041  0.00  0.00    +0.000 C 
ENDROOT
BRANCH   5  10
ATOM     10  C   UNL     1       3.488   6.283  18.095  0.00  0.00    +0.000 A 
ATOM     11  C   UNL     1       3.183   5.014  17.588  0.00  0.00    +0.000 A 
ATOM     12  C   UNL     1       4.174   4.247  16.963  0.00  0.00    +0.000 A 
ATOM     13  C   UNL     1       5.466   4.753  16.813  0.00  0.00    +0.000 A 
ATOM     14  C   UNL     1       5.773   6.013  17.314  0.00  0.00    +0.000 A 
ATOM     15 CL   UNL     1       7.351   6.665  17.103  0.00  0.00    +0.000 Cl
ATOM     16  C   UNL     1       4.799   6.770  17.959  0.00  0.00    +0.000 A 
ENDBRANCH   5  10
BRANCH   9  17
ATOM     17  C   UNL     1       0.357  11.235  19.989  0.00  0.00    +0.000 A 
ATOM     18  C   UNL     1      -1.030  11.064  20.112  0.00  0.00    +0.000 A 
ATOM     19  C   UNL     1      -1.786  11.912  20.932  0.00  0.00    +0.000 A 
ATOM     20  C   UNL     1      -1.169  12.936  21.651  0.00  0.00    +0.000 A 
ATOM     21  C   UNL     1       0.210  13.081  21.565  0.00  0.00    +0.000 A 
ATOM     22  C   UNL     1       0.968  12.241  20.744  0.00  0.00    +0.000 A 
BRANCH  21  23
ATOM     23  O   UNL     1       0.875  14.046  22.272  0.00  0.00    +0.000 OA
ATOM     24  H   UNL     1       0.321  14.308  23.028  0.00  0.00    +0.000 HD
ENDBRANCH  21  23
BRANCH  22  25
ATOM     25  O   UNL     1       2.326  12.418  20.701  0.00  0.00    +0.000 OA
ATOM     26  H   UNL     1       2.593  12.054  19.833  0.00  0.00    +0.000 HD
ENDBRANCH  22  25
ENDBRANCH   9  17
TORSDOF 4
ENDMDL
MODEL 8
REMARK VINA RESULT:      -6.4      3.527      7.724
REMARK  Name = 
REMARK  5 active torsions:
REMARK  status: ('A' for Active; 'I' for Inactive)
REMARK    1  A    between atoms: C_1  and  N_2
REMARK    2  A    between atoms: N_5  and  C_6
REMARK    3  A    between atoms: C_16  and  C_17
REMARK    4  A    between atoms: C_21  and  O_22
REMARK    5  A    between atoms: C_23  and  O_24
REMARK                            x       y       z     vdW  Elec       q    Type
REMARK                         _______ _______ _______ _____ _____    ______ ____
ROOT
ATOM      1  C   UNL     1       1.067   8.273  21.345  0.00  0.00    +0.000 C 
ATOM      2  N   UNL     1       1.518   7.818  20.048  0.00  0.00    +0.000 N 
ATOM      3  C   UNL     1       2.140   6.568  19.820  0.00  0.00    +0.000 C 
ATOM      4  S   UNL     1       1.913   5.185  20.747  0.00  0.00    +0.000 S 
ATOM      5  N   UNL     1       2.886   6.674  18.636  0.00  0.00    +0.000 N 
ATOM      6  C   UNL     1       2.671   7.904  18.030  0.00  0.00    +0.000 C 
ATOM      7  O   UNL     1       3.161   8.377  17.023  0.00  0.00    +0.000 OA
ATOM      8  C   UNL     1       1.745   8.641  18.967  0.00  0.00    +0.000 C 
ATOM      9  C   UNL     1       1.300   9.874  18.697  0.00  0.00    +0.000 C 
ENDROOT
BRANCH   5  10
ATOM     10  C   UNL     1       4.013   5.878  18.302  0.00  0.00    +0.000 A 
ATOM     11  C   UNL     1       3.980   4.984  17.225  0.00  0.00    +0.000 A 
ATOM     12  C   UNL     1       5.136   4.289  16.850  0.00  0.00    +0.000 A 
ATOM     13  C   UNL     1       6.338   4.504  17.525  0.00  0.00    +0.000 A 
ATOM     14  C   UNL     1       6.376   5.392  18.594  0.00  0.00    +0.000 A 
ATOM     15 CL   UNL     1       7.858   5.697  19.412  0.00  0.00    +0.000 Cl
ATOM     16  C   UNL     1       5.224   6.068  18.989  0.00  0.00    +0.000 A 
ENDBRANCH   5  10
BRANCH   9  17
ATOM     17  C   UNL     1       0.355  10.689  19.476  0.00  0.00    +0.000 A 
ATOM     18  C   UNL     1      -1.017  10.619  19.188  0.00  0.00    +0.000 A 
ATOM     19  C   UNL     1      -1.930  11.455  19.844  0.00  0.00    +0.000 A 
ATOM     20  C   UNL     1      -1.491  12.366  20.805  0.00  0.00    +0.000 A 
ATOM     21  C   UNL     1      -0.140  12.408  21.123  0.00  0.00    +0.000 A 
ATOM     22  C   UNL     1       0.776  11.581  20.468  0.00  0.00    +0.000 A 
BRANCH  21  23
ATOM     23  O   UNL     1       0.345  13.259  22.081  0.00  0.00    +0.000 OA
ATOM     24  H   UNL     1      -0.387  13.818  22.392  0.00  0.00    +0.000 HD
ENDBRANCH  21  23
BRANCH  22  25
ATOM     25  O   UNL     1       2.097  11.652  20.825  0.00  0.00    +0.000 OA
ATOM     26  H   UNL     1       2.274  10.804  21.280  0.00  0.00    +0.000 HD
ENDBRANCH  22  25
ENDBRANCH   9  17
TORSDOF 4
ENDMDL
MODEL 9
REMARK VINA RESULT:      -6.3      2.888      3.378
REMARK  Name = 
REMARK  5 active torsions:
REMARK  status: ('A' for Active; 'I' for Inactive)
REMARK    1  A    between atoms: C_1  and  N_2
REMARK    2  A    between atoms: N_5  and  C_6
REMARK    3  A    between atoms: C_16  and  C_17
REMARK    4  A    between atoms: C_21  and  O_22
REMARK    5  A    between atoms: C_23  and  O_24
REMARK                            x       y       z     vdW  Elec       q    Type
REMARK                         _______ _______ _______ _____ _____    ______ ____
ROOT
ATOM      1  C   UNL     1       3.190   4.978  18.169  0.00  0.00    +0.000 C 
ATOM      2  N   UNL     1       3.120   6.397  18.439  0.00  0.00    +0.000 N 
ATOM      3  C   UNL     1       2.221   6.984  19.361  0.00  0.00    +0.000 C 
ATOM      4  S   UNL     1       1.575   6.219  20.710  0.00  0.00    +0.000 S 
ATOM      5  N   UNL     1       2.059   8.329  18.999  0.00  0.00    +0.000 N 
ATOM      6  C   UNL     1       2.911   8.662  17.954  0.00  0.00    +0.000 C 
ATOM      7  O   UNL     1       3.033   9.708  17.347  0.00  0.00    +0.000 OA
ATOM      8  C   UNL     1       3.622   7.376  17.610  0.00  0.00    +0.000 C 
ATOM      9  C   UNL     1       4.547   7.315  16.645  0.00  0.00    +0.000 C 
ENDROOT
BRANCH   5  10
ATOM     10  C   UNL     1       0.931   9.133  19.309  0.00  0.00    +0.000 A 
ATOM     11  C   UNL     1       0.766   9.698  20.580  0.00  0.00    +0.000 A 
ATOM     12  C   UNL     1      -0.298  10.572  20.831  0.00  0.00    +0.000 A 
ATOM     13  C   UNL     1      -1.186  10.912  19.810  0.00  0.00    +0.000 A 
ATOM     14  C   UNL     1      -1.026  10.355  18.546  0.00  0.00    +0.000 A 
ATOM     15 CL   UNL     1      -2.090  10.794  17.267  0.00  0.00    +0.000 Cl
ATOM     16  C   UNL     1       0.015   9.465  18.296  0.00  0.00    +0.000 A 
ENDBRANCH   5  10
BRANCH   9  17
ATOM     17  C   UNL     1       5.362   6.159  16.239  0.00  0.00    +0.000 A 
ATOM     18  C   UNL     1       5.036   5.463  15.065  0.00  0.00    +0.000 A 
ATOM     19  C   UNL     1       5.732   4.302  14.705  0.00  0.00    +0.000 A 
ATOM     20  C   UNL     1       6.769   3.822  15.504  0.00  0.00    +0.000 A 
ATOM     21  C   UNL     1       7.123   4.532  16.644  0.00  0.00    +0.000 A 
ATOM     22  C   UNL     1       6.429   5.689  17.011  0.00  0.00    +0.000 A 
BRANCH  21  23
ATOM     23  O   UNL     1       8.154   4.128  17.449  0.00  0.00    +0.000 OA
ATOM     24  H   UNL     1       8.383   3.212  17.218  0.00  0.00    +0.000 HD
ENDBRANCH  21  23
BRANCH  22  25
ATOM     25  O   UNL     1       6.823   6.359  18.139  0.00  0.00    +0.000 OA
ATOM     26  H   UNL     1       7.797   6.277  18.144  0.00  0.00    +0.000 HD
ENDBRANCH  22  25
ENDBRANCH   9  17
TORSDOF 4
ENDMDL
