MODEL 1
REMARK VINA RESULT:      -7.5      0.000      0.000
REMARK  Name = 
REMARK  5 active torsions:
REMARK  status: ('A' for Active; 'I' for Inactive)
REMARK    1  A    between atoms: C_2  and  O_3
REMARK    2  A    between atoms: C_2  and  C_4
REMARK    3  A    between atoms: C_6  and  C_7
REMARK    4  A    between atoms: C_14  and  O_15
REMARK    5  A    between atoms: C_16  and  O_17
REMARK                            x       y       z     vdW  Elec       q    Type
REMARK                         _______ _______ _______ _____ _____    ______ ____
ROOT
ATOM      1  C   UNK A   1       6.472   5.841  18.434  0.00  0.00    +0.000 A 
ATOM      2  N   UNK A   1       5.331   5.385  19.029  0.00  0.00    +0.000 NA
ATOM      3  C   UNK A   0       4.252   5.232  18.231  0.00  0.00    +0.000 A 
ATOM      4  N   UNK A   1       4.235   5.506  16.914  0.00  0.00    +0.000 NA
ATOM      5  C   UNK A   1       5.388   5.959  16.409  0.00  0.00    +0.000 A 
ATOM      6  C   UNK A   1       6.557   6.156  17.102  0.00  0.00    +0.000 A 
ENDROOT
BRANCH   3   7
ATOM      7  C   UNK A   0       3.051   4.631  18.841  0.00  0.00    +0.000 A 
ATOM      8  C   UNK A   0       2.772   4.809  20.212  0.00  0.00    +0.000 A 
ATOM      9  C   UNK A   0       1.697   4.171  20.832  0.00  0.00    +0.000 A 
ATOM     10  C   UNK A   0       0.862   3.344  20.090  0.00  0.00    +0.000 A 
ATOM     11  C   UNK A   0       1.085   3.179  18.726  0.00  0.00    +0.000 A 
ATOM     12  C   UNK A   0       2.164   3.821  18.107  0.00  0.00    +0.000 A 
ENDBRANCH   3   7
BRANCH   1  14
ATOM     13  O   UNK A   1       7.889   5.185  20.297  0.00  0.00    +0.000 OA
ATOM     14  C   UNK A   1       7.646   5.926  19.361  0.00  0.00    +0.000 C 
BRANCH  14  15
ATOM     15  O   UNK A   1       8.442   6.978  19.034  0.00  0.00    +0.000 OA
ATOM     16  H   UNK A   1       7.944   7.606  18.467  0.00  0.00    +0.000 HD
ENDBRANCH  14  15
ENDBRANCH   1  14
BRANCH   5  17
ATOM     17  O   UNK A   1       5.361   6.206  15.068  0.00  0.00    +0.000 OA
ATOM     18  H   UNK A   1       5.533   7.166  15.047  0.00  0.00    +0.000 HD
ENDBRANCH   5  17
BRANCH   6  19
ATOM     19  O   UNK A   1       7.673   6.604  16.475  0.00  0.00    +0.000 OA
ATOM     20  H   UNK A   1       7.612   6.323  15.540  0.00  0.00    +0.000 HD
ENDBRANCH   6  19
TORSDOF 5
ENDMDL
MODEL 2
REMARK VINA RESULT:      -7.5      0.119      1.172
REMARK  Name = 
REMARK  5 active torsions:
REMARK  status: ('A' for Active; 'I' for Inactive)
REMARK    1  A    between atoms: C_2  and  O_3
REMARK    2  A    between atoms: C_2  and  C_4
REMARK    3  A    between atoms: C_6  and  C_7
REMARK    4  A    between atoms: C_14  and  O_15
REMARK    5  A    between atoms: C_16  and  O_17
REMARK                            x       y       z     vdW  Elec       q    Type
REMARK                         _______ _______ _______ _____ _____    ______ ____
ROOT
ATOM      1  C   UNK A   1       6.495   5.818  18.474  0.00  0.00    +0.000 A 
ATOM      2  N   UNK A   1       5.381   5.299  19.067  0.00  0.00    +0.000 NA
ATOM      3  C   UNK A   0       4.297   5.129  18.277  0.00  0.00    +0.000 A 
ATOM      4  N   UNK A   1       4.253   5.442  16.970  0.00  0.00    +0.000 NA
ATOM      5  C   UNK A   1       5.381   5.955  16.466  0.00  0.00    +0.000 A 
ATOM      6  C   UNK A   1       6.551   6.177  17.152  0.00  0.00    +0.000 A 
ENDROOT
BRANCH   3   7
ATOM      7  C   UNK A   0       3.128   4.463  18.883  0.00  0.00    +0.000 A 
ATOM      8  C   UNK A   0       2.290   3.634  18.110  0.00  0.00    +0.000 A 
ATOM      9  C   UNK A   0       1.125   3.073  18.635  0.00  0.00    +0.000 A 
ATOM     10  C   UNK A   0       0.775   3.317  19.958  0.00  0.00    +0.000 A 
ATOM     11  C   UNK A   0       1.603   4.098  20.760  0.00  0.00    +0.000 A 
ATOM     12  C   UNK A   0       2.770   4.660  20.229  0.00  0.00    +0.000 A 
ENDBRANCH   3   7
BRANCH   1  14
ATOM     13  O   UNK A   1       7.937   5.186  20.326  0.00  0.00    +0.000 OA
ATOM     14  C   UNK A   1       7.676   5.920  19.389  0.00  0.00    +0.000 C 
BRANCH  14  15
ATOM     15  O   UNK A   1       8.457   6.980  19.051  0.00  0.00    +0.000 OA
ATOM     16  H   UNK A   1       9.393   6.693  18.983  0.00  0.00    +0.000 HD
ENDBRANCH  14  15
ENDBRANCH   1  14
BRANCH   5  17
ATOM     17  O   UNK A   1       5.328   6.242  15.134  0.00  0.00    +0.000 OA
ATOM     18  H   UNK A   1       4.465   6.693  15.069  0.00  0.00    +0.000 HD
ENDBRANCH   5  17
BRANCH   6  19
ATOM     19  O   UNK A   1       7.640   6.687  16.525  0.00  0.00    +0.000 OA
ATOM     20  H   UNK A   1       8.269   6.966  17.220  0.00  0.00    +0.000 HD
ENDBRANCH   6  19
TORSDOF 5
ENDMDL
MODEL 3
REMARK VINA RESULT:      -7.4      1.400      1.771
REMARK  Name = 
REMARK  5 active torsions:
REMARK  status: ('A' for Active; 'I' for Inactive)
REMARK    1  A    between atoms: C_2  and  O_3
REMARK    2  A    between atoms: C_2  and  C_4
REMARK    3  A    between atoms: C_6  and  C_7
REMARK    4  A    between atoms: C_14  and  O_15
REMARK    5  A    between atoms: C_16  and  O_17
REMARK                            x       y       z     vdW  Elec       q    Type
REMARK                         _______ _______ _______ _____ _____    ______ ____
ROOT
ATOM      1  C   UNK A   1       6.558   5.205  18.428  0.00  0.00    +0.000 A 
ATOM      2  N   UNK A   1       5.472   4.918  19.203  0.00  0.00    +0.000 NA
ATOM      3  C   UNK A   0       4.492   4.188  18.627  0.00  0.00    +0.000 A 
ATOM      4  N   UNK A   1       4.521   3.745  17.357  0.00  0.00    +0.000 NA
ATOM      5  C   UNK A   1       5.613   4.077  16.660  0.00  0.00    +0.000 A 
ATOM      6  C   UNK A   1       6.681   4.806  17.121  0.00  0.00    +0.000 A 
ENDROOT
BRANCH   3   7
ATOM      7  C   UNK A   0       3.370   3.777  19.492  0.00  0.00    +0.000 A 
ATOM      8  C   UNK A   0       2.105   4.387  19.370  0.00  0.00    +0.000 A 
ATOM      9  C   UNK A   0       1.057   4.084  20.242  0.00  0.00    +0.000 A 
ATOM     10  C   UNK A   0       1.246   3.150  21.253  0.00  0.00    +0.000 A 
ATOM     11  C   UNK A   0       2.471   2.500  21.375  0.00  0.00    +0.000 A 
ATOM     12  C   UNK A   0       3.520   2.806  20.500  0.00  0.00    +0.000 A 
ENDBRANCH   3   7
BRANCH   1  14
ATOM     13  O   UNK A   1       8.245   6.928  18.732  0.00  0.00    +0.000 OA
ATOM     14  C   UNK A   1       7.633   5.960  19.147  0.00  0.00    +0.000 C 
BRANCH  14  15
ATOM     15  O   UNK A   1       7.872   5.412  20.367  0.00  0.00    +0.000 OA
ATOM     16  H   UNK A   1       7.175   4.752  20.575  0.00  0.00    +0.000 HD
ENDBRANCH  14  15
ENDBRANCH   1  14
BRANCH   5  17
ATOM     17  O   UNK A   1       5.638   3.596  15.384  0.00  0.00    +0.000 OA
ATOM     18  H   UNK A   1       6.189   2.798  15.491  0.00  0.00    +0.000 HD
ENDBRANCH   5  17
BRANCH   6  19
ATOM     19  O   UNK A   1       7.747   5.065  16.322  0.00  0.00    +0.000 OA
ATOM     20  H   UNK A   1       7.838   4.309  15.708  0.00  0.00    +0.000 HD
ENDBRANCH   6  19
TORSDOF 5
ENDMDL
MODEL 4
REMARK VINA RESULT:      -7.3      1.138      1.373
REMARK  Name = 
REMARK  5 active torsions:
REMARK  status: ('A' for Active; 'I' for Inactive)
REMARK    1  A    between atoms: C_2  and  O_3
REMARK    2  A    between atoms: C_2  and  C_4
REMARK    3  A    between atoms: C_6  and  C_7
REMARK    4  A    between atoms: C_14  and  O_15
REMARK    5  A    between atoms: C_16  and  O_17
REMARK                            x       y       z     vdW  Elec       q    Type
REMARK                         _______ _______ _______ _____ _____    ______ ____
ROOT
ATOM      1  C   UNK A   1       6.337   5.184  18.083  0.00  0.00    +0.000 A 
ATOM      2  N   UNK A   1       5.147   4.975  18.719  0.00  0.00    +0.000 NA
ATOM      3  C   UNK A   0       4.195   4.317  18.021  0.00  0.00    +0.000 A 
ATOM      4  N   UNK A   1       4.347   3.873  16.760  0.00  0.00    +0.000 NA
ATOM      5  C   UNK A   1       5.537   4.126  16.203  0.00  0.00    +0.000 A 
ATOM      6  C   UNK A   1       6.590   4.778  16.798  0.00  0.00    +0.000 A 
ENDROOT
BRANCH   3   7
ATOM      7  C   UNK A   0       2.950   3.986  18.740  0.00  0.00    +0.000 A 
ATOM      8  C   UNK A   0       2.636   4.613  19.963  0.00  0.00    +0.000 A 
ATOM      9  C   UNK A   0       1.514   4.246  20.709  0.00  0.00    +0.000 A 
ATOM     10  C   UNK A   0       0.668   3.248  20.240  0.00  0.00    +0.000 A 
ATOM     11  C   UNK A   0       0.928   2.638  19.016  0.00  0.00    +0.000 A 
ATOM     12  C   UNK A   0       2.054   3.008  18.271  0.00  0.00    +0.000 A 
ENDBRANCH   3   7
BRANCH   1  14
ATOM     13  O   UNK A   1       8.081   6.793  18.610  0.00  0.00    +0.000 OA
ATOM     14  C   UNK A   1       7.367   5.861  18.934  0.00  0.00    +0.000 C 
BRANCH  14  15
ATOM     15  O   UNK A   1       7.429   5.284  20.164  0.00  0.00    +0.000 OA
ATOM     16  H   UNK A   1       7.934   5.863  20.775  0.00  0.00    +0.000 HD
ENDBRANCH  14  15
ENDBRANCH   1  14
BRANCH   5  17
ATOM     17  O   UNK A   1       5.684   3.646  14.936  0.00  0.00    +0.000 OA
ATOM     18  H   UNK A   1       4.982   4.133  14.464  0.00  0.00    +0.000 HD
ENDBRANCH   5  17
BRANCH   6  19
ATOM     19  O   UNK A   1       7.760   4.960  16.136  0.00  0.00    +0.000 OA
ATOM     20  H   UNK A   1       7.542   5.337  15.260  0.00  0.00    +0.000 HD
ENDBRANCH   6  19
TORSDOF 5
ENDMDL
MODEL 5
REMARK VINA RESULT:      -7.3      0.747      1.579
REMARK  Name = 
REMARK  5 active torsions:
REMARK  status: ('A' for Active; 'I' for Inactive)
REMARK    1  A    between atoms: C_2  and  O_3
REMARK    2  A    between atoms: C_2  and  C_4
REMARK    3  A    between atoms: C_6  and  C_7
REMARK    4  A    between atoms: C_14  and  O_15
REMARK    5  A    between atoms: C_16  and  O_17
REMARK                            x       y       z     vdW  Elec       q    Type
REMARK                         _______ _______ _______ _____ _____    ______ ____
ROOT
ATOM      1  C   UNK A   1       6.351   5.525  18.049  0.00  0.00    +0.000 A 
ATOM      2  N   UNK A   1       5.243   5.134  18.745  0.00  0.00    +0.000 NA
ATOM      3  C   UNK A   0       4.234   4.597  18.025  0.00  0.00    +0.000 A 
ATOM      4  N   UNK A   1       4.255   4.436  16.689  0.00  0.00    +0.000 NA
ATOM      5  C   UNK A   1       5.370   4.853  16.080  0.00  0.00    +0.000 A 
ATOM      6  C   UNK A   1       6.468   5.411  16.688  0.00  0.00    +0.000 A 
ENDROOT
BRANCH   3   7
ATOM      7  C   UNK A   0       3.083   4.068  18.781  0.00  0.00    +0.000 A 
ATOM      8  C   UNK A   0       2.205   3.132  18.197  0.00  0.00    +0.000 A 
ATOM      9  C   UNK A   0       1.056   2.692  18.856  0.00  0.00    +0.000 A 
ATOM     10  C   UNK A   0       0.763   3.169  20.128  0.00  0.00    +0.000 A 
ATOM     11  C   UNK A   0       1.631   4.063  20.749  0.00  0.00    +0.000 A 
ATOM     12  C   UNK A   0       2.782   4.502  20.085  0.00  0.00    +0.000 A 
ENDBRANCH   3   7
BRANCH   1  14
ATOM     13  O   UNK A   1       8.218   6.961  18.646  0.00  0.00    +0.000 OA
ATOM     14  C   UNK A   1       7.454   6.051  18.914  0.00  0.00    +0.000 C 
BRANCH  14  15
ATOM     15  O   UNK A   1       7.520   5.361  20.083  0.00  0.00    +0.000 OA
ATOM     16  H   UNK A   1       8.385   5.526  20.516  0.00  0.00    +0.000 HD
ENDBRANCH  14  15
ENDBRANCH   1  14
BRANCH   5  17
ATOM     17  O   UNK A   1       5.386   4.658  14.730  0.00  0.00    +0.000 OA
ATOM     18  H   UNK A   1       5.948   3.864  14.658  0.00  0.00    +0.000 HD
ENDBRANCH   5  17
BRANCH   6  19
ATOM     19  O   UNK A   1       7.554   5.780  15.963  0.00  0.00    +0.000 OA
ATOM     20  H   UNK A   1       7.252   5.930  15.045  0.00  0.00    +0.000 HD
ENDBRANCH   6  19
TORSDOF 5
ENDMDL
MODEL 6
REMARK VINA RESULT:      -7.2      1.202      1.803
REMARK  Name = 
REMARK  5 active torsions:
REMARK  status: ('A' for Active; 'I' for Inactive)
REMARK    1  A    between atoms: C_2  and  O_3
REMARK    2  A    between atoms: C_2  and  C_4
REMARK    3  A    between atoms: C_6  and  C_7
REMARK    4  A    between atoms: C_14  and  O_15
REMARK    5  A    between atoms: C_16  and  O_17
REMARK                            x       y       z     vdW  Elec       q    Type
REMARK                         _______ _______ _______ _____ _____    ______ ____
ROOT
ATOM      1  C   UNK A   1       6.473   5.940  17.224  0.00  0.00    +0.000 A 
ATOM      2  N   UNK A   1       5.395   5.716  18.030  0.00  0.00    +0.000 NA
ATOM      3  C   UNK A   0       4.448   4.875  17.556  0.00  0.00    +0.000 A 
ATOM      4  N   UNK A   1       4.504   4.266  16.358  0.00  0.00    +0.000 NA
ATOM      5  C   UNK A   1       5.586   4.546  15.623  0.00  0.00    +0.000 A 
ATOM      6  C   UNK A   1       6.621   5.375  15.983  0.00  0.00    +0.000 A 
ENDROOT
BRANCH   3   7
ATOM      7  C   UNK A   0       3.338   4.539  18.468  0.00  0.00    +0.000 A 
ATOM      8  C   UNK A   0       2.295   3.688  18.050  0.00  0.00    +0.000 A 
ATOM      9  C   UNK A   0       1.186   3.434  18.859  0.00  0.00    +0.000 A 
ATOM     10  C   UNK A   0       1.100   4.017  20.118  0.00  0.00    +0.000 A 
ATOM     11  C   UNK A   0       2.133   4.830  20.576  0.00  0.00    +0.000 A 
ATOM     12  C   UNK A   0       3.244   5.083  19.762  0.00  0.00    +0.000 A 
ENDBRANCH   3   7
BRANCH   1  14
ATOM     13  O   UNK A   1       8.107   6.640  18.881  0.00  0.00    +0.000 OA
ATOM     14  C   UNK A   1       7.512   6.829  17.835  0.00  0.00    +0.000 C 
BRANCH  14  15
ATOM     15  O   UNK A   1       7.719   7.928  17.064  0.00  0.00    +0.000 OA
ATOM     16  H   UNK A   1       7.784   8.725  17.633  0.00  0.00    +0.000 HD
ENDBRANCH  14  15
ENDBRANCH   1  14
BRANCH   5  17
ATOM     17  O   UNK A   1       5.640   3.899  14.424  0.00  0.00    +0.000 OA
ATOM     18  H   UNK A   1       4.751   4.086  14.066  0.00  0.00    +0.000 HD
ENDBRANCH   5  17
BRANCH   6  19
ATOM     19  O   UNK A   1       7.680   5.567  15.158  0.00  0.00    +0.000 OA
ATOM     20  H   UNK A   1       7.902   4.699  14.765  0.00  0.00    +0.000 HD
ENDBRANCH   6  19
TORSDOF 5
ENDMDL
MODEL 7
REMARK VINA RESULT:      -7.2      1.204      1.396
REMARK  Name = 
REMARK  5 active torsions:
REMARK  status: ('A' for Active; 'I' for Inactive)
REMARK    1  A    between atoms: C_2  and  O_3
REMARK    2  A    between atoms: C_2  and  C_4
REMARK    3  A    between atoms: C_6  and  C_7
REMARK    4  A    between atoms: C_14  and  O_15
REMARK    5  A    between atoms: C_16  and  O_17
REMARK                            x       y       z     vdW  Elec       q    Type
REMARK                         _______ _______ _______ _____ _____    ______ ____
ROOT
ATOM      1  C   UNK A   1       6.449   5.986  17.215  0.00  0.00    +0.000 A 
ATOM      2  N   UNK A   1       5.342   5.817  17.996  0.00  0.00    +0.000 NA
ATOM      3  C   UNK A   0       4.377   5.003  17.513  0.00  0.00    +0.000 A 
ATOM      4  N   UNK A   1       4.441   4.369  16.328  0.00  0.00    +0.000 NA
ATOM      5  C   UNK A   1       5.552   4.594  15.618  0.00  0.00    +0.000 A 
ATOM      6  C   UNK A   1       6.607   5.391  15.990  0.00  0.00    +0.000 A 
ENDROOT
BRANCH   3   7
ATOM      7  C   UNK A   0       3.232   4.725  18.401  0.00  0.00    +0.000 A 
ATOM      8  C   UNK A   0       3.146   5.322  19.675  0.00  0.00    +0.000 A 
ATOM      9  C   UNK A   0       2.125   4.999  20.570  0.00  0.00    +0.000 A 
ATOM     10  C   UNK A   0       1.151   4.077  20.204  0.00  0.00    +0.000 A 
ATOM     11  C   UNK A   0       1.185   3.500  18.938  0.00  0.00    +0.000 A 
ATOM     12  C   UNK A   0       2.211   3.826  18.043  0.00  0.00    +0.000 A 
ENDBRANCH   3   7
BRANCH   1  14
ATOM     13  O   UNK A   1       8.102   6.629  18.876  0.00  0.00    +0.000 OA
ATOM     14  C   UNK A   1       7.504   6.847  17.838  0.00  0.00    +0.000 C 
BRANCH  14  15
ATOM     15  O   UNK A   1       7.722   7.959  17.087  0.00  0.00    +0.000 OA
ATOM     16  H   UNK A   1       6.895   8.213  16.624  0.00  0.00    +0.000 HD
ENDBRANCH  14  15
ENDBRANCH   1  14
BRANCH   5  17
ATOM     17  O   UNK A   1       5.613   3.923  14.432  0.00  0.00    +0.000 OA
ATOM     18  H   UNK A   1       4.968   4.422  13.897  0.00  0.00    +0.000 HD
ENDBRANCH   5  17
BRANCH   6  19
ATOM     19  O   UNK A   1       7.694   5.528  15.190  0.00  0.00    +0.000 OA
ATOM     20  H   UNK A   1       7.509   5.038  14.363  0.00  0.00    +0.000 HD
ENDBRANCH   6  19
TORSDOF 5
ENDMDL
MODEL 8
REMARK VINA RESULT:      -7.1      1.735      2.279
REMARK  Name = 
REMARK  5 active torsions:
REMARK  status: ('A' for Active; 'I' for Inactive)
REMARK    1  A    between atoms: C_2  and  O_3
REMARK    2  A    between atoms: C_2  and  C_4
REMARK    3  A    between atoms: C_6  and  C_7
REMARK    4  A    between atoms: C_14  and  O_15
REMARK    5  A    between atoms: C_16  and  O_17
REMARK                            x       y       z     vdW  Elec       q    Type
REMARK                         _______ _______ _______ _____ _____    ______ ____
ROOT
ATOM      1  C   UNK A   1       6.443   5.607  16.600  0.00  0.00    +0.000 A 
ATOM      2  N   UNK A   1       5.341   5.177  17.282  0.00  0.00    +0.000 NA
ATOM      3  C   UNK A   0       4.616   4.194  16.703  0.00  0.00    +0.000 A 
ATOM      4  N   UNK A   1       4.908   3.633  15.515  0.00  0.00    +0.000 NA
ATOM      5  C   UNK A   1       5.996   4.117  14.905  0.00  0.00    +0.000 A 
ATOM      6  C   UNK A   1       6.822   5.106  15.381  0.00  0.00    +0.000 A 
ENDROOT
BRANCH   3   7
ATOM      7  C   UNK A   0       3.492   3.646  17.485  0.00  0.00    +0.000 A 
ATOM      8  C   UNK A   0       2.390   4.455  17.828  0.00  0.00    +0.000 A 
ATOM      9  C   UNK A   0       1.362   3.987  18.649  0.00  0.00    +0.000 A 
ATOM     10  C   UNK A   0       1.406   2.686  19.138  0.00  0.00    +0.000 A 
ATOM     11  C   UNK A   0       2.460   1.849  18.784  0.00  0.00    +0.000 A 
ATOM     12  C   UNK A   0       3.489   2.322  17.961  0.00  0.00    +0.000 A 
ENDBRANCH   3   7
BRANCH   1  14
ATOM     13  O   UNK A   1       7.603   7.723  16.885  0.00  0.00    +0.000 OA
ATOM     14  C   UNK A   1       7.236   6.650  17.327  0.00  0.00    +0.000 C 
BRANCH  14  15
ATOM     15  O   UNK A   1       7.523   6.241  18.591  0.00  0.00    +0.000 OA
ATOM     16  H   UNK A   1       7.477   5.262  18.641  0.00  0.00    +0.000 HD
ENDBRANCH  14  15
ENDBRANCH   1  14
BRANCH   5  17
ATOM     17  O   UNK A   1       6.292   3.519  13.716  0.00  0.00    +0.000 OA
ATOM     18  H   UNK A   1       6.824   2.757  14.013  0.00  0.00    +0.000 HD
ENDBRANCH   5  17
BRANCH   6  19
ATOM     19  O   UNK A   1       7.913   5.501  14.678  0.00  0.00    +0.000 OA
ATOM     20  H   UNK A   1       7.615   6.179  14.039  0.00  0.00    +0.000 HD
ENDBRANCH   6  19
TORSDOF 5
ENDMDL
MODEL 9
REMARK VINA RESULT:      -7.1      1.630      2.012
REMARK  Name = 
REMARK  5 active torsions:
REMARK  status: ('A' for Active; 'I' for Inactive)
REMARK    1  A    between atoms: C_2  and  O_3
REMARK    2  A    between atoms: C_2  and  C_4
REMARK    3  A    between atoms: C_6  and  C_7
REMARK    4  A    between atoms: C_14  and  O_15
REMARK    5  A    between atoms: C_16  and  O_17
REMARK                            x       y       z     vdW  Elec       q    Type
REMARK                         _______ _______ _______ _____ _____    ______ ____
ROOT
ATOM      1  C   UNK A   1       6.505   5.686  16.850  0.00  0.00    +0.000 A 
ATOM      2  N   UNK A   1       5.458   5.288  17.630  0.00  0.00    +0.000 NA
ATOM      3  C   UNK A   0       4.698   4.277  17.154  0.00  0.00    +0.000 A 
ATOM      4  N   UNK A   1       4.905   3.660  15.976  0.00  0.00    +0.000 NA
ATOM      5  C   UNK A   1       5.942   4.116  15.266  0.00  0.00    +0.000 A 
ATOM      6  C   UNK A   1       6.795   5.129  15.631  0.00  0.00    +0.000 A 
ENDROOT
BRANCH   3   7
ATOM      7  C   UNK A   0       3.638   3.764  18.042  0.00  0.00    +0.000 A 
ATOM      8  C   UNK A   0       3.951   3.252  19.318  0.00  0.00    +0.000 A 
ATOM      9  C   UNK A   0       2.979   2.672  20.135  0.00  0.00    +0.000 A 
ATOM     10  C   UNK A   0       1.661   2.602  19.700  0.00  0.00    +0.000 A 
ATOM     11  C   UNK A   0       1.311   3.136  18.462  0.00  0.00    +0.000 A 
ATOM     12  C   UNK A   0       2.288   3.716  17.645  0.00  0.00    +0.000 A 
ENDBRANCH   3   7
BRANCH   1  14
ATOM     13  O   UNK A   1       7.645   7.830  16.958  0.00  0.00    +0.000 OA
ATOM     14  C   UNK A   1       7.342   6.765  17.465  0.00  0.00    +0.000 C 
BRANCH  14  15
ATOM     15  O   UNK A   1       7.758   6.401  18.707  0.00  0.00    +0.000 OA
ATOM     16  H   UNK A   1       7.846   7.198  19.273  0.00  0.00    +0.000 HD
ENDBRANCH  14  15
ENDBRANCH   1  14
BRANCH   5  17
ATOM     17  O   UNK A   1       6.154   3.462  14.088  0.00  0.00    +0.000 OA
ATOM     18  H   UNK A   1       5.653   4.022  13.465  0.00  0.00    +0.000 HD
ENDBRANCH   5  17
BRANCH   6  19
ATOM     19  O   UNK A   1       7.829   5.492  14.832  0.00  0.00    +0.000 OA
ATOM     20  H   UNK A   1       8.520   5.876  15.408  0.00  0.00    +0.000 HD
ENDBRANCH   6  19
TORSDOF 5
ENDMDL
