MODEL 1
REMARK VINA RESULT:      -8.0      0.000      0.000
REMARK  Name = 
REMARK  5 active torsions:
REMARK  status: ('A' for Active; 'I' for Inactive)
REMARK    1  A    between atoms: C_1  and  O_2
REMARK    2  A    between atoms: O_2  and  C_3
REMARK    3  A    between atoms: C_6  and  C_7
REMARK    4  A    between atoms: C_22  and  O_23
REMARK    5  A    between atoms: O_23  and  C_24
REMARK                            x       y       z     vdW  Elec       q    Type
REMARK                         _______ _______ _______ _____ _____    ______ ____
ROOT
ATOM      1  C   UNL     1       2.535   6.936  18.959  0.00  0.00    +0.000 A 
ATOM      2  C   UNL     1       2.150   5.654  19.076  0.00  0.00    +0.000 A 
ATOM      3  C   UNL     1       3.120   4.619  18.759  0.00  0.00    +0.000 A 
ATOM      4  O   UNL     1       3.079   3.521  19.294  0.00  0.00    +0.000 OA
ATOM      5  C   UNL     1       4.104   4.988  17.757  0.00  0.00    +0.000 A 
ATOM      6  C   UNL     1       4.709   3.947  17.046  0.00  0.00    +0.000 A 
ATOM      7  C   UNL     1       5.456   4.297  15.921  0.00  0.00    +0.000 A 
ATOM      8  C   UNL     1       6.102   3.563  14.901  0.00  0.00    +0.000 A 
ATOM      9  C   UNL     1       6.621   4.496  14.034  0.00  0.00    +0.000 A 
ATOM     10  O   UNL     1       6.353   5.761  14.468  0.00  0.00    +0.000 OA
ATOM     11  C   UNL     1       5.624   5.642  15.622  0.00  0.00    +0.000 A 
ATOM     12  C   UNL     1       5.098   6.704  16.376  0.00  0.00    +0.000 A 
ATOM     13  C   UNL     1       4.285   6.344  17.462  0.00  0.00    +0.000 A 
ATOM     14  O   UNL     1       3.653   7.335  18.214  0.00  0.00    +0.000 OA
ENDROOT
BRANCH   1  18
ATOM     15  C   UNL     1       0.455  10.102  21.085  0.00  0.00    +0.000 A 
ATOM     16  C   UNL     1       0.661   8.848  21.703  0.00  0.00    +0.000 A 
ATOM     17  C   UNL     1       1.313   7.781  21.043  0.00  0.00    +0.000 A 
ATOM     18  C   UNL     1       1.767   7.945  19.740  0.00  0.00    +0.000 A 
ATOM     19  C   UNL     1       1.445   9.170  19.112  0.00  0.00    +0.000 A 
ATOM     20  C   UNL     1       0.828  10.250  19.753  0.00  0.00    +0.000 A 
BRANCH  15  22
ATOM     21  C   UNL     1      -0.917  10.862  22.867  0.00  0.00    +0.000 C 
ATOM     22  O   UNL     1      -0.120  11.166  21.726  0.00  0.00    +0.000 OA
ENDBRANCH  15  22
BRANCH  20  23
ATOM     23  O   UNL     1       0.740  11.322  18.912  0.00  0.00    +0.000 OA
ATOM     24  C   UNL     1       1.893  12.057  18.546  0.00  0.00    +0.000 C 
ENDBRANCH  20  23
ENDBRANCH   1  18
TORSDOF 3
ENDMDL
MODEL 2
REMARK VINA RESULT:      -8.0      1.520      8.148
REMARK  Name = 
REMARK  5 active torsions:
REMARK  status: ('A' for Active; 'I' for Inactive)
REMARK    1  A    between atoms: C_1  and  O_2
REMARK    2  A    between atoms: O_2  and  C_3
REMARK    3  A    between atoms: C_6  and  C_7
REMARK    4  A    between atoms: C_22  and  O_23
REMARK    5  A    between atoms: O_23  and  C_24
REMARK                            x       y       z     vdW  Elec       q    Type
REMARK                         _______ _______ _______ _____ _____    ______ ____
ROOT
ATOM      1  C   UNL     1       2.496   7.521  18.545  0.00  0.00    +0.000 A 
ATOM      2  C   UNL     1       2.033   8.458  17.701  0.00  0.00    +0.000 A 
ATOM      3  C   UNL     1       1.710   9.767  18.246  0.00  0.00    +0.000 A 
ATOM      4  O   UNL     1       1.790  10.778  17.565  0.00  0.00    +0.000 OA
ATOM      5  C   UNL     1       1.272   9.763  19.630  0.00  0.00    +0.000 A 
ATOM      6  C   UNL     1       0.483  10.838  20.050  0.00  0.00    +0.000 A 
ATOM      7  C   UNL     1      -0.147  10.717  21.289  0.00  0.00    +0.000 A 
ATOM      8  C   UNL     1      -1.089  11.497  21.995  0.00  0.00    +0.000 A 
ATOM      9  C   UNL     1      -1.364  10.805  23.151  0.00  0.00    +0.000 A 
ATOM     10  O   UNL     1      -0.632   9.656  23.213  0.00  0.00    +0.000 OA
ATOM     11  C   UNL     1       0.108   9.592  22.061  0.00  0.00    +0.000 A 
ATOM     12  C   UNL     1       0.969   8.544  21.694  0.00  0.00    +0.000 A 
ATOM     13  C   UNL     1       1.539   8.636  20.415  0.00  0.00    +0.000 A 
ATOM     14  O   UNL     1       2.339   7.598  19.936  0.00  0.00    +0.000 OA
ENDROOT
BRANCH   1  18
ATOM     15  C   UNL     1       4.930   4.483  16.618  0.00  0.00    +0.000 A 
ATOM     16  C   UNL     1       3.666   4.147  17.153  0.00  0.00    +0.000 A 
ATOM     17  C   UNL     1       2.849   5.096  17.807  0.00  0.00    +0.000 A 
ATOM     18  C   UNL     1       3.285   6.408  17.949  0.00  0.00    +0.000 A 
ATOM     19  C   UNL     1       4.599   6.684  17.506  0.00  0.00    +0.000 A 
ATOM     20  C   UNL     1       5.414   5.770  16.829  0.00  0.00    +0.000 A 
BRANCH  15  22
ATOM     21  C   UNL     1       5.939   3.891  14.553  0.00  0.00    +0.000 C 
ATOM     22  O   UNL     1       5.711   3.595  15.928  0.00  0.00    +0.000 OA
ENDBRANCH  15  22
BRANCH  20  23
ATOM     23  O   UNL     1       6.584   6.362  16.446  0.00  0.00    +0.000 OA
ATOM     24  C   UNL     1       7.450   6.946  17.400  0.00  0.00    +0.000 C 
ENDBRANCH  20  23
ENDBRANCH   1  18
TORSDOF 3
ENDMDL
MODEL 3
REMARK VINA RESULT:      -7.9      1.413      7.709
REMARK  Name = 
REMARK  5 active torsions:
REMARK  status: ('A' for Active; 'I' for Inactive)
REMARK    1  A    between atoms: C_1  and  O_2
REMARK    2  A    between atoms: O_2  and  C_3
REMARK    3  A    between atoms: C_6  and  C_7
REMARK    4  A    between atoms: C_22  and  O_23
REMARK    5  A    between atoms: O_23  and  C_24
REMARK                            x       y       z     vdW  Elec       q    Type
REMARK                         _______ _______ _______ _____ _____    ______ ____
ROOT
ATOM      1  C   UNL     1       3.561   6.271  18.608  0.00  0.00    +0.000 A 
ATOM      2  C   UNL     1       3.399   5.533  19.718  0.00  0.00    +0.000 A 
ATOM      3  C   UNL     1       2.164   5.692  20.469  0.00  0.00    +0.000 A 
ATOM      4  O   UNL     1       1.698   4.777  21.131  0.00  0.00    +0.000 OA
ATOM      5  C   UNL     1       1.562   7.011  20.386  0.00  0.00    +0.000 A 
ATOM      6  C   UNL     1       0.717   7.391  21.433  0.00  0.00    +0.000 A 
ATOM      7  C   UNL     1       0.342   8.734  21.490  0.00  0.00    +0.000 A 
ATOM      8  C   UNL     1      -0.376   9.517  22.421  0.00  0.00    +0.000 A 
ATOM      9  C   UNL     1      -0.357  10.801  21.930  0.00  0.00    +0.000 A 
ATOM     10  O   UNL     1       0.309  10.855  20.741  0.00  0.00    +0.000 OA
ATOM     11  C   UNL     1       0.752   9.586  20.474  0.00  0.00    +0.000 A 
ATOM     12  C   UNL     1       1.527   9.201  19.367  0.00  0.00    +0.000 A 
ATOM     13  C   UNL     1       1.964   7.868  19.356  0.00  0.00    +0.000 A 
ATOM     14  O   UNL     1       2.808   7.423  18.338  0.00  0.00    +0.000 OA
ENDROOT
BRANCH   1  18
ATOM     15  C   UNL     1       6.486   5.093  15.621  0.00  0.00    +0.000 A 
ATOM     16  C   UNL     1       5.295   4.350  15.780  0.00  0.00    +0.000 A 
ATOM     17  C   UNL     1       4.324   4.682  16.752  0.00  0.00    +0.000 A 
ATOM     18  C   UNL     1       4.530   5.766  17.597  0.00  0.00    +0.000 A 
ATOM     19  C   UNL     1       5.781   6.418  17.489  0.00  0.00    +0.000 A 
ATOM     20  C   UNL     1       6.743   6.127  16.516  0.00  0.00    +0.000 A 
BRANCH  15  22
ATOM     21  C   UNL     1       6.910   4.260  13.439  0.00  0.00    +0.000 C 
ATOM     22  O   UNL     1       7.410   4.826  14.648  0.00  0.00    +0.000 OA
ENDBRANCH  15  22
BRANCH  20  23
ATOM     23  O   UNL     1       7.798   6.990  16.610  0.00  0.00    +0.000 OA
ATOM     24  C   UNL     1       7.796   8.039  17.559  0.00  0.00    +0.000 C 
ENDBRANCH  20  23
ENDBRANCH   1  18
TORSDOF 3
ENDMDL
MODEL 4
REMARK VINA RESULT:      -7.8      2.417      8.475
REMARK  Name = 
REMARK  5 active torsions:
REMARK  status: ('A' for Active; 'I' for Inactive)
REMARK    1  A    between atoms: C_1  and  O_2
REMARK    2  A    between atoms: O_2  and  C_3
REMARK    3  A    between atoms: C_6  and  C_7
REMARK    4  A    between atoms: C_22  and  O_23
REMARK    5  A    between atoms: O_23  and  C_24
REMARK                            x       y       z     vdW  Elec       q    Type
REMARK                         _______ _______ _______ _____ _____    ______ ____
ROOT
ATOM      1  C   UNL     1       1.774   7.709  19.664  0.00  0.00    +0.000 A 
ATOM      2  C   UNL     1       1.672   8.591  18.657  0.00  0.00    +0.000 A 
ATOM      3  C   UNL     1       1.536   9.999  18.995  0.00  0.00    +0.000 A 
ATOM      4  O   UNL     1       1.943  10.876  18.248  0.00  0.00    +0.000 OA
ATOM      5  C   UNL     1       0.869  10.265  20.257  0.00  0.00    +0.000 A 
ATOM      6  C   UNL     1       0.259  11.514  20.403  0.00  0.00    +0.000 A 
ATOM      7  C   UNL     1      -0.591  11.681  21.496  0.00  0.00    +0.000 A 
ATOM      8  C   UNL     1      -1.461  12.710  21.919  0.00  0.00    +0.000 A 
ATOM      9  C   UNL     1      -2.074  12.245  23.059  0.00  0.00    +0.000 A 
ATOM     10  O   UNL     1      -1.619  10.999  23.378  0.00  0.00    +0.000 OA
ATOM     11  C   UNL     1      -0.716  10.644  22.411  0.00  0.00    +0.000 A 
ATOM     12  C   UNL     1      -0.041   9.415  22.328  0.00  0.00    +0.000 A 
ATOM     13  C   UNL     1       0.753   9.225  21.186  0.00  0.00    +0.000 A 
ATOM     14  O   UNL     1       1.392   8.001  20.982  0.00  0.00    +0.000 OA
ENDROOT
BRANCH   1  18
ATOM     15  C   UNL     1       3.671   3.849  19.057  0.00  0.00    +0.000 A 
ATOM     16  C   UNL     1       3.737   4.838  18.051  0.00  0.00    +0.000 A 
ATOM     17  C   UNL     1       3.117   6.100  18.195  0.00  0.00    +0.000 A 
ATOM     18  C   UNL     1       2.407   6.398  19.351  0.00  0.00    +0.000 A 
ATOM     19  C   UNL     1       2.264   5.348  20.288  0.00  0.00    +0.000 A 
ATOM     20  C   UNL     1       2.893   4.102  20.183  0.00  0.00    +0.000 A 
BRANCH  15  22
ATOM     21  C   UNL     1       3.598   1.593  18.322  0.00  0.00    +0.000 C 
ATOM     22  O   UNL     1       4.314   2.644  18.965  0.00  0.00    +0.000 OA
ENDBRANCH  15  22
BRANCH  20  23
ATOM     23  O   UNL     1       2.640   3.341  21.288  0.00  0.00    +0.000 OA
ATOM     24  C   UNL     1       1.374   2.739  21.482  0.00  0.00    +0.000 C 
ENDBRANCH  20  23
ENDBRANCH   1  18
TORSDOF 3
ENDMDL
MODEL 5
REMARK VINA RESULT:      -7.7      1.476      8.357
REMARK  Name = 
REMARK  5 active torsions:
REMARK  status: ('A' for Active; 'I' for Inactive)
REMARK    1  A    between atoms: C_1  and  O_2
REMARK    2  A    between atoms: O_2  and  C_3
REMARK    3  A    between atoms: C_6  and  C_7
REMARK    4  A    between atoms: C_22  and  O_23
REMARK    5  A    between atoms: O_23  and  C_24
REMARK                            x       y       z     vdW  Elec       q    Type
REMARK                         _______ _______ _______ _____ _____    ______ ____
ROOT
ATOM      1  C   UNL     1       2.234   8.144  18.673  0.00  0.00    +0.000 A 
ATOM      2  C   UNL     1       1.955   9.211  17.907  0.00  0.00    +0.000 A 
ATOM      3  C   UNL     1       1.706  10.481  18.569  0.00  0.00    +0.000 A 
ATOM      4  O   UNL     1       1.953  11.545  18.022  0.00  0.00    +0.000 OA
ATOM      5  C   UNL     1       1.129  10.376  19.898  0.00  0.00    +0.000 A 
ATOM      6  C   UNL     1       0.409  11.478  20.368  0.00  0.00    +0.000 A 
ATOM      7  C   UNL     1      -0.353  11.293  21.521  0.00  0.00    +0.000 A 
ATOM      8  C   UNL     1      -1.283  12.090  22.225  0.00  0.00    +0.000 A 
ATOM      9  C   UNL     1      -1.742  11.312  23.261  0.00  0.00    +0.000 A 
ATOM     10  O   UNL     1      -1.135  10.090  23.254  0.00  0.00    +0.000 OA
ATOM     11  C   UNL     1      -0.290  10.071  22.176  0.00  0.00    +0.000 A 
ATOM     12  C   UNL     1       0.498   8.982  21.767  0.00  0.00    +0.000 A 
ATOM     13  C   UNL     1       1.203   9.148  20.566  0.00  0.00    +0.000 A 
ATOM     14  O   UNL     1       1.943   8.087  20.043  0.00  0.00    +0.000 OA
ENDROOT
BRANCH   1  18
ATOM     15  C   UNL     1       4.305   4.696  17.032  0.00  0.00    +0.000 A 
ATOM     16  C   UNL     1       4.729   6.002  16.703  0.00  0.00    +0.000 A 
ATOM     17  C   UNL     1       4.075   7.154  17.195  0.00  0.00    +0.000 A 
ATOM     18  C   UNL     1       2.968   7.022  18.024  0.00  0.00    +0.000 A 
ATOM     19  C   UNL     1       2.500   5.705  18.243  0.00  0.00    +0.000 A 
ATOM     20  C   UNL     1       3.148   4.550  17.792  0.00  0.00    +0.000 A 
BRANCH  15  22
ATOM     21  C   UNL     1       6.026   3.762  15.692  0.00  0.00    +0.000 C 
ATOM     22  O   UNL     1       4.960   3.568  16.616  0.00  0.00    +0.000 OA
ENDBRANCH  15  22
BRANCH  20  23
ATOM     23  O   UNL     1       2.507   3.432  18.244  0.00  0.00    +0.000 OA
ATOM     24  C   UNL     1       1.209   3.514  18.802  0.00  0.00    +0.000 C 
ENDBRANCH  20  23
ENDBRANCH   1  18
TORSDOF 3
ENDMDL
MODEL 6
REMARK VINA RESULT:      -7.7      1.173      2.051
REMARK  Name = 
REMARK  5 active torsions:
REMARK  status: ('A' for Active; 'I' for Inactive)
REMARK    1  A    between atoms: C_1  and  O_2
REMARK    2  A    between atoms: O_2  and  C_3
REMARK    3  A    between atoms: C_6  and  C_7
REMARK    4  A    between atoms: C_22  and  O_23
REMARK    5  A    between atoms: O_23  and  C_24
REMARK                            x       y       z     vdW  Elec       q    Type
REMARK                         _______ _______ _______ _____ _____    ______ ____
ROOT
ATOM      1  C   UNL     1       2.454   7.589  18.654  0.00  0.00    +0.000 A 
ATOM      2  C   UNL     1       2.263   6.372  19.189  0.00  0.00    +0.000 A 
ATOM      3  C   UNL     1       3.356   5.417  19.120  0.00  0.00    +0.000 A 
ATOM      4  O   UNL     1       3.496   4.546  19.966  0.00  0.00    +0.000 OA
ATOM      5  C   UNL     1       4.233   5.570  17.973  0.00  0.00    +0.000 A 
ATOM      6  C   UNL     1       4.950   4.442  17.565  0.00  0.00    +0.000 A 
ATOM      7  C   UNL     1       5.590   4.510  16.327  0.00  0.00    +0.000 A 
ATOM      8  C   UNL     1       6.291   3.579  15.528  0.00  0.00    +0.000 A 
ATOM      9  C   UNL     1       6.632   4.248  14.377  0.00  0.00    +0.000 A 
ATOM     10  O   UNL     1       6.205   5.543  14.426  0.00  0.00    +0.000 OA
ATOM     11  C   UNL     1       5.551   5.703  15.619  0.00  0.00    +0.000 A 
ATOM     12  C   UNL     1       4.911   6.875  16.056  0.00  0.00    +0.000 A 
ATOM     13  C   UNL     1       4.206   6.777  17.265  0.00  0.00    +0.000 A 
ATOM     14  O   UNL     1       3.471   7.868  17.730  0.00  0.00    +0.000 OA
ENDROOT
BRANCH   1  18
ATOM     15  C   UNL     1      -0.259  10.582  20.250  0.00  0.00    +0.000 A 
ATOM     16  C   UNL     1       0.419  10.815  19.033  0.00  0.00    +0.000 A 
ATOM     17  C   UNL     1       1.327   9.880  18.485  0.00  0.00    +0.000 A 
ATOM     18  C   UNL     1       1.585   8.689  19.153  0.00  0.00    +0.000 A 
ATOM     19  C   UNL     1       0.979   8.538  20.422  0.00  0.00    +0.000 A 
ATOM     20  C   UNL     1       0.055   9.433  20.970  0.00  0.00    +0.000 A 
BRANCH  15  22
ATOM     21  C   UNL     1      -1.809  12.333  19.842  0.00  0.00    +0.000 C 
ATOM     22  O   UNL     1      -1.186  11.445  20.767  0.00  0.00    +0.000 OA
ENDBRANCH  15  22
BRANCH  20  23
ATOM     23  O   UNL     1      -0.423   8.964  22.160  0.00  0.00    +0.000 OA
ATOM     24  C   UNL     1      -0.016   9.541  23.386  0.00  0.00    +0.000 C 
ENDBRANCH  20  23
ENDBRANCH   1  18
TORSDOF 3
ENDMDL
MODEL 7
REMARK VINA RESULT:      -7.6      2.166      8.281
REMARK  Name = 
REMARK  5 active torsions:
REMARK  status: ('A' for Active; 'I' for Inactive)
REMARK    1  A    between atoms: C_1  and  O_2
REMARK    2  A    between atoms: O_2  and  C_3
REMARK    3  A    between atoms: C_6  and  C_7
REMARK    4  A    between atoms: C_22  and  O_23
REMARK    5  A    between atoms: O_23  and  C_24
REMARK                            x       y       z     vdW  Elec       q    Type
REMARK                         _______ _______ _______ _____ _____    ______ ____
ROOT
ATOM      1  C   UNL     1       2.060   7.520  18.972  0.00  0.00    +0.000 A 
ATOM      2  C   UNL     1       1.895   8.499  18.067  0.00  0.00    +0.000 A 
ATOM      3  C   UNL     1       1.783   9.865  18.552  0.00  0.00    +0.000 A 
ATOM      4  O   UNL     1       2.142  10.814  17.871  0.00  0.00    +0.000 OA
ATOM      5  C   UNL     1       1.199  10.000  19.874  0.00  0.00    +0.000 A 
ATOM      6  C   UNL     1       0.601  11.225  20.183  0.00  0.00    +0.000 A 
ATOM      7  C   UNL     1      -0.177  11.277  21.340  0.00  0.00    +0.000 A 
ATOM      8  C   UNL     1      -1.016  12.255  21.919  0.00  0.00    +0.000 A 
ATOM      9  C   UNL     1      -1.555  11.675  23.043  0.00  0.00    +0.000 A 
ATOM     10  O   UNL     1      -1.081  10.406  23.206  0.00  0.00    +0.000 OA
ATOM     11  C   UNL     1      -0.243  10.153  22.152  0.00  0.00    +0.000 A 
ATOM     12  C   UNL     1       0.424   8.943  21.904  0.00  0.00    +0.000 A 
ATOM     13  C   UNL     1       1.142   8.872  20.700  0.00  0.00    +0.000 A 
ATOM     14  O   UNL     1       1.765   7.678  20.334  0.00  0.00    +0.000 OA
ENDROOT
BRANCH   1  18
ATOM     15  C   UNL     1       3.615   3.662  17.719  0.00  0.00    +0.000 A 
ATOM     16  C   UNL     1       4.486   4.764  17.871  0.00  0.00    +0.000 A 
ATOM     17  C   UNL     1       4.024   6.043  18.256  0.00  0.00    +0.000 A 
ATOM     18  C   UNL     1       2.670   6.251  18.489  0.00  0.00    +0.000 A 
ATOM     19  C   UNL     1       1.812   5.159  18.218  0.00  0.00    +0.000 A 
ATOM     20  C   UNL     1       2.248   3.877  17.867  0.00  0.00    +0.000 A 
BRANCH  15  22
ATOM     21  C   UNL     1       3.988   1.436  18.453  0.00  0.00    +0.000 C 
ATOM     22  O   UNL     1       4.049   2.402  17.407  0.00  0.00    +0.000 OA
ENDBRANCH  15  22
BRANCH  20  23
ATOM     23  O   UNL     1       1.190   3.020  17.767  0.00  0.00    +0.000 OA
ATOM     24  C   UNL     1       0.610   2.444  18.922  0.00  0.00    +0.000 C 
ENDBRANCH  20  23
ENDBRANCH   1  18
TORSDOF 3
ENDMDL
MODEL 8
REMARK VINA RESULT:      -7.5      1.728      8.274
REMARK  Name = 
REMARK  5 active torsions:
REMARK  status: ('A' for Active; 'I' for Inactive)
REMARK    1  A    between atoms: C_1  and  O_2
REMARK    2  A    between atoms: O_2  and  C_3
REMARK    3  A    between atoms: C_6  and  C_7
REMARK    4  A    between atoms: C_22  and  O_23
REMARK    5  A    between atoms: O_23  and  C_24
REMARK                            x       y       z     vdW  Elec       q    Type
REMARK                         _______ _______ _______ _____ _____    ______ ____
ROOT
ATOM      1  C   UNL     1       1.785   7.782  19.709  0.00  0.00    +0.000 A 
ATOM      2  C   UNL     1       1.659   8.645  18.688  0.00  0.00    +0.000 A 
ATOM      3  C   UNL     1       1.498  10.055  19.002  0.00  0.00    +0.000 A 
ATOM      4  O   UNL     1       1.883  10.927  18.237  0.00  0.00    +0.000 OA
ATOM      5  C   UNL     1       0.835  10.329  20.265  0.00  0.00    +0.000 A 
ATOM      6  C   UNL     1       0.201  11.569  20.394  0.00  0.00    +0.000 A 
ATOM      7  C   UNL     1      -0.644  11.738  21.491  0.00  0.00    +0.000 A 
ATOM      8  C   UNL     1      -1.531  12.757  21.902  0.00  0.00    +0.000 A 
ATOM      9  C   UNL     1      -2.126  12.300  23.054  0.00  0.00    +0.000 A 
ATOM     10  O   UNL     1      -1.645  11.069  23.391  0.00  0.00    +0.000 OA
ATOM     11  C   UNL     1      -0.742  10.715  22.423  0.00  0.00    +0.000 A 
ATOM     12  C   UNL     1      -0.043   9.498  22.356  0.00  0.00    +0.000 A 
ATOM     13  C   UNL     1       0.746   9.304  21.212  0.00  0.00    +0.000 A 
ATOM     14  O   UNL     1       1.408   8.090  21.024  0.00  0.00    +0.000 OA
ENDROOT
BRANCH   1  18
ATOM     15  C   UNL     1       3.665   4.043  18.542  0.00  0.00    +0.000 A 
ATOM     16  C   UNL     1       2.958   4.133  19.762  0.00  0.00    +0.000 A 
ATOM     17  C   UNL     1       2.349   5.333  20.194  0.00  0.00    +0.000 A 
ATOM     18  C   UNL     1       2.442   6.478  19.413  0.00  0.00    +0.000 A 
ATOM     19  C   UNL     1       3.250   6.386  18.256  0.00  0.00    +0.000 A 
ATOM     20  C   UNL     1       3.837   5.203  17.794  0.00  0.00    +0.000 A 
BRANCH  15  22
ATOM     21  C   UNL     1       3.507   1.680  18.395  0.00  0.00    +0.000 C 
ATOM     22  O   UNL     1       4.210   2.877  18.077  0.00  0.00    +0.000 OA
ENDBRANCH  15  22
BRANCH  20  23
ATOM     23  O   UNL     1       4.473   5.416  16.604  0.00  0.00    +0.000 OA
ATOM     24  C   UNL     1       5.237   6.587  16.387  0.00  0.00    +0.000 C 
ENDBRANCH  20  23
ENDBRANCH   1  18
TORSDOF 3
ENDMDL
MODEL 9
REMARK VINA RESULT:      -7.4      2.515      3.925
REMARK  Name = 
REMARK  5 active torsions:
REMARK  status: ('A' for Active; 'I' for Inactive)
REMARK    1  A    between atoms: C_1  and  O_2
REMARK    2  A    between atoms: O_2  and  C_3
REMARK    3  A    between atoms: C_6  and  C_7
REMARK    4  A    between atoms: C_22  and  O_23
REMARK    5  A    between atoms: O_23  and  C_24
REMARK                            x       y       z     vdW  Elec       q    Type
REMARK                         _______ _______ _______ _____ _____    ______ ____
ROOT
ATOM      1  C   UNL     1       1.109   8.205  20.716  0.00  0.00    +0.000 A 
ATOM      2  C   UNL     1       1.912   8.629  19.727  0.00  0.00    +0.000 A 
ATOM      3  C   UNL     1       2.334   7.661  18.728  0.00  0.00    +0.000 A 
ATOM      4  O   UNL     1       2.595   7.998  17.583  0.00  0.00    +0.000 OA
ATOM      5  C   UNL     1       2.439   6.294  19.206  0.00  0.00    +0.000 A 
ATOM      6  C   UNL     1       3.294   5.438  18.504  0.00  0.00    +0.000 A 
ATOM      7  C   UNL     1       3.594   4.212  19.099  0.00  0.00    +0.000 A 
ATOM      8  C   UNL     1       4.477   3.155  18.785  0.00  0.00    +0.000 A 
ATOM      9  C   UNL     1       4.353   2.243  19.806  0.00  0.00    +0.000 A 
ATOM     10  O   UNL     1       3.431   2.661  20.720  0.00  0.00    +0.000 OA
ATOM     11  C   UNL     1       2.972   3.880  20.294  0.00  0.00    +0.000 A 
ATOM     12  C   UNL     1       2.042   4.689  20.968  0.00  0.00    +0.000 A 
ATOM     13  C   UNL     1       1.803   5.951  20.405  0.00  0.00    +0.000 A 
ATOM     14  O   UNL     1       0.958   6.852  21.054  0.00  0.00    +0.000 OA
ENDROOT
BRANCH   1  18
ATOM     15  C   UNL     1      -1.164  11.427  22.539  0.00  0.00    +0.000 A 
ATOM     16  C   UNL     1      -0.774  10.309  23.309  0.00  0.00    +0.000 A 
ATOM     17  C   UNL     1      -0.053   9.227  22.755  0.00  0.00    +0.000 A 
ATOM     18  C   UNL     1       0.288   9.237  21.408  0.00  0.00    +0.000 A 
ATOM     19  C   UNL     1      -0.214  10.314  20.641  0.00  0.00    +0.000 A 
ATOM     20  C   UNL     1      -0.903  11.410  21.172  0.00  0.00    +0.000 A 
BRANCH  15  22
ATOM     21  C   UNL     1      -3.193  12.343  23.361  0.00  0.00    +0.000 C 
ATOM     22  O   UNL     1      -1.809  12.512  23.067  0.00  0.00    +0.000 OA
ENDBRANCH  15  22
BRANCH  20  23
ATOM     23  O   UNL     1      -1.170  12.328  20.197  0.00  0.00    +0.000 OA
ATOM     24  C   UNL     1      -2.328  12.217  19.392  0.00  0.00    +0.000 C 
ENDBRANCH  20  23
ENDBRANCH   1  18
TORSDOF 3
ENDMDL
