MODEL 1
REMARK VINA RESULT:      -8.9      0.000      0.000
REMARK  Name = 
REMARK  3 active torsions:
REMARK  status: ('A' for Active; 'I' for Inactive)
REMARK    1  A    between atoms: C_2  and  C_3
REMARK    2  A    between atoms: N_12  and  C_13
REMARK    3  A    between atoms: C_20  and  O_21
REMARK                            x       y       z     vdW  Elec       q    Type
REMARK                         _______ _______ _______ _____ _____    ______ ____
ROOT
ATOM      1  C   UNL     1       2.723   6.379  19.173  0.00  0.00    +0.000 A 
ATOM      2  C   UNL     1       2.142   5.995  20.393  0.00  0.00    +0.000 A 
ATOM      3  C   UNL     1       1.368   6.870  21.166  0.00  0.00    +0.000 A 
ATOM      4  C   UNL     1       1.174   8.178  20.737  0.00  0.00    +0.000 A 
ATOM      5  N   UNL     1       0.507   9.117  21.552  0.00  0.00    +0.000 N 
ATOM      6  C   UNL     1       0.538  10.426  21.160  0.00  0.00    +0.000 A 
ATOM      7  N   UNL     1       0.286  11.504  21.850  0.00  0.00    +0.000 NA
ATOM      8  C   UNL     1       0.498  12.493  20.918  0.00  0.00    +0.000 A 
ATOM      9  N   UNL     1       0.830  12.187  19.705  0.00  0.00    +0.000 NA
ATOM     10  C   UNL     1       0.935  10.833  19.795  0.00  0.00    +0.000 A 
ATOM     11  C   UNL     1       1.435   9.930  18.955  0.00  0.00    +0.000 A 
ATOM     12  C   UNL     1       1.643   8.554  19.453  0.00  0.00    +0.000 A 
ATOM     13  C   UNL     1       2.412   7.658  18.699  0.00  0.00    +0.000 A 
ATOM     14  H   UNL     1       0.404   8.913  22.535  0.00  0.00    +0.000 HD
ENDROOT
BRANCH   1  20
ATOM     15  O   UNL     1       8.029   4.243  16.907  0.00  0.00    +0.000 OA
ATOM     16  C   UNL     1       7.052   4.735  16.341  0.00  0.00    +0.000 C 
ATOM     17  N   UNL     1       6.054   5.413  17.032  0.00  0.00    +0.000 N 
ATOM     18  C   UNL     1       4.886   6.113  16.472  0.00  0.00    +0.000 C 
ATOM     19  C   UNL     1       3.607   5.469  17.027  0.00  0.00    +0.000 C 
ATOM     20  N   UNL     1       3.612   5.570  18.496  0.00  0.00    +0.000 N 
ATOM     21  C   UNL     1       4.795   4.970  19.153  0.00  0.00    +0.000 C 
ATOM     22  C   UNL     1       6.106   5.476  18.501  0.00  0.00    +0.000 C 
BRANCH  16  23
ATOM     23  C   UNL     1       6.994   4.618  14.858  0.00  0.00    +0.000 A 
ATOM     24  C   UNL     1       7.768   5.417  14.010  0.00  0.00    +0.000 A 
ATOM     25  C   UNL     1       7.778   5.174  12.635  0.00  0.00    +0.000 A 
ATOM     26  C   UNL     1       6.944   4.198  12.095  0.00  0.00    +0.000 A 
ATOM     27  C   UNL     1       6.084   3.479  12.924  0.00  0.00    +0.000 A 
ATOM     28  C   UNL     1       6.111   3.684  14.305  0.00  0.00    +0.000 A 
ENDBRANCH  16  23
ENDBRANCH   1  20
BRANCH   8  29
ATOM     29  O   UNL     1       0.382  13.729  21.399  0.00  0.00    +0.000 OA
ATOM     30  H   UNL     1       1.069  14.260  20.971  0.00  0.00    +0.000 HD
ENDBRANCH   8  29
TORSDOF 3
ENDMDL
MODEL 2
REMARK VINA RESULT:      -8.4      2.005     10.033
REMARK  Name = 
REMARK  3 active torsions:
REMARK  status: ('A' for Active; 'I' for Inactive)
REMARK    1  A    between atoms: C_2  and  C_3
REMARK    2  A    between atoms: N_12  and  C_13
REMARK    3  A    between atoms: C_20  and  O_21
REMARK                            x       y       z     vdW  Elec       q    Type
REMARK                         _______ _______ _______ _____ _____    ______ ____
ROOT
ATOM      1  C   UNL     1       2.106   8.096  18.948  0.00  0.00    +0.000 A 
ATOM      2  C   UNL     1       2.156   6.995  19.817  0.00  0.00    +0.000 A 
ATOM      3  C   UNL     1       2.979   5.887  19.582  0.00  0.00    +0.000 A 
ATOM      4  C   UNL     1       3.770   5.848  18.439  0.00  0.00    +0.000 A 
ATOM      5  N   UNL     1       4.513   4.695  18.110  0.00  0.00    +0.000 N 
ATOM      6  C   UNL     1       5.096   4.652  16.874  0.00  0.00    +0.000 A 
ATOM      7  N   UNL     1       5.558   3.629  16.211  0.00  0.00    +0.000 NA
ATOM      8  C   UNL     1       5.996   4.218  15.049  0.00  0.00    +0.000 A 
ATOM      9  N   UNL     1       5.897   5.498  14.889  0.00  0.00    +0.000 NA
ATOM     10  C   UNL     1       5.255   5.857  16.034  0.00  0.00    +0.000 A 
ATOM     11  C   UNL     1       4.680   7.001  16.400  0.00  0.00    +0.000 A 
ATOM     12  C   UNL     1       3.833   6.997  17.611  0.00  0.00    +0.000 A 
ATOM     13  C   UNL     1       3.000   8.093  17.871  0.00  0.00    +0.000 A 
ATOM     14  H   UNL     1       4.272   3.823  18.557  0.00  0.00    +0.000 HD
ENDROOT
BRANCH   1  20
ATOM     15  O   UNL     1      -0.242  13.760  19.458  0.00  0.00    +0.000 OA
ATOM     16  C   UNL     1      -0.151  12.850  20.282  0.00  0.00    +0.000 C 
ATOM     17  N   UNL     1       0.653  11.734  20.074  0.00  0.00    +0.000 N 
ATOM     18  C   UNL     1       0.913  10.624  21.005  0.00  0.00    +0.000 C 
ATOM     19  C   UNL     1       0.447   9.312  20.357  0.00  0.00    +0.000 C 
ATOM     20  N   UNL     1       1.180   9.109  19.096  0.00  0.00    +0.000 N 
ATOM     21  C   UNL     1       1.053  10.215  18.122  0.00  0.00    +0.000 C 
ATOM     22  C   UNL     1       1.357  11.578  18.791  0.00  0.00    +0.000 C 
BRANCH  16  23
ATOM     23  C   UNL     1      -0.910  13.004  21.553  0.00  0.00    +0.000 A 
ATOM     24  C   UNL     1      -0.493  13.860  22.578  0.00  0.00    +0.000 A 
ATOM     25  C   UNL     1      -1.311  14.071  23.690  0.00  0.00    +0.000 A 
ATOM     26  C   UNL     1      -2.498  13.356  23.826  0.00  0.00    +0.000 A 
ATOM     27  C   UNL     1      -2.860  12.414  22.863  0.00  0.00    +0.000 A 
ATOM     28  C   UNL     1      -2.070  12.241  21.725  0.00  0.00    +0.000 A 
ENDBRANCH  16  23
ENDBRANCH   1  20
BRANCH   8  29
ATOM     29  O   UNL     1       6.454   3.359  14.141  0.00  0.00    +0.000 OA
ATOM     30  H   UNL     1       6.377   3.795  13.280  0.00  0.00    +0.000 HD
ENDBRANCH   8  29
TORSDOF 3
ENDMDL
MODEL 3
REMARK VINA RESULT:      -8.0      3.625     10.381
REMARK  Name = 
REMARK  3 active torsions:
REMARK  status: ('A' for Active; 'I' for Inactive)
REMARK    1  A    between atoms: C_2  and  C_3
REMARK    2  A    between atoms: N_12  and  C_13
REMARK    3  A    between atoms: C_20  and  O_21
REMARK                            x       y       z     vdW  Elec       q    Type
REMARK                         _______ _______ _______ _____ _____    ______ ____
ROOT
ATOM      1  C   UNL     1       1.472   8.534  20.114  0.00  0.00    +0.000 A 
ATOM      2  C   UNL     1       1.893   8.626  18.777  0.00  0.00    +0.000 A 
ATOM      3  C   UNL     1       2.438   7.538  18.084  0.00  0.00    +0.000 A 
ATOM      4  C   UNL     1       2.596   6.318  18.732  0.00  0.00    +0.000 A 
ATOM      5  N   UNL     1       3.255   5.242  18.102  0.00  0.00    +0.000 N 
ATOM      6  C   UNL     1       3.558   4.152  18.870  0.00  0.00    +0.000 A 
ATOM      7  N   UNL     1       4.404   3.186  18.640  0.00  0.00    +0.000 NA
ATOM      8  C   UNL     1       4.266   2.415  19.770  0.00  0.00    +0.000 A 
ATOM      9  N   UNL     1       3.418   2.748  20.689  0.00  0.00    +0.000 NA
ATOM     10  C   UNL     1       2.946   3.925  20.196  0.00  0.00    +0.000 A 
ATOM     11  C   UNL     1       2.196   4.875  20.750  0.00  0.00    +0.000 A 
ATOM     12  C   UNL     1       2.067   6.164  20.038  0.00  0.00    +0.000 A 
ATOM     13  C   UNL     1       1.524   7.269  20.708  0.00  0.00    +0.000 A 
ATOM     14  H   UNL     1       3.831   5.436  17.296  0.00  0.00    +0.000 HD
ENDROOT
BRANCH   1  20
ATOM     15  O   UNL     1      -1.890  12.189  23.746  0.00  0.00    +0.000 OA
ATOM     16  C   UNL     1      -1.626  12.270  22.546  0.00  0.00    +0.000 C 
ATOM     17  N   UNL     1      -1.078  11.211  21.830  0.00  0.00    +0.000 N 
ATOM     18  C   UNL     1      -0.792  11.150  20.387  0.00  0.00    +0.000 C 
ATOM     19  C   UNL     1       0.711  10.907  20.188  0.00  0.00    +0.000 C 
ATOM     20  N   UNL     1       1.088   9.642  20.841  0.00  0.00    +0.000 N 
ATOM     21  C   UNL     1       0.761   9.570  22.282  0.00  0.00    +0.000 C 
ATOM     22  C   UNL     1      -0.713   9.972  22.536  0.00  0.00    +0.000 C 
BRANCH  16  23
ATOM     23  C   UNL     1      -1.958  13.549  21.861  0.00  0.00    +0.000 A 
ATOM     24  C   UNL     1      -3.230  13.818  21.345  0.00  0.00    +0.000 A 
ATOM     25  C   UNL     1      -3.526  15.083  20.835  0.00  0.00    +0.000 A 
ATOM     26  C   UNL     1      -2.528  16.050  20.751  0.00  0.00    +0.000 A 
ATOM     27  C   UNL     1      -1.228  15.749  21.156  0.00  0.00    +0.000 A 
ATOM     28  C   UNL     1      -0.943  14.501  21.715  0.00  0.00    +0.000 A 
ENDBRANCH  16  23
ENDBRANCH   1  20
BRANCH   8  29
ATOM     29  O   UNL     1       5.099   1.378  19.827  0.00  0.00    +0.000 OA
ATOM     30  H   UNL     1       5.920   1.654  19.396  0.00  0.00    +0.000 HD
ENDBRANCH   8  29
TORSDOF 3
ENDMDL
MODEL 4
REMARK VINA RESULT:      -8.0      1.867      3.109
REMARK  Name = 
REMARK  3 active torsions:
REMARK  status: ('A' for Active; 'I' for Inactive)
REMARK    1  A    between atoms: C_2  and  C_3
REMARK    2  A    between atoms: N_12  and  C_13
REMARK    3  A    between atoms: C_20  and  O_21
REMARK                            x       y       z     vdW  Elec       q    Type
REMARK                         _______ _______ _______ _____ _____    ______ ____
ROOT
ATOM      1  C   UNL     1       1.695   8.666  19.189  0.00  0.00    +0.000 A 
ATOM      2  C   UNL     1       1.658   9.810  18.376  0.00  0.00    +0.000 A 
ATOM      3  C   UNL     1       1.013  10.990  18.767  0.00  0.00    +0.000 A 
ATOM      4  C   UNL     1       0.363  11.044  19.994  0.00  0.00    +0.000 A 
ATOM      5  N   UNL     1      -0.400  12.172  20.361  0.00  0.00    +0.000 N 
ATOM      6  C   UNL     1      -1.178  12.070  21.481  0.00  0.00    +0.000 A 
ATOM      7  N   UNL     1      -2.180  12.812  21.865  0.00  0.00    +0.000 NA
ATOM      8  C   UNL     1      -2.547  12.205  23.043  0.00  0.00    +0.000 A 
ATOM      9  N   UNL     1      -1.890  11.180  23.481  0.00  0.00    +0.000 NA
ATOM     10  C   UNL     1      -0.998  10.988  22.472  0.00  0.00    +0.000 A 
ATOM     11  C   UNL     1      -0.169   9.980  22.208  0.00  0.00    +0.000 A 
ATOM     12  C   UNL     1       0.491   9.949  20.886  0.00  0.00    +0.000 A 
ATOM     13  C   UNL     1       1.143   8.781  20.469  0.00  0.00    +0.000 A 
ATOM     14  H   UNL     1      -0.682  12.819  19.640  0.00  0.00    +0.000 HD
ENDROOT
BRANCH   1  20
ATOM     15  O   UNL     1       5.282   3.687  18.735  0.00  0.00    +0.000 OA
ATOM     16  C   UNL     1       5.133   4.643  17.973  0.00  0.00    +0.000 C 
ATOM     17  N   UNL     1       4.486   5.812  18.362  0.00  0.00    +0.000 N 
ATOM     18  C   UNL     1       4.313   7.049  17.583  0.00  0.00    +0.000 C 
ATOM     19  C   UNL     1       2.811   7.322  17.410  0.00  0.00    +0.000 C 
ATOM     20  N   UNL     1       2.189   7.459  18.738  0.00  0.00    +0.000 N 
ATOM     21  C   UNL     1       2.381   6.296  19.633  0.00  0.00    +0.000 C 
ATOM     22  C   UNL     1       3.874   5.890  19.698  0.00  0.00    +0.000 C 
BRANCH  16  23
ATOM     23  C   UNL     1       5.717   4.525  16.610  0.00  0.00    +0.000 A 
ATOM     24  C   UNL     1       4.995   4.018  15.524  0.00  0.00    +0.000 A 
ATOM     25  C   UNL     1       5.542   4.056  14.240  0.00  0.00    +0.000 A 
ATOM     26  C   UNL     1       6.845   4.510  14.053  0.00  0.00    +0.000 A 
ATOM     27  C   UNL     1       7.611   4.906  15.149  0.00  0.00    +0.000 A 
ATOM     28  C   UNL     1       7.047   4.918  16.426  0.00  0.00    +0.000 A 
ENDBRANCH  16  23
ENDBRANCH   1  20
BRANCH   8  29
ATOM     29  O   UNL     1      -3.627  12.733  23.615  0.00  0.00    +0.000 OA
ATOM     30  H   UNL     1      -3.313  13.304  24.331  0.00  0.00    +0.000 HD
ENDBRANCH   8  29
TORSDOF 3
ENDMDL
MODEL 5
REMARK VINA RESULT:      -7.9      3.585      5.932
REMARK  Name = 
REMARK  3 active torsions:
REMARK  status: ('A' for Active; 'I' for Inactive)
REMARK    1  A    between atoms: C_2  and  C_3
REMARK    2  A    between atoms: N_12  and  C_13
REMARK    3  A    between atoms: C_20  and  O_21
REMARK                            x       y       z     vdW  Elec       q    Type
REMARK                         _______ _______ _______ _____ _____    ______ ____
ROOT
ATOM      1  C   UNL     1       1.014  11.323  18.699  0.00  0.00    +0.000 A 
ATOM      2  C   UNL     1      -0.065  12.193  18.922  0.00  0.00    +0.000 A 
ATOM      3  C   UNL     1       0.085  13.585  18.945  0.00  0.00    +0.000 A 
ATOM      4  C   UNL     1       1.344  14.145  18.763  0.00  0.00    +0.000 A 
ATOM      5  N   UNL     1       1.548  15.534  18.906  0.00  0.00    +0.000 N 
ATOM      6  C   UNL     1       2.839  15.983  18.921  0.00  0.00    +0.000 A 
ATOM      7  N   UNL     1       3.314  17.125  19.333  0.00  0.00    +0.000 NA
ATOM      8  C   UNL     1       4.661  16.971  19.105  0.00  0.00    +0.000 A 
ATOM      9  N   UNL     1       5.113  15.882  18.572  0.00  0.00    +0.000 NA
ATOM     10  C   UNL     1       3.972  15.147  18.471  0.00  0.00    +0.000 A 
ATOM     11  C   UNL     1       3.774  13.860  18.190  0.00  0.00    +0.000 A 
ATOM     12  C   UNL     1       2.425  13.298  18.413  0.00  0.00    +0.000 A 
ATOM     13  C   UNL     1       2.247  11.908  18.394  0.00  0.00    +0.000 A 
ATOM     14  H   UNL     1       0.846  16.076  19.387  0.00  0.00    +0.000 HD
ENDROOT
BRANCH   1  20
ATOM     15  O   UNL     1       1.719   5.654  20.984  0.00  0.00    +0.000 OA
ATOM     16  C   UNL     1       2.138   6.159  19.943  0.00  0.00    +0.000 C 
ATOM     17  N   UNL     1       2.112   7.531  19.716  0.00  0.00    +0.000 N 
ATOM     18  C   UNL     1       2.651   8.265  18.559  0.00  0.00    +0.000 C 
ATOM     19  C   UNL     1       1.504   9.022  17.873  0.00  0.00    +0.000 C 
ATOM     20  N   UNL     1       0.895   9.955  18.836  0.00  0.00    +0.000 N 
ATOM     21  C   UNL     1       0.398   9.323  20.078  0.00  0.00    +0.000 C 
ATOM     22  C   UNL     1       1.483   8.416  20.710  0.00  0.00    +0.000 C 
BRANCH  16  23
ATOM     23  C   UNL     1       2.727   5.241  18.929  0.00  0.00    +0.000 A 
ATOM     24  C   UNL     1       4.107   5.080  18.772  0.00  0.00    +0.000 A 
ATOM     25  C   UNL     1       4.605   4.107  17.904  0.00  0.00    +0.000 A 
ATOM     26  C   UNL     1       3.728   3.361  17.119  0.00  0.00    +0.000 A 
ATOM     27  C   UNL     1       2.356   3.600  17.186  0.00  0.00    +0.000 A 
ATOM     28  C   UNL     1       1.854   4.536  18.093  0.00  0.00    +0.000 A 
ENDBRANCH  16  23
ENDBRANCH   1  20
BRANCH   8  29
ATOM     29  O   UNL     1       5.406  17.992  19.523  0.00  0.00    +0.000 OA
ATOM     30  H   UNL     1       4.840  18.537  20.089  0.00  0.00    +0.000 HD
ENDBRANCH   8  29
TORSDOF 3
ENDMDL
MODEL 6
REMARK VINA RESULT:      -7.9      2.174     10.134
REMARK  Name = 
REMARK  3 active torsions:
REMARK  status: ('A' for Active; 'I' for Inactive)
REMARK    1  A    between atoms: C_2  and  C_3
REMARK    2  A    between atoms: N_12  and  C_13
REMARK    3  A    between atoms: C_20  and  O_21
REMARK                            x       y       z     vdW  Elec       q    Type
REMARK                         _______ _______ _______ _____ _____    ______ ____
ROOT
ATOM      1  C   UNL     1       2.011   8.473  18.847  0.00  0.00    +0.000 A 
ATOM      2  C   UNL     1       1.953   7.389  19.738  0.00  0.00    +0.000 A 
ATOM      3  C   UNL     1       2.718   6.230  19.562  0.00  0.00    +0.000 A 
ATOM      4  C   UNL     1       3.556   6.120  18.459  0.00  0.00    +0.000 A 
ATOM      5  N   UNL     1       4.243   4.917  18.187  0.00  0.00    +0.000 N 
ATOM      6  C   UNL     1       4.878   4.814  16.980  0.00  0.00    +0.000 A 
ATOM      7  N   UNL     1       5.308   3.751  16.359  0.00  0.00    +0.000 NA
ATOM      8  C   UNL     1       5.833   4.288  15.208  0.00  0.00    +0.000 A 
ATOM      9  N   UNL     1       5.820   5.568  15.020  0.00  0.00    +0.000 NA
ATOM     10  C   UNL     1       5.149   5.989  16.127  0.00  0.00    +0.000 A 
ATOM     11  C   UNL     1       4.628   7.172  16.444  0.00  0.00    +0.000 A 
ATOM     12  C   UNL     1       3.727   7.245  17.614  0.00  0.00    +0.000 A 
ATOM     13  C   UNL     1       2.951   8.394  17.814  0.00  0.00    +0.000 A 
ATOM     14  H   UNL     1       3.929   4.071  18.637  0.00  0.00    +0.000 HD
ENDROOT
BRANCH   1  20
ATOM     15  O   UNL     1      -0.106  14.128  20.028  0.00  0.00    +0.000 OA
ATOM     16  C   UNL     1      -0.370  13.046  20.551  0.00  0.00    +0.000 C 
ATOM     17  N   UNL     1       0.404  11.909  20.341  0.00  0.00    +0.000 N 
ATOM     18  C   UNL     1       0.248  10.584  20.964  0.00  0.00    +0.000 C 
ATOM     19  C   UNL     1       0.001   9.542  19.863  0.00  0.00    +0.000 C 
ATOM     20  N   UNL     1       1.142   9.542  18.933  0.00  0.00    +0.000 N 
ATOM     21  C   UNL     1       1.437  10.854  18.316  0.00  0.00    +0.000 C 
ATOM     22  C   UNL     1       1.528  11.963  19.393  0.00  0.00    +0.000 C 
BRANCH  16  23
ATOM     23  C   UNL     1      -1.540  13.000  21.468  0.00  0.00    +0.000 A 
ATOM     24  C   UNL     1      -2.854  12.874  21.005  0.00  0.00    +0.000 A 
ATOM     25  C   UNL     1      -3.902  12.698  21.910  0.00  0.00    +0.000 A 
ATOM     26  C   UNL     1      -3.653  12.745  23.280  0.00  0.00    +0.000 A 
ATOM     27  C   UNL     1      -2.362  12.988  23.747  0.00  0.00    +0.000 A 
ATOM     28  C   UNL     1      -1.305  13.111  22.843  0.00  0.00    +0.000 A 
ENDBRANCH  16  23
ENDBRANCH   1  20
BRANCH   8  29
ATOM     29  O   UNL     1       6.280   3.385  14.339  0.00  0.00    +0.000 OA
ATOM     30  H   UNL     1       7.246   3.399  14.392  0.00  0.00    +0.000 HD
ENDBRANCH   8  29
TORSDOF 3
ENDMDL
MODEL 7
REMARK VINA RESULT:      -7.7      1.735      2.551
REMARK  Name = 
REMARK  3 active torsions:
REMARK  status: ('A' for Active; 'I' for Inactive)
REMARK    1  A    between atoms: C_2  and  C_3
REMARK    2  A    between atoms: N_12  and  C_13
REMARK    3  A    between atoms: C_20  and  O_21
REMARK                            x       y       z     vdW  Elec       q    Type
REMARK                         _______ _______ _______ _____ _____    ______ ____
ROOT
ATOM      1  C   UNL     1       4.103   5.331  18.027  0.00  0.00    +0.000 A 
ATOM      2  C   UNL     1       3.810   4.605  19.193  0.00  0.00    +0.000 A 
ATOM      3  C   UNL     1       2.963   5.100  20.192  0.00  0.00    +0.000 A 
ATOM      4  C   UNL     1       2.398   6.362  20.053  0.00  0.00    +0.000 A 
ATOM      5  N   UNL     1       1.643   6.937  21.097  0.00  0.00    +0.000 N 
ATOM      6  C   UNL     1       1.299   8.255  20.973  0.00  0.00    +0.000 A 
ATOM      7  N   UNL     1       0.891   9.094  21.885  0.00  0.00    +0.000 NA
ATOM      8  C   UNL     1       0.723  10.246  21.155  0.00  0.00    +0.000 A 
ATOM      9  N   UNL     1       0.946  10.250  19.880  0.00  0.00    +0.000 NA
ATOM     10  C   UNL     1       1.390   8.978  19.687  0.00  0.00    +0.000 A 
ATOM     11  C   UNL     1       1.972   8.396  18.641  0.00  0.00    +0.000 A 
ATOM     12  C   UNL     1       2.577   7.061  18.833  0.00  0.00    +0.000 A 
ATOM     13  C   UNL     1       3.428   6.543  17.848  0.00  0.00    +0.000 A 
ATOM     14  H   UNL     1       1.731   6.550  22.025  0.00  0.00    +0.000 HD
ENDROOT
BRANCH   1  20
ATOM     15  O   UNL     1       7.981   5.425  13.250  0.00  0.00    +0.000 OA
ATOM     16  C   UNL     1       6.951   4.776  13.438  0.00  0.00    +0.000 C 
ATOM     17  N   UNL     1       6.053   5.080  14.456  0.00  0.00    +0.000 N 
ATOM     18  C   UNL     1       4.757   4.441  14.736  0.00  0.00    +0.000 C 
ATOM     19  C   UNL     1       4.794   3.842  16.150  0.00  0.00    +0.000 C 
ATOM     20  N   UNL     1       5.060   4.914  17.123  0.00  0.00    +0.000 N 
ATOM     21  C   UNL     1       6.303   5.678  16.877  0.00  0.00    +0.000 C 
ATOM     22  C   UNL     1       6.375   6.158  15.406  0.00  0.00    +0.000 C 
BRANCH  16  23
ATOM     23  C   UNL     1       6.669   3.660  12.495  0.00  0.00    +0.000 A 
ATOM     24  C   UNL     1       7.685   2.924  11.875  0.00  0.00    +0.000 A 
ATOM     25  C   UNL     1       7.369   1.802  11.108  0.00  0.00    +0.000 A 
ATOM     26  C   UNL     1       6.035   1.468  10.880  0.00  0.00    +0.000 A 
ATOM     27  C   UNL     1       5.017   2.267  11.400  0.00  0.00    +0.000 A 
ATOM     28  C   UNL     1       5.332   3.359  12.211  0.00  0.00    +0.000 A 
ENDBRANCH  16  23
ENDBRANCH   1  20
BRANCH   8  29
ATOM     29  O   UNL     1       0.378  11.307  21.881  0.00  0.00    +0.000 OA
ATOM     30  H   UNL     1       0.851  12.066  21.510  0.00  0.00    +0.000 HD
ENDBRANCH   8  29
TORSDOF 3
ENDMDL
MODEL 8
REMARK VINA RESULT:      -7.6      2.466     10.244
REMARK  Name = 
REMARK  3 active torsions:
REMARK  status: ('A' for Active; 'I' for Inactive)
REMARK    1  A    between atoms: C_2  and  C_3
REMARK    2  A    between atoms: N_12  and  C_13
REMARK    3  A    between atoms: C_20  and  O_21
REMARK                            x       y       z     vdW  Elec       q    Type
REMARK                         _______ _______ _______ _____ _____    ______ ____
ROOT
ATOM      1  C   UNL     1       1.649   8.686  19.178  0.00  0.00    +0.000 A 
ATOM      2  C   UNL     1       1.582   7.722  20.196  0.00  0.00    +0.000 A 
ATOM      3  C   UNL     1       2.343   6.547  20.171  0.00  0.00    +0.000 A 
ATOM      4  C   UNL     1       3.188   6.297  19.095  0.00  0.00    +0.000 A 
ATOM      5  N   UNL     1       3.871   5.068  18.979  0.00  0.00    +0.000 N 
ATOM      6  C   UNL     1       4.512   4.813  17.799  0.00  0.00    +0.000 A 
ATOM      7  N   UNL     1       4.942   3.679  17.318  0.00  0.00    +0.000 NA
ATOM      8  C   UNL     1       5.476   4.067  16.112  0.00  0.00    +0.000 A 
ATOM      9  N   UNL     1       5.469   5.314  15.766  0.00  0.00    +0.000 NA
ATOM     10  C   UNL     1       4.793   5.872  16.807  0.00  0.00    +0.000 A 
ATOM     11  C   UNL     1       4.275   7.087  16.972  0.00  0.00    +0.000 A 
ATOM     12  C   UNL     1       3.368   7.308  18.118  0.00  0.00    +0.000 A 
ATOM     13  C   UNL     1       2.595   8.476  18.169  0.00  0.00    +0.000 A 
ATOM     14  H   UNL     1       3.551   4.286  19.530  0.00  0.00    +0.000 HD
ENDROOT
BRANCH   1  20
ATOM     15  O   UNL     1      -0.677  14.296  20.161  0.00  0.00    +0.000 OA
ATOM     16  C   UNL     1      -1.052  13.191  20.551  0.00  0.00    +0.000 C 
ATOM     17  N   UNL     1      -0.252  12.057  20.459  0.00  0.00    +0.000 N 
ATOM     18  C   UNL     1      -0.545  10.703  20.956  0.00  0.00    +0.000 C 
ATOM     19  C   UNL     1      -0.538   9.725  19.772  0.00  0.00    +0.000 C 
ATOM     20  N   UNL     1       0.784   9.760  19.124  0.00  0.00    +0.000 N 
ATOM     21  C   UNL     1       1.211  11.099  18.663  0.00  0.00    +0.000 C 
ATOM     22  C   UNL     1       1.058  12.148  19.793  0.00  0.00    +0.000 C 
BRANCH  16  23
ATOM     23  C   UNL     1      -2.400  13.111  21.177  0.00  0.00    +0.000 A 
ATOM     24  C   UNL     1      -2.607  13.314  22.545  0.00  0.00    +0.000 A 
ATOM     25  C   UNL     1      -3.904  13.364  23.058  0.00  0.00    +0.000 A 
ATOM     26  C   UNL     1      -4.991  13.115  22.224  0.00  0.00    +0.000 A 
ATOM     27  C   UNL     1      -4.784  12.795  20.883  0.00  0.00    +0.000 A 
ATOM     28  C   UNL     1      -3.490  12.797  20.357  0.00  0.00    +0.000 A 
ENDBRANCH  16  23
ENDBRANCH   1  20
BRANCH   8  29
ATOM     29  O   UNL     1       5.924   3.061  15.365  0.00  0.00    +0.000 OA
ATOM     30  H   UNL     1       5.652   2.243  15.805  0.00  0.00    +0.000 HD
ENDBRANCH   8  29
TORSDOF 3
ENDMDL
MODEL 9
REMARK VINA RESULT:      -7.5      3.467      9.992
REMARK  Name = 
REMARK  3 active torsions:
REMARK  status: ('A' for Active; 'I' for Inactive)
REMARK    1  A    between atoms: C_2  and  C_3
REMARK    2  A    between atoms: N_12  and  C_13
REMARK    3  A    between atoms: C_20  and  O_21
REMARK                            x       y       z     vdW  Elec       q    Type
REMARK                         _______ _______ _______ _____ _____    ______ ____
ROOT
ATOM      1  C   UNL     1       1.484   9.050  19.319  0.00  0.00    +0.000 A 
ATOM      2  C   UNL     1       2.119   9.066  18.067  0.00  0.00    +0.000 A 
ATOM      3  C   UNL     1       2.776   7.945  17.544  0.00  0.00    +0.000 A 
ATOM      4  C   UNL     1       2.830   6.770  18.285  0.00  0.00    +0.000 A 
ATOM      5  N   UNL     1       3.589   5.667  17.841  0.00  0.00    +0.000 N 
ATOM      6  C   UNL     1       3.765   4.631  18.716  0.00  0.00    +0.000 A 
ATOM      7  N   UNL     1       4.641   3.665  18.691  0.00  0.00    +0.000 NA
ATOM      8  C   UNL     1       4.321   2.963  19.828  0.00  0.00    +0.000 A 
ATOM      9  N   UNL     1       3.332   3.339  20.572  0.00  0.00    +0.000 NA
ATOM     10  C   UNL     1       2.942   4.477  19.934  0.00  0.00    +0.000 A 
ATOM     11  C   UNL     1       2.107   5.449  20.296  0.00  0.00    +0.000 A 
ATOM     12  C   UNL     1       2.092   6.689  19.492  0.00  0.00    +0.000 A 
ATOM     13  C   UNL     1       1.441   7.825  19.992  0.00  0.00    +0.000 A 
ATOM     14  H   UNL     1       4.289   5.819  17.131  0.00  0.00    +0.000 HD
ENDROOT
BRANCH   1  20
ATOM     15  O   UNL     1      -2.272  13.788  20.460  0.00  0.00    +0.000 OA
ATOM     16  C   UNL     1      -1.137  13.758  19.985  0.00  0.00    +0.000 C 
ATOM     17  N   UNL     1      -0.543  12.580  19.545  0.00  0.00    +0.000 N 
ATOM     18  C   UNL     1       0.764  12.418  18.889  0.00  0.00    +0.000 C 
ATOM     19  C   UNL     1       1.644  11.500  19.751  0.00  0.00    +0.000 C 
ATOM     20  N   UNL     1       0.979  10.195  19.901  0.00  0.00    +0.000 N 
ATOM     21  C   UNL     1      -0.383  10.258  20.475  0.00  0.00    +0.000 C 
ATOM     22  C   UNL     1      -1.250  11.302  19.728  0.00  0.00    +0.000 C 
BRANCH  16  23
ATOM     23  C   UNL     1      -0.419  15.056  19.854  0.00  0.00    +0.000 A 
ATOM     24  C   UNL     1      -0.481  15.835  18.693  0.00  0.00    +0.000 A 
ATOM     25  C   UNL     1       0.097  17.105  18.671  0.00  0.00    +0.000 A 
ATOM     26  C   UNL     1       0.819  17.560  19.772  0.00  0.00    +0.000 A 
ATOM     27  C   UNL     1       0.983  16.739  20.887  0.00  0.00    +0.000 A 
ATOM     28  C   UNL     1       0.361  15.489  20.931  0.00  0.00    +0.000 A 
ENDBRANCH  16  23
ENDBRANCH   1  20
BRANCH   8  29
ATOM     29  O   UNL     1       5.137   1.943  20.087  0.00  0.00    +0.000 OA
ATOM     30  H   UNL     1       5.983   2.325  20.362  0.00  0.00    +0.000 HD
ENDBRANCH   8  29
TORSDOF 3
ENDMDL
