MODEL 1
REMARK VINA RESULT:      -7.6      0.000      0.000
REMARK  Name = 
REMARK  13 active torsions:
REMARK  status: ('A' for Active; 'I' for Inactive)
REMARK    1  A    between atoms: C_1  and  C_2
REMARK    2  A    between atoms: C_2  and  C_3
REMARK    3  A    between atoms: C_3  and  S_4
REMARK    4  A    between atoms: S_4  and  C_5
REMARK    5  A    between atoms: C_5  and  C_6
REMARK    6  A    between atoms: C_6  and  C_7
REMARK    7  A    between atoms: C_6  and  N_11
REMARK    8  A    between atoms: C_7  and  O_9
REMARK    9  A    between atoms: O_9  and  C_10
REMARK   10  A    between atoms: C_18  and  C_19
REMARK   11  A    between atoms: N_21  and  C_22
REMARK   12  A    between atoms: C_22  and  C_23
REMARK   13  A    between atoms: C_29  and  C_30
REMARK                            x       y       z     vdW  Elec       q    Type
REMARK                         _______ _______ _______ _____ _____    ______ ____
ROOT
ATOM      1  N   UNL     1       5.347   5.318  18.194  0.00  0.00    +0.000 N 
ATOM      2  C   UNL     1       5.090   4.364  19.167  0.00  0.00    +0.000 A 
ATOM      3  O   UNL     1       5.808   3.422  19.462  0.00  0.00    +0.000 OA
ATOM      4  N   UNL     1       3.804   4.621  19.667  0.00  0.00    +0.000 N 
ATOM      5  N   UNL     1       3.233   5.582  18.833  0.00  0.00    +0.000 N 
ATOM      6  C   UNL     1       4.188   6.015  17.929  0.00  0.00    +0.000 A 
ATOM      7  O   UNL     1       4.009   6.850  17.054  0.00  0.00    +0.000 OA
ATOM      8  C   UNL     1       1.878   6.059  18.987  0.00  0.00    +0.000 C 
ATOM      9  C   UNL     1       1.101   5.220  19.971  0.00  0.00    +0.000 C 
ATOM     10  C   UNL     1       1.599   4.122  20.561  0.00  0.00    +0.000 C 
ATOM     11  C   UNL     1       2.979   3.609  20.295  0.00  0.00    +0.000 C 
ENDROOT
BRANCH   8  12
ATOM     12  C   UNL     1       1.917   7.534  19.451  0.00  0.00    +0.000 C 
ATOM     13  O   UNL     1       2.114   7.879  20.618  0.00  0.00    +0.000 OA
ATOM     14  N   UNL     1       1.755   8.454  18.433  0.00  0.00    +0.000 N 
ATOM     15  H   UNL     1       1.852   8.134  17.475  0.00  0.00    +0.000 HD
BRANCH  14  16
ATOM     16  C   UNL     1       1.801   9.882  18.662  0.00  0.00    +0.000 C 
BRANCH  16  17
ATOM     17  C   UNL     1       0.449  10.499  18.430  0.00  0.00    +0.000 A 
ATOM     18  C   UNL     1      -0.575   9.735  17.860  0.00  0.00    +0.000 A 
ATOM     19  C   UNL     1      -1.852  10.270  17.727  0.00  0.00    +0.000 A 
ATOM     20  C   UNL     1      -2.083  11.562  18.164  0.00  0.00    +0.000 A 
ATOM     21  N   UNL     1      -3.369  12.092  18.149  0.00  0.00    +0.000 N 
ATOM     22  N   UNL     1      -1.118  12.328  18.696  0.00  0.00    +0.000 NA
ATOM     23  C   UNL     1       0.132  11.804  18.825  0.00  0.00    +0.000 A 
ATOM     24  C   UNL     1       1.153  12.714  19.447  0.00  0.00    +0.000 C 
ATOM     25  H   UNL     1      -3.821  11.995  17.249  0.00  0.00    +0.000 HD
ATOM     26  H   UNL     1      -3.298  13.062  18.449  0.00  0.00    +0.000 HD
ENDBRANCH  16  17
ENDBRANCH  14  16
ENDBRANCH   8  12
BRANCH   1  27
ATOM     27  C   UNL     1       6.616   5.429  17.465  0.00  0.00    +0.000 C 
BRANCH  27  28
ATOM     28  C   UNL     1       7.483   6.604  17.943  0.00  0.00    +0.000 C 
ATOM     29  O   UNL     1       8.120   6.590  18.989  0.00  0.00    +0.000 OA
BRANCH  28  30
ATOM     30  O   UNL     1       7.452   7.677  17.104  0.00  0.00    +0.000 OA
ATOM     31  C   UNL     1       7.955   8.887  17.686  0.00  0.00    +0.000 C 
ENDBRANCH  28  30
ENDBRANCH  27  28
BRANCH  27  32
ATOM     32  C   UNL     1       6.398   5.447  15.944  0.00  0.00    +0.000 C 
BRANCH  32  33
ATOM     33  S   UNL     1       6.296   3.844  15.056  0.00  0.00    +0.000 S 
BRANCH  33  34
ATOM     34  C   UNL     1       5.426   4.337  13.532  0.00  0.00    +0.000 C 
BRANCH  34  36
ATOM     35  C   UNL     1       4.522   3.140  11.509  0.00  0.00    +0.000 C 
ATOM     36  C   UNL     1       5.718   3.320  12.431  0.00  0.00    +0.000 C 
ENDBRANCH  34  36
ENDBRANCH  33  34
ENDBRANCH  32  33
ENDBRANCH  27  32
ENDBRANCH   1  27
TORSDOF 10
ENDMDL
MODEL 2
REMARK VINA RESULT:      -7.2      0.978      1.136
REMARK  Name = 
REMARK  13 active torsions:
REMARK  status: ('A' for Active; 'I' for Inactive)
REMARK    1  A    between atoms: C_1  and  C_2
REMARK    2  A    between atoms: C_2  and  C_3
REMARK    3  A    between atoms: C_3  and  S_4
REMARK    4  A    between atoms: S_4  and  C_5
REMARK    5  A    between atoms: C_5  and  C_6
REMARK    6  A    between atoms: C_6  and  C_7
REMARK    7  A    between atoms: C_6  and  N_11
REMARK    8  A    between atoms: C_7  and  O_9
REMARK    9  A    between atoms: O_9  and  C_10
REMARK   10  A    between atoms: C_18  and  C_19
REMARK   11  A    between atoms: N_21  and  C_22
REMARK   12  A    between atoms: C_22  and  C_23
REMARK   13  A    between atoms: C_29  and  C_30
REMARK                            x       y       z     vdW  Elec       q    Type
REMARK                         _______ _______ _______ _____ _____    ______ ____
ROOT
ATOM      1  N   UNL     1       5.067   4.514  18.122  0.00  0.00    +0.000 N 
ATOM      2  C   UNL     1       4.768   3.694  19.199  0.00  0.00    +0.000 A 
ATOM      3  O   UNL     1       5.389   2.703  19.547  0.00  0.00    +0.000 OA
ATOM      4  N   UNL     1       3.558   4.152  19.743  0.00  0.00    +0.000 N 
ATOM      5  N   UNL     1       3.046   5.094  18.850  0.00  0.00    +0.000 N 
ATOM      6  C   UNL     1       3.982   5.320  17.854  0.00  0.00    +0.000 A 
ATOM      7  O   UNL     1       3.841   6.085  16.910  0.00  0.00    +0.000 OA
ATOM      8  C   UNL     1       1.770   5.746  19.032  0.00  0.00    +0.000 C 
ATOM      9  C   UNL     1       0.970   5.105  20.138  0.00  0.00    +0.000 C 
ATOM     10  C   UNL     1       1.376   4.014  20.807  0.00  0.00    +0.000 C 
ATOM     11  C   UNL     1       2.666   3.313  20.516  0.00  0.00    +0.000 C 
ENDROOT
BRANCH   8  12
ATOM     12  C   UNL     1       2.012   7.242  19.341  0.00  0.00    +0.000 C 
ATOM     13  O   UNL     1       2.323   7.669  20.455  0.00  0.00    +0.000 OA
ATOM     14  N   UNL     1       1.896   8.075  18.244  0.00  0.00    +0.000 N 
ATOM     15  H   UNL     1       1.893   7.656  17.320  0.00  0.00    +0.000 HD
BRANCH  14  16
ATOM     16  C   UNL     1       2.124   9.501  18.324  0.00  0.00    +0.000 C 
BRANCH  16  17
ATOM     17  C   UNL     1       0.819  10.248  18.300  0.00  0.00    +0.000 A 
ATOM     18  C   UNL     1      -0.343   9.603  17.863  0.00  0.00    +0.000 A 
ATOM     19  C   UNL     1      -1.568  10.258  17.924  0.00  0.00    +0.000 A 
ATOM     20  C   UNL     1      -1.611  11.550  18.419  0.00  0.00    +0.000 A 
ATOM     21  N   UNL     1      -2.829  12.197  18.597  0.00  0.00    +0.000 N 
ATOM     22  N   UNL     1      -0.512  12.204  18.826  0.00  0.00    +0.000 NA
ATOM     23  C   UNL     1       0.687  11.562  18.765  0.00  0.00    +0.000 A 
ATOM     24  C   UNL     1       1.868  12.350  19.258  0.00  0.00    +0.000 C 
ATOM     25  H   UNL     1      -3.408  12.175  17.768  0.00  0.00    +0.000 HD
ATOM     26  H   UNL     1      -2.624  13.144  18.906  0.00  0.00    +0.000 HD
ENDBRANCH  16  17
ENDBRANCH  14  16
ENDBRANCH   8  12
BRANCH   1  27
ATOM     27  C   UNL     1       6.287   4.400  17.315  0.00  0.00    +0.000 C 
BRANCH  27  28
ATOM     28  C   UNL     1       7.026   5.737  17.149  0.00  0.00    +0.000 C 
ATOM     29  O   UNL     1       7.532   6.101  16.094  0.00  0.00    +0.000 OA
BRANCH  28  30
ATOM     30  O   UNL     1       7.090   6.468  18.296  0.00  0.00    +0.000 OA
ATOM     31  C   UNL     1       8.000   5.946  19.272  0.00  0.00    +0.000 C 
ENDBRANCH  28  30
ENDBRANCH  27  28
BRANCH  27  32
ATOM     32  C   UNL     1       6.014   3.715  15.966  0.00  0.00    +0.000 C 
BRANCH  32  33
ATOM     33  S   UNL     1       5.633   4.768  14.511  0.00  0.00    +0.000 S 
BRANCH  33  34
ATOM     34  C   UNL     1       6.408   3.811  13.168  0.00  0.00    +0.000 C 
BRANCH  34  36
ATOM     35  C   UNL     1       5.735   2.039  11.509  0.00  0.00    +0.000 C 
ATOM     36  C   UNL     1       5.327   3.332  12.200  0.00  0.00    +0.000 C 
ENDBRANCH  34  36
ENDBRANCH  33  34
ENDBRANCH  32  33
ENDBRANCH  27  32
ENDBRANCH   1  27
TORSDOF 10
ENDMDL
MODEL 3
REMARK VINA RESULT:      -7.0      1.872      3.673
REMARK  Name = 
REMARK  13 active torsions:
REMARK  status: ('A' for Active; 'I' for Inactive)
REMARK    1  A    between atoms: C_1  and  C_2
REMARK    2  A    between atoms: C_2  and  C_3
REMARK    3  A    between atoms: C_3  and  S_4
REMARK    4  A    between atoms: S_4  and  C_5
REMARK    5  A    between atoms: C_5  and  C_6
REMARK    6  A    between atoms: C_6  and  C_7
REMARK    7  A    between atoms: C_6  and  N_11
REMARK    8  A    between atoms: C_7  and  O_9
REMARK    9  A    between atoms: O_9  and  C_10
REMARK   10  A    between atoms: C_18  and  C_19
REMARK   11  A    between atoms: N_21  and  C_22
REMARK   12  A    between atoms: C_22  and  C_23
REMARK   13  A    between atoms: C_29  and  C_30
REMARK                            x       y       z     vdW  Elec       q    Type
REMARK                         _______ _______ _______ _____ _____    ______ ____
ROOT
ATOM      1  N   UNL     1       4.935   6.389  17.980  0.00  0.00    +0.000 N 
ATOM      2  C   UNL     1       5.114   5.333  18.861  0.00  0.00    +0.000 A 
ATOM      3  O   UNL     1       6.035   4.533  18.852  0.00  0.00    +0.000 OA
ATOM      4  N   UNL     1       3.982   5.291  19.690  0.00  0.00    +0.000 N 
ATOM      5  N   UNL     1       3.053   6.179  19.147  0.00  0.00    +0.000 N 
ATOM      6  C   UNL     1       3.645   6.859  18.097  0.00  0.00    +0.000 A 
ATOM      7  O   UNL     1       3.098   7.704  17.402  0.00  0.00    +0.000 OA
ATOM      8  C   UNL     1       1.726   6.365  19.688  0.00  0.00    +0.000 C 
ATOM      9  C   UNL     1       1.395   5.318  20.722  0.00  0.00    +0.000 C 
ATOM     10  C   UNL     1       2.213   4.300  21.031  0.00  0.00    +0.000 C 
ATOM     11  C   UNL     1       3.541   4.093  20.373  0.00  0.00    +0.000 C 
ENDROOT
BRANCH   8  12
ATOM     12  C   UNL     1       1.631   7.779  20.306  0.00  0.00    +0.000 C 
ATOM     13  O   UNL     1       1.973   8.046  21.459  0.00  0.00    +0.000 OA
ATOM     14  N   UNL     1       1.166   8.749  19.437  0.00  0.00    +0.000 N 
ATOM     15  H   UNL     1       1.143   8.534  18.445  0.00  0.00    +0.000 HD
BRANCH  14  16
ATOM     16  C   UNL     1       1.045  10.139  19.818  0.00  0.00    +0.000 C 
BRANCH  16  17
ATOM     17  C   UNL     1      -0.246  10.717  19.306  0.00  0.00    +0.000 A 
ATOM     18  C   UNL     1      -0.783  10.258  18.097  0.00  0.00    +0.000 A 
ATOM     19  C   UNL     1      -2.020  10.721  17.665  0.00  0.00    +0.000 A 
ATOM     20  C   UNL     1      -2.701  11.638  18.446  0.00  0.00    +0.000 A 
ATOM     21  N   UNL     1      -3.987  12.042  18.102  0.00  0.00    +0.000 N 
ATOM     22  N   UNL     1      -2.205  12.114  19.599  0.00  0.00    +0.000 NA
ATOM     23  C   UNL     1      -0.992  11.661  20.022  0.00  0.00    +0.000 A 
ATOM     24  C   UNL     1      -0.513  12.223  21.330  0.00  0.00    +0.000 C 
ATOM     25  H   UNL     1      -4.054  12.357  17.143  0.00  0.00    +0.000 HD
ATOM     26  H   UNL     1      -4.267  12.756  18.770  0.00  0.00    +0.000 HD
ENDBRANCH  16  17
ENDBRANCH  14  16
ENDBRANCH   8  12
BRANCH   1  27
ATOM     27  C   UNL     1       5.926   6.803  16.981  0.00  0.00    +0.000 C 
BRANCH  27  28
ATOM     28  C   UNL     1       6.061   5.808  15.819  0.00  0.00    +0.000 C 
ATOM     29  O   UNL     1       5.114   5.187  15.349  0.00  0.00    +0.000 OA
BRANCH  28  30
ATOM     30  O   UNL     1       7.341   5.658  15.378  0.00  0.00    +0.000 OA
ATOM     31  C   UNL     1       7.453   4.933  14.147  0.00  0.00    +0.000 C 
ENDBRANCH  28  30
ENDBRANCH  27  28
BRANCH  27  32
ATOM     32  C   UNL     1       7.282   7.130  17.628  0.00  0.00    +0.000 C 
BRANCH  32  33
ATOM     33  S   UNL     1       7.879   8.866  17.579  0.00  0.00    +0.000 S 
BRANCH  33  34
ATOM     34  C   UNL     1       8.895   8.934  19.090  0.00  0.00    +0.000 C 
BRANCH  34  36
ATOM     35  C   UNL     1       9.256  11.217  18.091  0.00  0.00    +0.000 C 
ATOM     36  C   UNL     1       9.301  10.381  19.362  0.00  0.00    +0.000 C 
ENDBRANCH  34  36
ENDBRANCH  33  34
ENDBRANCH  32  33
ENDBRANCH  27  32
ENDBRANCH   1  27
TORSDOF 10
ENDMDL
MODEL 4
REMARK VINA RESULT:      -7.0      2.039      4.166
REMARK  Name = 
REMARK  13 active torsions:
REMARK  status: ('A' for Active; 'I' for Inactive)
REMARK    1  A    between atoms: C_1  and  C_2
REMARK    2  A    between atoms: C_2  and  C_3
REMARK    3  A    between atoms: C_3  and  S_4
REMARK    4  A    between atoms: S_4  and  C_5
REMARK    5  A    between atoms: C_5  and  C_6
REMARK    6  A    between atoms: C_6  and  C_7
REMARK    7  A    between atoms: C_6  and  N_11
REMARK    8  A    between atoms: C_7  and  O_9
REMARK    9  A    between atoms: O_9  and  C_10
REMARK   10  A    between atoms: C_18  and  C_19
REMARK   11  A    between atoms: N_21  and  C_22
REMARK   12  A    between atoms: C_22  and  C_23
REMARK   13  A    between atoms: C_29  and  C_30
REMARK                            x       y       z     vdW  Elec       q    Type
REMARK                         _______ _______ _______ _____ _____    ______ ____
ROOT
ATOM      1  N   UNL     1       5.212   5.580  17.888  0.00  0.00    +0.000 N 
ATOM      2  C   UNL     1       5.695   4.503  18.616  0.00  0.00    +0.000 A 
ATOM      3  O   UNL     1       6.821   4.039  18.558  0.00  0.00    +0.000 OA
ATOM      4  N   UNL     1       4.615   3.982  19.347  0.00  0.00    +0.000 N 
ATOM      5  N   UNL     1       3.466   4.615  18.873  0.00  0.00    +0.000 N 
ATOM      6  C   UNL     1       3.837   5.605  17.978  0.00  0.00    +0.000 A 
ATOM      7  O   UNL     1       3.068   6.341  17.376  0.00  0.00    +0.000 OA
ATOM      8  C   UNL     1       2.136   4.294  19.337  0.00  0.00    +0.000 C 
ATOM      9  C   UNL     1       2.129   3.044  20.180  0.00  0.00    +0.000 C 
ATOM     10  C   UNL     1       3.218   2.291  20.397  0.00  0.00    +0.000 C 
ATOM     11  C   UNL     1       4.559   2.612  19.813  0.00  0.00    +0.000 C 
ENDROOT
BRANCH   8  12
ATOM     12  C   UNL     1       1.585   5.491  20.146  0.00  0.00    +0.000 C 
ATOM     13  O   UNL     1       0.499   5.482  20.728  0.00  0.00    +0.000 OA
ATOM     14  N   UNL     1       2.439   6.577  20.206  0.00  0.00    +0.000 N 
ATOM     15  H   UNL     1       3.407   6.443  19.935  0.00  0.00    +0.000 HD
BRANCH  14  16
ATOM     16  C   UNL     1       2.118   7.776  20.949  0.00  0.00    +0.000 C 
BRANCH  16  17
ATOM     17  C   UNL     1       1.296   8.715  20.109  0.00  0.00    +0.000 A 
ATOM     18  C   UNL     1       1.631   8.922  18.766  0.00  0.00    +0.000 A 
ATOM     19  C   UNL     1       0.823   9.716  17.961  0.00  0.00    +0.000 A 
ATOM     20  C   UNL     1      -0.308  10.293  18.512  0.00  0.00    +0.000 A 
ATOM     21  N   UNL     1      -1.198  11.003  17.713  0.00  0.00    +0.000 N 
ATOM     22  N   UNL     1      -0.646  10.132  19.800  0.00  0.00    +0.000 NA
ATOM     23  C   UNL     1       0.146   9.355  20.589  0.00  0.00    +0.000 A 
ATOM     24  C   UNL     1      -0.308   9.204  22.013  0.00  0.00    +0.000 C 
ATOM     25  H   UNL     1      -0.741  11.712  17.154  0.00  0.00    +0.000 HD
ATOM     26  H   UNL     1      -1.912  11.387  18.326  0.00  0.00    +0.000 HD
ENDBRANCH  16  17
ENDBRANCH  14  16
ENDBRANCH   8  12
BRANCH   1  27
ATOM     27  C   UNL     1       6.045   6.435  17.034  0.00  0.00    +0.000 C 
BRANCH  27  28
ATOM     28  C   UNL     1       6.520   5.728  15.756  0.00  0.00    +0.000 C 
ATOM     29  O   UNL     1       7.685   5.729  15.378  0.00  0.00    +0.000 OA
BRANCH  28  30
ATOM     30  O   UNL     1       5.514   5.123  15.064  0.00  0.00    +0.000 OA
ATOM     31  C   UNL     1       5.965   4.186  14.078  0.00  0.00    +0.000 C 
ENDBRANCH  28  30
ENDBRANCH  27  28
BRANCH  27  32
ATOM     32  C   UNL     1       7.209   7.060  17.820  0.00  0.00    +0.000 C 
BRANCH  32  33
ATOM     33  S   UNL     1       7.586   8.838  17.558  0.00  0.00    +0.000 S 
BRANCH  33  34
ATOM     34  C   UNL     1       8.853   9.124  18.837  0.00  0.00    +0.000 C 
BRANCH  34  36
ATOM     35  C   UNL     1       9.606  11.092  20.215  0.00  0.00    +0.000 C 
ATOM     36  C   UNL     1       9.267  10.594  18.818  0.00  0.00    +0.000 C 
ENDBRANCH  34  36
ENDBRANCH  33  34
ENDBRANCH  32  33
ENDBRANCH  27  32
ENDBRANCH   1  27
TORSDOF 10
ENDMDL
MODEL 5
REMARK VINA RESULT:      -7.0      2.260      3.875
REMARK  Name = 
REMARK  13 active torsions:
REMARK  status: ('A' for Active; 'I' for Inactive)
REMARK    1  A    between atoms: C_1  and  C_2
REMARK    2  A    between atoms: C_2  and  C_3
REMARK    3  A    between atoms: C_3  and  S_4
REMARK    4  A    between atoms: S_4  and  C_5
REMARK    5  A    between atoms: C_5  and  C_6
REMARK    6  A    between atoms: C_6  and  C_7
REMARK    7  A    between atoms: C_6  and  N_11
REMARK    8  A    between atoms: C_7  and  O_9
REMARK    9  A    between atoms: O_9  and  C_10
REMARK   10  A    between atoms: C_18  and  C_19
REMARK   11  A    between atoms: N_21  and  C_22
REMARK   12  A    between atoms: C_22  and  C_23
REMARK   13  A    between atoms: C_29  and  C_30
REMARK                            x       y       z     vdW  Elec       q    Type
REMARK                         _______ _______ _______ _____ _____    ______ ____
ROOT
ATOM      1  N   UNL     1       4.255   5.246  17.054  0.00  0.00    +0.000 N 
ATOM      2  C   UNL     1       4.463   3.887  17.237  0.00  0.00    +0.000 A 
ATOM      3  O   UNL     1       5.238   3.185  16.609  0.00  0.00    +0.000 OA
ATOM      4  N   UNL     1       3.537   3.454  18.199  0.00  0.00    +0.000 N 
ATOM      5  N   UNL     1       2.650   4.511  18.409  0.00  0.00    +0.000 N 
ATOM      6  C   UNL     1       3.099   5.617  17.706  0.00  0.00    +0.000 A 
ATOM      7  O   UNL     1       2.544   6.707  17.672  0.00  0.00    +0.000 OA
ATOM      8  C   UNL     1       1.508   4.423  19.288  0.00  0.00    +0.000 C 
ATOM      9  C   UNL     1       1.256   3.004  19.733  0.00  0.00    +0.000 C 
ATOM     10  C   UNL     1       1.967   1.954  19.293  0.00  0.00    +0.000 C 
ATOM     11  C   UNL     1       3.083   2.083  18.304  0.00  0.00    +0.000 C 
ENDROOT
BRANCH   8  12
ATOM     12  C   UNL     1       1.748   5.335  20.513  0.00  0.00    +0.000 C 
ATOM     13  O   UNL     1       2.373   4.984  21.516  0.00  0.00    +0.000 OA
ATOM     14  N   UNL     1       1.239   6.614  20.378  0.00  0.00    +0.000 N 
ATOM     15  H   UNL     1       0.966   6.927  19.453  0.00  0.00    +0.000 HD
BRANCH  14  16
ATOM     16  C   UNL     1       1.397   7.625  21.401  0.00  0.00    +0.000 C 
BRANCH  16  17
ATOM     17  C   UNL     1       0.853   8.945  20.929  0.00  0.00    +0.000 A 
ATOM     18  C   UNL     1       0.999   9.317  19.587  0.00  0.00    +0.000 A 
ATOM     19  C   UNL     1       0.419  10.493  19.124  0.00  0.00    +0.000 A 
ATOM     20  C   UNL     1      -0.295  11.279  20.010  0.00  0.00    +0.000 A 
ATOM     21  N   UNL     1      -0.980  12.404  19.561  0.00  0.00    +0.000 N 
ATOM     22  N   UNL     1      -0.435  10.962  21.307  0.00  0.00    +0.000 NA
ATOM     23  C   UNL     1       0.133   9.811  21.760  0.00  0.00    +0.000 A 
ATOM     24  C   UNL     1      -0.084   9.513  23.216  0.00  0.00    +0.000 C 
ATOM     25  H   UNL     1      -0.397  13.024  19.013  0.00  0.00    +0.000 HD
ATOM     26  H   UNL     1      -1.376  12.861  20.379  0.00  0.00    +0.000 HD
ENDBRANCH  16  17
ENDBRANCH  14  16
ENDBRANCH   8  12
BRANCH   1  27
ATOM     27  C   UNL     1       5.062   6.090  16.165  0.00  0.00    +0.000 C 
BRANCH  27  28
ATOM     28  C   UNL     1       5.657   5.316  14.979  0.00  0.00    +0.000 C 
ATOM     29  O   UNL     1       4.984   4.638  14.211  0.00  0.00    +0.000 OA
BRANCH  28  30
ATOM     30  O   UNL     1       7.010   5.432  14.878  0.00  0.00    +0.000 OA
ATOM     31  C   UNL     1       7.545   4.964  13.634  0.00  0.00    +0.000 C 
ENDBRANCH  28  30
ENDBRANCH  27  28
BRANCH  27  32
ATOM     32  C   UNL     1       6.131   6.874  16.943  0.00  0.00    +0.000 C 
BRANCH  32  33
ATOM     33  S   UNL     1       7.028   6.022  18.299  0.00  0.00    +0.000 S 
BRANCH  33  34
ATOM     34  C   UNL     1       8.311   7.252  18.703  0.00  0.00    +0.000 C 
BRANCH  34  36
ATOM     35  C   UNL     1       8.749   9.722  18.482  0.00  0.00    +0.000 C 
ATOM     36  C   UNL     1       8.102   8.500  17.848  0.00  0.00    +0.000 C 
ENDBRANCH  34  36
ENDBRANCH  33  34
ENDBRANCH  32  33
ENDBRANCH  27  32
ENDBRANCH   1  27
TORSDOF 10
ENDMDL
MODEL 6
REMARK VINA RESULT:      -6.9      1.364      1.511
REMARK  Name = 
REMARK  13 active torsions:
REMARK  status: ('A' for Active; 'I' for Inactive)
REMARK    1  A    between atoms: C_1  and  C_2
REMARK    2  A    between atoms: C_2  and  C_3
REMARK    3  A    between atoms: C_3  and  S_4
REMARK    4  A    between atoms: S_4  and  C_5
REMARK    5  A    between atoms: C_5  and  C_6
REMARK    6  A    between atoms: C_6  and  C_7
REMARK    7  A    between atoms: C_6  and  N_11
REMARK    8  A    between atoms: C_7  and  O_9
REMARK    9  A    between atoms: O_9  and  C_10
REMARK   10  A    between atoms: C_18  and  C_19
REMARK   11  A    between atoms: N_21  and  C_22
REMARK   12  A    between atoms: C_22  and  C_23
REMARK   13  A    between atoms: C_29  and  C_30
REMARK                            x       y       z     vdW  Elec       q    Type
REMARK                         _______ _______ _______ _____ _____    ______ ____
ROOT
ATOM      1  N   UNL     1       4.793   4.102  18.382  0.00  0.00    +0.000 N 
ATOM      2  C   UNL     1       4.592   3.207  19.422  0.00  0.00    +0.000 A 
ATOM      3  O   UNL     1       5.270   2.224  19.670  0.00  0.00    +0.000 OA
ATOM      4  N   UNL     1       3.401   3.582  20.063  0.00  0.00    +0.000 N 
ATOM      5  N   UNL     1       2.801   4.553  19.262  0.00  0.00    +0.000 N 
ATOM      6  C   UNL     1       3.665   4.877  18.229  0.00  0.00    +0.000 A 
ATOM      7  O   UNL     1       3.437   5.690  17.344  0.00  0.00    +0.000 OA
ATOM      8  C   UNL     1       1.515   5.140  19.558  0.00  0.00    +0.000 C 
ATOM      9  C   UNL     1       0.809   4.401  20.668  0.00  0.00    +0.000 C 
ATOM     10  C   UNL     1       1.295   3.290  21.243  0.00  0.00    +0.000 C 
ATOM     11  C   UNL     1       2.590   2.662  20.834  0.00  0.00    +0.000 C 
ENDROOT
BRANCH   8  12
ATOM     12  C   UNL     1       1.718   6.623  19.945  0.00  0.00    +0.000 C 
ATOM     13  O   UNL     1       1.845   7.016  21.107  0.00  0.00    +0.000 OA
ATOM     14  N   UNL     1       1.794   7.486  18.868  0.00  0.00    +0.000 N 
ATOM     15  H   UNL     1       1.940   7.091  17.944  0.00  0.00    +0.000 HD
BRANCH  14  16
ATOM     16  C   UNL     1       2.022   8.906  19.025  0.00  0.00    +0.000 C 
BRANCH  16  17
ATOM     17  C   UNL     1       0.728   9.665  18.918  0.00  0.00    +0.000 A 
ATOM     18  C   UNL     1      -0.008   9.621  17.728  0.00  0.00    +0.000 A 
ATOM     19  C   UNL     1      -1.248  10.244  17.654  0.00  0.00    +0.000 A 
ATOM     20  C   UNL     1      -1.733  10.904  18.769  0.00  0.00    +0.000 A 
ATOM     21  N   UNL     1      -3.015  11.445  18.768  0.00  0.00    +0.000 N 
ATOM     22  N   UNL     1      -1.043  10.982  19.918  0.00  0.00    +0.000 NA
ATOM     23  C   UNL     1       0.172  10.373  19.991  0.00  0.00    +0.000 A 
ATOM     24  C   UNL     1       0.874  10.486  21.314  0.00  0.00    +0.000 C 
ATOM     25  H   UNL     1      -3.185  12.042  17.969  0.00  0.00    +0.000 HD
ATOM     26  H   UNL     1      -3.137  11.931  19.653  0.00  0.00    +0.000 HD
ENDBRANCH  16  17
ENDBRANCH  14  16
ENDBRANCH   8  12
BRANCH   1  27
ATOM     27  C   UNL     1       5.966   4.086  17.499  0.00  0.00    +0.000 C 
BRANCH  27  28
ATOM     28  C   UNL     1       7.093   5.013  17.980  0.00  0.00    +0.000 C 
ATOM     29  O   UNL     1       8.188   4.606  18.351  0.00  0.00    +0.000 OA
BRANCH  28  30
ATOM     30  O   UNL     1       6.749   6.331  17.983  0.00  0.00    +0.000 OA
ATOM     31  C   UNL     1       7.867   7.226  17.961  0.00  0.00    +0.000 C 
ENDBRANCH  28  30
ENDBRANCH  27  28
BRANCH  27  32
ATOM     32  C   UNL     1       5.578   4.353  16.036  0.00  0.00    +0.000 C 
BRANCH  32  33
ATOM     33  S   UNL     1       6.919   4.541  14.796  0.00  0.00    +0.000 S 
BRANCH  33  34
ATOM     34  C   UNL     1       6.149   3.791  13.324  0.00  0.00    +0.000 C 
BRANCH  34  36
ATOM     35  C   UNL     1       7.620   5.256  11.899  0.00  0.00    +0.000 C 
ATOM     36  C   UNL     1       7.134   3.838  12.159  0.00  0.00    +0.000 C 
ENDBRANCH  34  36
ENDBRANCH  33  34
ENDBRANCH  32  33
ENDBRANCH  27  32
ENDBRANCH   1  27
TORSDOF 10
ENDMDL
MODEL 7
REMARK VINA RESULT:      -6.9      1.917      2.299
REMARK  Name = 
REMARK  13 active torsions:
REMARK  status: ('A' for Active; 'I' for Inactive)
REMARK    1  A    between atoms: C_1  and  C_2
REMARK    2  A    between atoms: C_2  and  C_3
REMARK    3  A    between atoms: C_3  and  S_4
REMARK    4  A    between atoms: S_4  and  C_5
REMARK    5  A    between atoms: C_5  and  C_6
REMARK    6  A    between atoms: C_6  and  C_7
REMARK    7  A    between atoms: C_6  and  N_11
REMARK    8  A    between atoms: C_7  and  O_9
REMARK    9  A    between atoms: O_9  and  C_10
REMARK   10  A    between atoms: C_18  and  C_19
REMARK   11  A    between atoms: N_21  and  C_22
REMARK   12  A    between atoms: C_22  and  C_23
REMARK   13  A    between atoms: C_29  and  C_30
REMARK                            x       y       z     vdW  Elec       q    Type
REMARK                         _______ _______ _______ _____ _____    ______ ____
ROOT
ATOM      1  N   UNL     1       4.893   4.666  17.201  0.00  0.00    +0.000 N 
ATOM      2  C   UNL     1       4.627   3.320  17.400  0.00  0.00    +0.000 A 
ATOM      3  O   UNL     1       5.257   2.383  16.939  0.00  0.00    +0.000 OA
ATOM      4  N   UNL     1       3.435   3.241  18.138  0.00  0.00    +0.000 N 
ATOM      5  N   UNL     1       2.897   4.527  18.173  0.00  0.00    +0.000 N 
ATOM      6  C   UNL     1       3.801   5.406  17.600  0.00  0.00    +0.000 A 
ATOM      7  O   UNL     1       3.632   6.610  17.467  0.00  0.00    +0.000 OA
ATOM      8  C   UNL     1       1.628   4.838  18.790  0.00  0.00    +0.000 C 
ATOM      9  C   UNL     1       0.862   3.589  19.147  0.00  0.00    +0.000 C 
ATOM     10  C   UNL     1       1.286   2.351  18.849  0.00  0.00    +0.000 C 
ATOM     11  C   UNL     1       2.566   2.082  18.121  0.00  0.00    +0.000 C 
ENDROOT
BRANCH   8  12
ATOM     12  C   UNL     1       1.881   5.693  20.053  0.00  0.00    +0.000 C 
ATOM     13  O   UNL     1       2.379   5.250  21.090  0.00  0.00    +0.000 OA
ATOM     14  N   UNL     1       1.543   7.026  19.914  0.00  0.00    +0.000 N 
ATOM     15  H   UNL     1       1.383   7.387  18.979  0.00  0.00    +0.000 HD
BRANCH  14  16
ATOM     16  C   UNL     1       1.743   7.992  20.972  0.00  0.00    +0.000 C 
BRANCH  16  17
ATOM     17  C   UNL     1       0.904   9.218  20.735  0.00  0.00    +0.000 A 
ATOM     18  C   UNL     1       0.782   9.738  19.441  0.00  0.00    +0.000 A 
ATOM     19  C   UNL     1      -0.064  10.814  19.201  0.00  0.00    +0.000 A 
ATOM     20  C   UNL     1      -0.773  11.356  20.258  0.00  0.00    +0.000 A 
ATOM     21  N   UNL     1      -1.710  12.361  20.038  0.00  0.00    +0.000 N 
ATOM     22  N   UNL     1      -0.662  10.895  21.514  0.00  0.00    +0.000 NA
ATOM     23  C   UNL     1       0.167   9.841  21.749  0.00  0.00    +0.000 A 
ATOM     24  C   UNL     1       0.222   9.368  23.174  0.00  0.00    +0.000 C 
ATOM     25  H   UNL     1      -1.335  13.133  19.501  0.00  0.00    +0.000 HD
ATOM     26  H   UNL     1      -2.059  12.651  20.949  0.00  0.00    +0.000 HD
ENDBRANCH  16  17
ENDBRANCH  14  16
ENDBRANCH   8  12
BRANCH   1  27
ATOM     27  C   UNL     1       6.087   5.176  16.517  0.00  0.00    +0.000 C 
BRANCH  27  28
ATOM     28  C   UNL     1       6.812   6.273  17.311  0.00  0.00    +0.000 C 
ATOM     29  O   UNL     1       6.571   7.468  17.184  0.00  0.00    +0.000 OA
BRANCH  28  30
ATOM     30  O   UNL     1       7.771   5.793  18.150  0.00  0.00    +0.000 OA
ATOM     31  C   UNL     1       7.368   5.731  19.524  0.00  0.00    +0.000 C 
ENDBRANCH  28  30
ENDBRANCH  27  28
BRANCH  27  32
ATOM     32  C   UNL     1       5.775   5.610  15.076  0.00  0.00    +0.000 C 
BRANCH  32  33
ATOM     33  S   UNL     1       6.521   4.659  13.694  0.00  0.00    +0.000 S 
BRANCH  33  34
ATOM     34  C   UNL     1       5.142   3.560  13.235  0.00  0.00    +0.000 C 
BRANCH  34  36
ATOM     35  C   UNL     1       3.933   3.110  11.072  0.00  0.00    +0.000 C 
ATOM     36  C   UNL     1       5.285   3.155  11.769  0.00  0.00    +0.000 C 
ENDBRANCH  34  36
ENDBRANCH  33  34
ENDBRANCH  32  33
ENDBRANCH  27  32
ENDBRANCH   1  27
TORSDOF 10
ENDMDL
MODEL 8
REMARK VINA RESULT:      -6.9      1.371      1.501
REMARK  Name = 
REMARK  13 active torsions:
REMARK  status: ('A' for Active; 'I' for Inactive)
REMARK    1  A    between atoms: C_1  and  C_2
REMARK    2  A    between atoms: C_2  and  C_3
REMARK    3  A    between atoms: C_3  and  S_4
REMARK    4  A    between atoms: S_4  and  C_5
REMARK    5  A    between atoms: C_5  and  C_6
REMARK    6  A    between atoms: C_6  and  C_7
REMARK    7  A    between atoms: C_6  and  N_11
REMARK    8  A    between atoms: C_7  and  O_9
REMARK    9  A    between atoms: O_9  and  C_10
REMARK   10  A    between atoms: C_18  and  C_19
REMARK   11  A    between atoms: N_21  and  C_22
REMARK   12  A    between atoms: C_22  and  C_23
REMARK   13  A    between atoms: C_29  and  C_30
REMARK                            x       y       z     vdW  Elec       q    Type
REMARK                         _______ _______ _______ _____ _____    ______ ____
ROOT
ATOM      1  N   UNL     1       5.002   4.535  18.444  0.00  0.00    +0.000 N 
ATOM      2  C   UNL     1       4.734   3.483  19.308  0.00  0.00    +0.000 A 
ATOM      3  O   UNL     1       5.381   2.454  19.416  0.00  0.00    +0.000 OA
ATOM      4  N   UNL     1       3.520   3.776  19.950  0.00  0.00    +0.000 N 
ATOM      5  N   UNL     1       2.978   4.884  19.298  0.00  0.00    +0.000 N 
ATOM      6  C   UNL     1       3.896   5.354  18.375  0.00  0.00    +0.000 A 
ATOM      7  O   UNL     1       3.727   6.311  17.632  0.00  0.00    +0.000 OA
ATOM      8  C   UNL     1       1.690   5.446  19.632  0.00  0.00    +0.000 C 
ATOM      9  C   UNL     1       0.917   4.550  20.568  0.00  0.00    +0.000 C 
ATOM     10  C   UNL     1       1.354   3.345  20.967  0.00  0.00    +0.000 C 
ATOM     11  C   UNL     1       2.656   2.761  20.516  0.00  0.00    +0.000 C 
ENDROOT
BRANCH   8  12
ATOM     12  C   UNL     1       1.902   6.837  20.274  0.00  0.00    +0.000 C 
ATOM     13  O   UNL     1       2.986   7.423  20.295  0.00  0.00    +0.000 OA
ATOM     14  N   UNL     1       0.752   7.405  20.791  0.00  0.00    +0.000 N 
ATOM     15  H   UNL     1      -0.143   7.007  20.525  0.00  0.00    +0.000 HD
BRANCH  14  16
ATOM     16  C   UNL     1       0.740   8.719  21.396  0.00  0.00    +0.000 C 
BRANCH  16  17
ATOM     17  C   UNL     1       0.225   9.744  20.424  0.00  0.00    +0.000 A 
ATOM     18  C   UNL     1       0.431   9.566  19.051  0.00  0.00    +0.000 A 
ATOM     19  C   UNL     1      -0.121  10.461  18.142  0.00  0.00    +0.000 A 
ATOM     20  C   UNL     1      -0.869  11.522  18.620  0.00  0.00    +0.000 A 
ATOM     21  N   UNL     1      -1.528  12.375  17.740  0.00  0.00    +0.000 N 
ATOM     22  N   UNL     1      -1.068  11.734  19.931  0.00  0.00    +0.000 NA
ATOM     23  C   UNL     1      -0.527  10.857  20.820  0.00  0.00    +0.000 A 
ATOM     24  C   UNL     1      -0.810  11.147  22.267  0.00  0.00    +0.000 C 
ATOM     25  H   UNL     1      -0.918  12.739  17.019  0.00  0.00    +0.000 HD
ATOM     26  H   UNL     1      -1.957  13.110  18.297  0.00  0.00    +0.000 HD
ENDBRANCH  16  17
ENDBRANCH  14  16
ENDBRANCH   8  12
BRANCH   1  27
ATOM     27  C   UNL     1       6.215   4.637  17.625  0.00  0.00    +0.000 C 
BRANCH  27  28
ATOM     28  C   UNL     1       7.310   5.497  18.276  0.00  0.00    +0.000 C 
ATOM     29  O   UNL     1       7.633   5.397  19.454  0.00  0.00    +0.000 OA
BRANCH  28  30
ATOM     30  O   UNL     1       7.867   6.402  17.426  0.00  0.00    +0.000 OA
ATOM     31  C   UNL     1       7.797   7.757  17.887  0.00  0.00    +0.000 C 
ENDBRANCH  28  30
ENDBRANCH  27  28
BRANCH  27  32
ATOM     32  C   UNL     1       5.895   5.091  16.191  0.00  0.00    +0.000 C 
BRANCH  32  33
ATOM     33  S   UNL     1       6.655   4.173  14.794  0.00  0.00    +0.000 S 
BRANCH  33  34
ATOM     34  C   UNL     1       5.249   4.059  13.640  0.00  0.00    +0.000 C 
BRANCH  34  36
ATOM     35  C   UNL     1       4.531   3.122  11.415  0.00  0.00    +0.000 C 
ATOM     36  C   UNL     1       5.695   3.337  12.370  0.00  0.00    +0.000 C 
ENDBRANCH  34  36
ENDBRANCH  33  34
ENDBRANCH  32  33
ENDBRANCH  27  32
ENDBRANCH   1  27
TORSDOF 10
ENDMDL
MODEL 9
REMARK VINA RESULT:      -6.8      1.697      1.977
REMARK  Name = 
REMARK  13 active torsions:
REMARK  status: ('A' for Active; 'I' for Inactive)
REMARK    1  A    between atoms: C_1  and  C_2
REMARK    2  A    between atoms: C_2  and  C_3
REMARK    3  A    between atoms: C_3  and  S_4
REMARK    4  A    between atoms: S_4  and  C_5
REMARK    5  A    between atoms: C_5  and  C_6
REMARK    6  A    between atoms: C_6  and  C_7
REMARK    7  A    between atoms: C_6  and  N_11
REMARK    8  A    between atoms: C_7  and  O_9
REMARK    9  A    between atoms: O_9  and  C_10
REMARK   10  A    between atoms: C_18  and  C_19
REMARK   11  A    between atoms: N_21  and  C_22
REMARK   12  A    between atoms: C_22  and  C_23
REMARK   13  A    between atoms: C_29  and  C_30
REMARK                            x       y       z     vdW  Elec       q    Type
REMARK                         _______ _______ _______ _____ _____    ______ ____
ROOT
ATOM      1  N   UNL     1       4.772   4.215  17.959  0.00  0.00    +0.000 N 
ATOM      2  C   UNL     1       4.551   3.244  18.924  0.00  0.00    +0.000 A 
ATOM      3  O   UNL     1       5.132   2.176  19.020  0.00  0.00    +0.000 OA
ATOM      4  N   UNL     1       3.460   3.673  19.697  0.00  0.00    +0.000 N 
ATOM      5  N   UNL     1       2.914   4.778  19.044  0.00  0.00    +0.000 N 
ATOM      6  C   UNL     1       3.729   5.115  17.977  0.00  0.00    +0.000 A 
ATOM      7  O   UNL     1       3.528   6.034  17.195  0.00  0.00    +0.000 OA
ATOM      8  C   UNL     1       1.727   5.462  19.503  0.00  0.00    +0.000 C 
ATOM      9  C   UNL     1       1.027   4.690  20.594  0.00  0.00    +0.000 C 
ATOM     10  C   UNL     1       1.428   3.481  21.019  0.00  0.00    +0.000 C 
ATOM     11  C   UNL     1       2.611   2.767  20.444  0.00  0.00    +0.000 C 
ENDROOT
BRANCH   8  12
ATOM     12  C   UNL     1       2.123   6.868  20.009  0.00  0.00    +0.000 C 
ATOM     13  O   UNL     1       3.116   7.482  19.615  0.00  0.00    +0.000 OA
ATOM     14  N   UNL     1       1.237   7.415  20.919  0.00  0.00    +0.000 N 
ATOM     15  H   UNL     1       0.321   6.989  21.014  0.00  0.00    +0.000 HD
BRANCH  14  16
ATOM     16  C   UNL     1       1.415   8.738  21.476  0.00  0.00    +0.000 C 
BRANCH  16  17
ATOM     17  C   UNL     1       0.523   9.729  20.780  0.00  0.00    +0.000 A 
ATOM     18  C   UNL     1       0.587   9.865  19.388  0.00  0.00    +0.000 A 
ATOM     19  C   UNL     1      -0.297  10.712  18.730  0.00  0.00    +0.000 A 
ATOM     20  C   UNL     1      -1.231  11.411  19.473  0.00  0.00    +0.000 A 
ATOM     21  N   UNL     1      -2.201  12.183  18.841  0.00  0.00    +0.000 N 
ATOM     22  N   UNL     1      -1.305  11.320  20.810  0.00  0.00    +0.000 NA
ATOM     23  C   UNL     1      -0.439  10.491  21.455  0.00  0.00    +0.000 A 
ATOM     24  C   UNL     1      -0.597  10.425  22.947  0.00  0.00    +0.000 C 
ATOM     25  H   UNL     1      -1.809  12.828  18.168  0.00  0.00    +0.000 HD
ATOM     26  H   UNL     1      -2.734  12.652  19.570  0.00  0.00    +0.000 HD
ENDBRANCH  16  17
ENDBRANCH  14  16
ENDBRANCH   8  12
BRANCH   1  27
ATOM     27  C   UNL     1       5.866   4.169  16.982  0.00  0.00    +0.000 C 
BRANCH  27  28
ATOM     28  C   UNL     1       7.041   5.089  17.351  0.00  0.00    +0.000 C 
ATOM     29  O   UNL     1       7.401   6.033  16.657  0.00  0.00    +0.000 OA
BRANCH  28  30
ATOM     30  O   UNL     1       7.663   4.738  18.510  0.00  0.00    +0.000 OA
ATOM     31  C   UNL     1       7.878   5.830  19.412  0.00  0.00    +0.000 C 
ENDBRANCH  28  30
ENDBRANCH  27  28
BRANCH  27  32
ATOM     32  C   UNL     1       5.361   4.415  15.552  0.00  0.00    +0.000 C 
BRANCH  32  33
ATOM     33  S   UNL     1       6.523   4.149  14.155  0.00  0.00    +0.000 S 
BRANCH  33  34
ATOM     34  C   UNL     1       5.394   3.522  12.869  0.00  0.00    +0.000 C 
BRANCH  34  36
ATOM     35  C   UNL     1       5.962   1.545  11.417  0.00  0.00    +0.000 C 
ATOM     36  C   UNL     1       6.210   3.023  11.680  0.00  0.00    +0.000 C 
ENDBRANCH  34  36
ENDBRANCH  33  34
ENDBRANCH  32  33
ENDBRANCH  27  32
ENDBRANCH   1  27
TORSDOF 10
ENDMDL
