MODEL 1
REMARK VINA RESULT:      -6.7      0.000      0.000
REMARK  Name = 
REMARK  7 active torsions:
REMARK  status: ('A' for Active; 'I' for Inactive)
REMARK    1  A    between atoms: C_1  and  O_2
REMARK    2  A    between atoms: O_2  and  C_3
REMARK    3  A    between atoms: C_3  and  C_5
REMARK    4  A    between atoms: C_15  and  O_16
REMARK    5  A    between atoms: O_16  and  C_17
REMARK    6  A    between atoms: C_20  and  O_21
REMARK    7  A    between atoms: O_21  and  C_22
REMARK                            x       y       z     vdW  Elec       q    Type
REMARK                         _______ _______ _______ _____ _____    ______ ____
ROOT
ATOM      1  C   UNL     1       6.168   4.038  13.704  0.00  0.00    +0.000 A 
ATOM      2  C   UNL     1       5.549   3.285  14.722  0.00  0.00    +0.000 A 
ATOM      3  C   UNL     1       5.256   4.063  15.970  0.00  0.00    +0.000 A 
ATOM      4  C   UNL     1       5.838   5.305  15.739  0.00  0.00    +0.000 A 
ATOM      5  S   UNL     1       6.183   5.685  14.134  0.00  0.00    +0.000 S 
ATOM      6  C   UNL     1       6.233   6.335  16.704  0.00  0.00    +0.000 C 
ATOM      7  C   UNL     1       6.230   5.812  18.112  0.00  0.00    +0.000 C 
ATOM      8  N   UNL     1       5.574   4.483  18.463  0.00  0.00    +0.000 NA
ATOM      9  C   UNL     1       4.506   5.040  19.331  0.00  0.00    +0.000 C 
ATOM     10  C   UNL     1       2.987   5.127  18.891  0.00  0.00    +0.000 A 
ATOM     11  C   UNL     1       2.533   6.498  18.830  0.00  0.00    +0.000 A 
ATOM     12  C   UNL     1       2.148   7.021  20.000  0.00  0.00    +0.000 A 
ATOM     13  C   UNL     1       1.788   6.042  20.886  0.00  0.00    +0.000 A 
ATOM     14  C   UNL     1       1.826   4.588  20.457  0.00  0.00    +0.000 A 
ATOM     15  C   UNL     1       2.404   3.973  19.319  0.00  0.00    +0.000 A 
ATOM     16  C   UNL     1       3.082   3.310  18.004  0.00  0.00    +0.000 C 
ATOM     17  C   UNL     1       4.810   3.609  17.469  0.00  0.00    +0.000 C 
ENDROOT
BRANCH   1  18
ATOM     18  C   UNL     1       6.781   3.795  12.398  0.00  0.00    +0.000 C 
ATOM     19  O   UNL     1       7.602   4.533  11.852  0.00  0.00    +0.000 OA
BRANCH  18  21
ATOM     20  C   UNL     1       4.890   2.829  11.456  0.00  0.00    +0.000 C 
ATOM     21  O   UNL     1       6.279   2.684  11.790  0.00  0.00    +0.000 OA
ENDBRANCH  18  21
ENDBRANCH   1  18
BRANCH  11  22
ATOM     22  O   UNL     1       2.849   7.264  17.740  0.00  0.00    +0.000 OA
ATOM     23  C   UNL     1       2.233   8.557  17.815  0.00  0.00    +0.000 C 
ENDBRANCH  11  22
BRANCH  14  24
ATOM     24  O   UNL     1       1.062   3.852  21.373  0.00  0.00    +0.000 OA
ATOM     25  C   UNL     1       1.539   2.530  21.617  0.00  0.00    +0.000 C 
ENDBRANCH  14  24
TORSDOF 4
ENDMDL
MODEL 2
REMARK VINA RESULT:      -6.4      5.928      8.489
REMARK  Name = 
REMARK  7 active torsions:
REMARK  status: ('A' for Active; 'I' for Inactive)
REMARK    1  A    between atoms: C_1  and  O_2
REMARK    2  A    between atoms: O_2  and  C_3
REMARK    3  A    between atoms: C_3  and  C_5
REMARK    4  A    between atoms: C_15  and  O_16
REMARK    5  A    between atoms: O_16  and  C_17
REMARK    6  A    between atoms: C_20  and  O_21
REMARK    7  A    between atoms: O_21  and  C_22
REMARK                            x       y       z     vdW  Elec       q    Type
REMARK                         _______ _______ _______ _____ _____    ______ ____
ROOT
ATOM      1  C   UNL     1       2.141   7.504  19.240  0.00  0.00    +0.000 A 
ATOM      2  C   UNL     1       1.721   7.938  20.514  0.00  0.00    +0.000 A 
ATOM      3  C   UNL     1       1.121   9.311  20.529  0.00  0.00    +0.000 A 
ATOM      4  C   UNL     1       1.301   9.773  19.230  0.00  0.00    +0.000 A 
ATOM      5  S   UNL     1       1.615   8.607  18.055  0.00  0.00    +0.000 S 
ATOM      6  C   UNL     1       1.293  11.151  18.728  0.00  0.00    +0.000 C 
ATOM      7  C   UNL     1       1.362  12.153  19.846  0.00  0.00    +0.000 C 
ATOM      8  N   UNL     1       1.129  11.741  21.294  0.00  0.00    +0.000 NA
ATOM      9  C   UNL     1      -0.113  12.528  21.501  0.00  0.00    +0.000 C 
ATOM     10  C   UNL     1      -1.551  11.871  21.586  0.00  0.00    +0.000 A 
ATOM     11  C   UNL     1      -2.404  12.328  20.511  0.00  0.00    +0.000 A 
ATOM     12  C   UNL     1      -3.008  13.503  20.726  0.00  0.00    +0.000 A 
ATOM     13  C   UNL     1      -3.103  13.774  22.064  0.00  0.00    +0.000 A 
ATOM     14  C   UNL     1      -2.587  12.768  23.074  0.00  0.00    +0.000 A 
ATOM     15  C   UNL     1      -1.774  11.620  22.906  0.00  0.00    +0.000 A 
ATOM     16  C   UNL     1      -0.840  10.316  22.668  0.00  0.00    +0.000 C 
ATOM     17  C   UNL     1       0.741  10.333  21.739  0.00  0.00    +0.000 C 
ENDROOT
BRANCH   1  18
ATOM     18  C   UNL     1       2.882   6.380  18.669  0.00  0.00    +0.000 C 
ATOM     19  O   UNL     1       3.865   6.479  17.934  0.00  0.00    +0.000 OA
BRANCH  18  21
ATOM     20  C   UNL     1       1.716   4.557  17.824  0.00  0.00    +0.000 C 
ATOM     21  O   UNL     1       2.314   5.179  18.972  0.00  0.00    +0.000 OA
ENDBRANCH  18  21
ENDBRANCH   1  18
BRANCH  11  22
ATOM     22  O   UNL     1      -2.272  11.775  19.265  0.00  0.00    +0.000 OA
ATOM     23  C   UNL     1      -3.526  11.753  18.568  0.00  0.00    +0.000 C 
ENDBRANCH  11  22
BRANCH  14  24
ATOM     24  O   UNL     1      -3.143  13.090  24.320  0.00  0.00    +0.000 OA
ATOM     25  C   UNL     1      -4.428  12.519  24.562  0.00  0.00    +0.000 C 
ENDBRANCH  14  24
TORSDOF 4
ENDMDL
MODEL 3
REMARK VINA RESULT:      -6.1      0.891      1.294
REMARK  Name = 
REMARK  7 active torsions:
REMARK  status: ('A' for Active; 'I' for Inactive)
REMARK    1  A    between atoms: C_1  and  O_2
REMARK    2  A    between atoms: O_2  and  C_3
REMARK    3  A    between atoms: C_3  and  C_5
REMARK    4  A    between atoms: C_15  and  O_16
REMARK    5  A    between atoms: O_16  and  C_17
REMARK    6  A    between atoms: C_20  and  O_21
REMARK    7  A    between atoms: O_21  and  C_22
REMARK                            x       y       z     vdW  Elec       q    Type
REMARK                         _______ _______ _______ _____ _____    ______ ____
ROOT
ATOM      1  C   UNL     1       6.630   4.532  13.965  0.00  0.00    +0.000 A 
ATOM      2  C   UNL     1       5.864   3.651  14.754  0.00  0.00    +0.000 A 
ATOM      3  C   UNL     1       5.477   4.203  16.093  0.00  0.00    +0.000 A 
ATOM      4  C   UNL     1       6.145   5.421  16.162  0.00  0.00    +0.000 A 
ATOM      5  S   UNL     1       6.684   6.066  14.702  0.00  0.00    +0.000 S 
ATOM      6  C   UNL     1       6.486   6.224  17.340  0.00  0.00    +0.000 C 
ATOM      7  C   UNL     1       6.301   5.452  18.615  0.00  0.00    +0.000 C 
ATOM      8  N   UNL     1       5.541   4.132  18.639  0.00  0.00    +0.000 NA
ATOM      9  C   UNL     1       4.416   4.594  19.489  0.00  0.00    +0.000 C 
ATOM     10  C   UNL     1       2.961   4.871  18.927  0.00  0.00    +0.000 A 
ATOM     11  C   UNL     1       2.589   6.259  19.086  0.00  0.00    +0.000 A 
ATOM     12  C   UNL     1       2.106   6.583  20.291  0.00  0.00    +0.000 A 
ATOM     13  C   UNL     1       1.600   5.486  20.933  0.00  0.00    +0.000 A 
ATOM     14  C   UNL     1       1.608   4.138  20.240  0.00  0.00    +0.000 A 
ATOM     15  C   UNL     1       2.274   3.703  19.067  0.00  0.00    +0.000 A 
ATOM     16  C   UNL     1       3.056   3.248  17.722  0.00  0.00    +0.000 C 
ATOM     17  C   UNL     1       4.846   3.514  17.427  0.00  0.00    +0.000 C 
ENDROOT
BRANCH   1  18
ATOM     18  C   UNL     1       7.369   4.491  12.703  0.00  0.00    +0.000 C 
ATOM     19  O   UNL     1       7.292   3.592  11.865  0.00  0.00    +0.000 OA
BRANCH  18  21
ATOM     20  C   UNL     1       7.984   6.312  11.398  0.00  0.00    +0.000 C 
ATOM     21  O   UNL     1       8.237   5.534  12.578  0.00  0.00    +0.000 OA
ENDBRANCH  18  21
ENDBRANCH   1  18
BRANCH  11  22
ATOM     22  O   UNL     1       3.062   7.189  18.199  0.00  0.00    +0.000 OA
ATOM     23  C   UNL     1       2.123   8.256  18.011  0.00  0.00    +0.000 C 
ENDBRANCH  11  22
BRANCH  14  24
ATOM     24  O   UNL     1       0.710   3.302  20.919  0.00  0.00    +0.000 OA
ATOM     25  C   UNL     1       1.313   2.445  21.886  0.00  0.00    +0.000 C 
ENDBRANCH  14  24
TORSDOF 4
ENDMDL
MODEL 4
REMARK VINA RESULT:      -5.9      7.795     12.098
REMARK  Name = 
REMARK  7 active torsions:
REMARK  status: ('A' for Active; 'I' for Inactive)
REMARK    1  A    between atoms: C_1  and  O_2
REMARK    2  A    between atoms: O_2  and  C_3
REMARK    3  A    between atoms: C_3  and  C_5
REMARK    4  A    between atoms: C_15  and  O_16
REMARK    5  A    between atoms: O_16  and  C_17
REMARK    6  A    between atoms: C_20  and  O_21
REMARK    7  A    between atoms: O_21  and  C_22
REMARK                            x       y       z     vdW  Elec       q    Type
REMARK                         _______ _______ _______ _____ _____    ______ ____
ROOT
ATOM      1  C   UNL     1      -5.098  13.491  21.566  0.00  0.00    +0.000 A 
ATOM      2  C   UNL     1      -4.354  13.225  20.399  0.00  0.00    +0.000 A 
ATOM      3  C   UNL     1      -2.995  12.647  20.655  0.00  0.00    +0.000 A 
ATOM      4  C   UNL     1      -2.867  12.683  22.039  0.00  0.00    +0.000 A 
ATOM      5  S   UNL     1      -4.293  12.846  22.921  0.00  0.00    +0.000 S 
ATOM      6  C   UNL     1      -1.652  12.635  22.858  0.00  0.00    +0.000 C 
ATOM      7  C   UNL     1      -0.414  12.843  22.033  0.00  0.00    +0.000 C 
ATOM      8  N   UNL     1      -0.454  12.773  20.512  0.00  0.00    +0.000 NA
ATOM      9  C   UNL     1       0.408  11.573  20.370  0.00  0.00    +0.000 C 
ATOM     10  C   UNL     1      -0.152  10.145  19.972  0.00  0.00    +0.000 A 
ATOM     11  C   UNL     1       0.066   9.181  21.027  0.00  0.00    +0.000 A 
ATOM     12  C   UNL     1       1.282   8.620  21.042  0.00  0.00    +0.000 A 
ATOM     13  C   UNL     1       1.871   8.682  19.808  0.00  0.00    +0.000 A 
ATOM     14  C   UNL     1       1.118   9.298  18.645  0.00  0.00    +0.000 A 
ATOM     15  C   UNL     1      -0.068  10.072  18.615  0.00  0.00    +0.000 A 
ATOM     16  C   UNL     1      -1.427  10.957  18.627  0.00  0.00    +0.000 C 
ATOM     17  C   UNL     1      -1.697  12.421  19.696  0.00  0.00    +0.000 C 
ENDROOT
BRANCH   1  18
ATOM     18  C   UNL     1      -6.356  14.148  21.923  0.00  0.00    +0.000 C 
ATOM     19  O   UNL     1      -7.289  14.358  21.148  0.00  0.00    +0.000 OA
BRANCH  18  21
ATOM     20  C   UNL     1      -7.690  14.834  23.696  0.00  0.00    +0.000 C 
ATOM     21  O   UNL     1      -6.361  14.590  23.212  0.00  0.00    +0.000 OA
ENDBRANCH  18  21
ENDBRANCH   1  18
BRANCH  11  22
ATOM     22  O   UNL     1      -0.775   9.163  22.107  0.00  0.00    +0.000 OA
ATOM     23  C   UNL     1      -0.060   9.389  23.330  0.00  0.00    +0.000 C 
ENDBRANCH  11  22
BRANCH  14  24
ATOM     24  O   UNL     1       1.753   8.892  17.462  0.00  0.00    +0.000 OA
ATOM     25  C   UNL     1       2.904   8.073  17.658  0.00  0.00    +0.000 C 
ENDBRANCH  14  24
TORSDOF 4
ENDMDL
MODEL 5
REMARK VINA RESULT:      -5.6      6.606      9.317
REMARK  Name = 
REMARK  7 active torsions:
REMARK  status: ('A' for Active; 'I' for Inactive)
REMARK    1  A    between atoms: C_1  and  O_2
REMARK    2  A    between atoms: O_2  and  C_3
REMARK    3  A    between atoms: C_3  and  C_5
REMARK    4  A    between atoms: C_15  and  O_16
REMARK    5  A    between atoms: O_16  and  C_17
REMARK    6  A    between atoms: C_20  and  O_21
REMARK    7  A    between atoms: O_21  and  C_22
REMARK                            x       y       z     vdW  Elec       q    Type
REMARK                         _______ _______ _______ _____ _____    ______ ____
ROOT
ATOM      1  C   UNL     1       1.716   8.387  19.373  0.00  0.00    +0.000 A 
ATOM      2  C   UNL     1       1.192   8.742  20.632  0.00  0.00    +0.000 A 
ATOM      3  C   UNL     1       0.706  10.157  20.718  0.00  0.00    +0.000 A 
ATOM      4  C   UNL     1       1.068  10.714  19.497  0.00  0.00    +0.000 A 
ATOM      5  S   UNL     1       1.417   9.633  18.252  0.00  0.00    +0.000 S 
ATOM      6  C   UNL     1       1.227  12.126  19.134  0.00  0.00    +0.000 C 
ATOM      7  C   UNL     1       1.250  13.014  20.345  0.00  0.00    +0.000 C 
ATOM      8  N   UNL     1       0.823  12.499  21.714  0.00  0.00    +0.000 NA
ATOM      9  C   UNL     1      -0.367  13.374  21.866  0.00  0.00    +0.000 C 
ATOM     10  C   UNL     1      -1.854  12.845  21.735  0.00  0.00    +0.000 A 
ATOM     11  C   UNL     1      -2.540  13.470  20.628  0.00  0.00    +0.000 A 
ATOM     12  C   UNL     1      -3.068  14.671  20.892  0.00  0.00    +0.000 A 
ATOM     13  C   UNL     1      -3.291  14.830  22.233  0.00  0.00    +0.000 A 
ATOM     14  C   UNL     1      -2.975  13.696  23.188  0.00  0.00    +0.000 A 
ATOM     15  C   UNL     1      -2.243  12.498  22.994  0.00  0.00    +0.000 A 
ATOM     16  C   UNL     1      -1.396  11.142  22.729  0.00  0.00    +0.000 C 
ATOM     17  C   UNL     1       0.276  11.097  21.977  0.00  0.00    +0.000 C 
ENDROOT
BRANCH   1  18
ATOM     18  C   UNL     1       2.424   7.255  18.775  0.00  0.00    +0.000 C 
ATOM     19  O   UNL     1       2.381   6.095  19.186  0.00  0.00    +0.000 OA
BRANCH  18  21
ATOM     20  C   UNL     1       4.192   6.628  17.404  0.00  0.00    +0.000 C 
ATOM     21  O   UNL     1       3.224   7.634  17.738  0.00  0.00    +0.000 OA
ENDBRANCH  18  21
ENDBRANCH   1  18
BRANCH  11  22
ATOM     22  O   UNL     1      -2.314  13.020  19.354  0.00  0.00    +0.000 OA
ATOM     23  C   UNL     1      -2.556  11.611  19.247  0.00  0.00    +0.000 C 
ENDBRANCH  11  22
BRANCH  14  24
ATOM     24  O   UNL     1      -3.640  13.955  24.394  0.00  0.00    +0.000 OA
ATOM     25  C   UNL     1      -2.930  14.808  25.291  0.00  0.00    +0.000 C 
ENDBRANCH  14  24
TORSDOF 4
ENDMDL
MODEL 6
REMARK VINA RESULT:      -5.6      4.489      7.254
REMARK  Name = 
REMARK  7 active torsions:
REMARK  status: ('A' for Active; 'I' for Inactive)
REMARK    1  A    between atoms: C_1  and  O_2
REMARK    2  A    between atoms: O_2  and  C_3
REMARK    3  A    between atoms: C_3  and  C_5
REMARK    4  A    between atoms: C_15  and  O_16
REMARK    5  A    between atoms: O_16  and  C_17
REMARK    6  A    between atoms: C_20  and  O_21
REMARK    7  A    between atoms: O_21  and  C_22
REMARK                            x       y       z     vdW  Elec       q    Type
REMARK                         _______ _______ _______ _____ _____    ______ ____
ROOT
ATOM      1  C   UNL     1       2.710   5.449  19.559  0.00  0.00    +0.000 A 
ATOM      2  C   UNL     1       2.259   6.355  20.541  0.00  0.00    +0.000 A 
ATOM      3  C   UNL     1       1.760   7.658  19.993  0.00  0.00    +0.000 A 
ATOM      4  C   UNL     1       2.039   7.581  18.632  0.00  0.00    +0.000 A 
ATOM      5  S   UNL     1       2.326   6.042  18.010  0.00  0.00    +0.000 S 
ATOM      6  C   UNL     1       2.156   8.663  17.650  0.00  0.00    +0.000 C 
ATOM      7  C   UNL     1       2.241  10.010  18.309  0.00  0.00    +0.000 C 
ATOM      8  N   UNL     1       1.905  10.192  19.784  0.00  0.00    +0.000 NA
ATOM      9  C   UNL     1       0.716  11.057  19.587  0.00  0.00    +0.000 C 
ATOM     10  C   UNL     1      -0.770  10.552  19.806  0.00  0.00    +0.000 A 
ATOM     11  C   UNL     1      -1.531  10.605  18.578  0.00  0.00    +0.000 A 
ATOM     12  C   UNL     1      -2.058  11.801  18.289  0.00  0.00    +0.000 A 
ATOM     13  C   UNL     1      -2.201  12.565  19.415  0.00  0.00    +0.000 A 
ATOM     14  C   UNL     1      -1.812  11.996  20.765  0.00  0.00    +0.000 A 
ATOM     15  C   UNL     1      -1.076  10.833  21.103  0.00  0.00    +0.000 A 
ATOM     16  C   UNL     1      -0.228   9.494  21.443  0.00  0.00    +0.000 C 
ATOM     17  C   UNL     1       1.394   9.080  20.697  0.00  0.00    +0.000 C 
ENDROOT
BRANCH   1  18
ATOM     18  C   UNL     1       3.396   4.158  19.510  0.00  0.00    +0.000 C 
ATOM     19  O   UNL     1       4.350   3.889  18.780  0.00  0.00    +0.000 OA
BRANCH  18  21
ATOM     20  C   UNL     1       1.775   2.499  19.636  0.00  0.00    +0.000 C 
ATOM     21  O   UNL     1       2.807   3.229  20.316  0.00  0.00    +0.000 OA
ENDBRANCH  18  21
ENDBRANCH   1  18
BRANCH  11  22
ATOM     22  O   UNL     1      -1.377   9.615  17.645  0.00  0.00    +0.000 OA
ATOM     23  C   UNL     1      -2.277   9.790  16.542  0.00  0.00    +0.000 C 
ENDBRANCH  11  22
BRANCH  14  24
ATOM     24  O   UNL     1      -2.405  12.794  21.753  0.00  0.00    +0.000 OA
ATOM     25  C   UNL     1      -2.349  12.248  23.069  0.00  0.00    +0.000 C 
ENDBRANCH  14  24
TORSDOF 4
ENDMDL
MODEL 7
REMARK VINA RESULT:      -5.6     10.181     12.265
REMARK  Name = 
REMARK  7 active torsions:
REMARK  status: ('A' for Active; 'I' for Inactive)
REMARK    1  A    between atoms: C_1  and  O_2
REMARK    2  A    between atoms: O_2  and  C_3
REMARK    3  A    between atoms: C_3  and  C_5
REMARK    4  A    between atoms: C_15  and  O_16
REMARK    5  A    between atoms: O_16  and  C_17
REMARK    6  A    between atoms: C_20  and  O_21
REMARK    7  A    between atoms: O_21  and  C_22
REMARK                            x       y       z     vdW  Elec       q    Type
REMARK                         _______ _______ _______ _____ _____    ______ ____
ROOT
ATOM      1  C   UNL     1       2.966  15.261  18.801  0.00  0.00    +0.000 A 
ATOM      2  C   UNL     1       4.002  14.899  17.916  0.00  0.00    +0.000 A 
ATOM      3  C   UNL     1       5.375  14.972  18.515  0.00  0.00    +0.000 A 
ATOM      4  C   UNL     1       5.165  15.521  19.776  0.00  0.00    +0.000 A 
ATOM      5  S   UNL     1       3.591  15.450  20.373  0.00  0.00    +0.000 S 
ATOM      6  C   UNL     1       6.119  16.193  20.662  0.00  0.00    +0.000 C 
ATOM      7  C   UNL     1       7.396  16.537  19.950  0.00  0.00    +0.000 C 
ATOM      8  N   UNL     1       7.728  15.944  18.587  0.00  0.00    +0.000 NA
ATOM      9  C   UNL     1       8.913  15.162  19.021  0.00  0.00    +0.000 C 
ATOM     10  C   UNL     1       8.903  13.585  19.172  0.00  0.00    +0.000 A 
ATOM     11  C   UNL     1       9.147  13.184  20.539  0.00  0.00    +0.000 A 
ATOM     12  C   UNL     1      10.436  13.138  20.897  0.00  0.00    +0.000 A 
ATOM     13  C   UNL     1      11.247  12.983  19.806  0.00  0.00    +0.000 A 
ATOM     14  C   UNL     1      10.635  12.852  18.425  0.00  0.00    +0.000 A 
ATOM     15  C   UNL     1       9.313  13.089  17.971  0.00  0.00    +0.000 A 
ATOM     16  C   UNL     1       7.790  13.375  17.495  0.00  0.00    +0.000 C 
ATOM     17  C   UNL     1       6.865  14.915  17.860  0.00  0.00    +0.000 C 
ENDROOT
BRANCH   1  18
ATOM     18  C   UNL     1       1.524  15.502  18.739  0.00  0.00    +0.000 C 
ATOM     19  O   UNL     1       0.655  14.668  18.992  0.00  0.00    +0.000 OA
BRANCH  18  21
ATOM     20  C   UNL     1       0.530  17.536  19.260  0.00  0.00    +0.000 C 
ATOM     21  O   UNL     1       1.228  16.751  18.282  0.00  0.00    +0.000 OA
ENDBRANCH  18  21
ENDBRANCH   1  18
BRANCH  11  22
ATOM     22  O   UNL     1       8.123  13.234  21.448  0.00  0.00    +0.000 OA
ATOM     23  C   UNL     1       8.513  13.939  22.635  0.00  0.00    +0.000 C 
ENDBRANCH  11  22
BRANCH  14  24
ATOM     24  O   UNL     1      11.614  12.325  17.571  0.00  0.00    +0.000 OA
ATOM     25  C   UNL     1      12.326  13.300  16.812  0.00  0.00    +0.000 C 
ENDBRANCH  14  24
TORSDOF 4
ENDMDL
MODEL 8
REMARK VINA RESULT:      -5.5      9.616     12.557
REMARK  Name = 
REMARK  7 active torsions:
REMARK  status: ('A' for Active; 'I' for Inactive)
REMARK    1  A    between atoms: C_1  and  O_2
REMARK    2  A    between atoms: O_2  and  C_3
REMARK    3  A    between atoms: C_3  and  C_5
REMARK    4  A    between atoms: C_15  and  O_16
REMARK    5  A    between atoms: O_16  and  C_17
REMARK    6  A    between atoms: C_20  and  O_21
REMARK    7  A    between atoms: O_21  and  C_22
REMARK                            x       y       z     vdW  Elec       q    Type
REMARK                         _______ _______ _______ _____ _____    ______ ____
ROOT
ATOM      1  C   UNL     1      -2.684  11.383  18.262  0.00  0.00    +0.000 A 
ATOM      2  C   UNL     1      -3.722  11.997  18.992  0.00  0.00    +0.000 A 
ATOM      3  C   UNL     1      -3.322  12.456  20.362  0.00  0.00    +0.000 A 
ATOM      4  C   UNL     1      -2.021  11.986  20.510  0.00  0.00    +0.000 A 
ATOM      5  S   UNL     1      -1.210  11.565  19.095  0.00  0.00    +0.000 S 
ATOM      6  C   UNL     1      -1.251  11.768  21.738  0.00  0.00    +0.000 C 
ATOM      7  C   UNL     1      -2.121  11.820  22.961  0.00  0.00    +0.000 C 
ATOM      8  N   UNL     1      -3.543  12.364  22.898  0.00  0.00    +0.000 NA
ATOM      9  C   UNL     1      -3.317  13.542  23.773  0.00  0.00    +0.000 C 
ATOM     10  C   UNL     1      -3.237  15.026  23.224  0.00  0.00    +0.000 A 
ATOM     11  C   UNL     1      -1.937  15.609  23.469  0.00  0.00    +0.000 A 
ATOM     12  C   UNL     1      -1.769  16.129  24.691  0.00  0.00    +0.000 A 
ATOM     13  C   UNL     1      -2.970  16.453  25.262  0.00  0.00    +0.000 A 
ATOM     14  C   UNL     1      -4.254  16.239  24.484  0.00  0.00    +0.000 A 
ATOM     15  C   UNL     1      -4.504  15.521  23.289  0.00  0.00    +0.000 A 
ATOM     16  C   UNL     1      -4.746  14.686  21.920  0.00  0.00    +0.000 C 
ATOM     17  C   UNL     1      -4.184  12.962  21.648  0.00  0.00    +0.000 C 
ENDROOT
BRANCH   1  18
ATOM     18  C   UNL     1      -2.529  10.656  17.002  0.00  0.00    +0.000 C 
ATOM     19  O   UNL     1      -1.764   9.708  16.820  0.00  0.00    +0.000 OA
BRANCH  18  21
ATOM     20  C   UNL     1      -3.204  10.422  14.792  0.00  0.00    +0.000 C 
ATOM     21  O   UNL     1      -3.274  11.197  15.998  0.00  0.00    +0.000 OA
ENDBRANCH  18  21
ENDBRANCH   1  18
BRANCH  11  22
ATOM     22  O   UNL     1      -0.890  15.294  22.645  0.00  0.00    +0.000 OA
ATOM     23  C   UNL     1      -1.206  15.567  21.272  0.00  0.00    +0.000 C 
ENDBRANCH  11  22
BRANCH  14  24
ATOM     24  O   UNL     1      -5.261  16.990  25.106  0.00  0.00    +0.000 OA
ATOM     25  C   UNL     1      -4.843  18.275  25.566  0.00  0.00    +0.000 C 
ENDBRANCH  14  24
TORSDOF 4
ENDMDL
MODEL 9
REMARK VINA RESULT:      -5.5      9.306     11.852
REMARK  Name = 
REMARK  7 active torsions:
REMARK  status: ('A' for Active; 'I' for Inactive)
REMARK    1  A    between atoms: C_1  and  O_2
REMARK    2  A    between atoms: O_2  and  C_3
REMARK    3  A    between atoms: C_3  and  C_5
REMARK    4  A    between atoms: C_15  and  O_16
REMARK    5  A    between atoms: O_16  and  C_17
REMARK    6  A    between atoms: C_20  and  O_21
REMARK    7  A    between atoms: O_21  and  C_22
REMARK                            x       y       z     vdW  Elec       q    Type
REMARK                         _______ _______ _______ _____ _____    ______ ____
ROOT
ATOM      1  C   UNL     1       2.920  14.836  18.797  0.00  0.00    +0.000 A 
ATOM      2  C   UNL     1       3.963  14.533  17.899  0.00  0.00    +0.000 A 
ATOM      3  C   UNL     1       5.336  14.667  18.485  0.00  0.00    +0.000 A 
ATOM      4  C   UNL     1       5.113  15.192  19.753  0.00  0.00    +0.000 A 
ATOM      5  S   UNL     1       3.551  15.040  20.365  0.00  0.00    +0.000 S 
ATOM      6  C   UNL     1       6.044  15.902  20.637  0.00  0.00    +0.000 C 
ATOM      7  C   UNL     1       7.295  16.314  19.916  0.00  0.00    +0.000 C 
ATOM      8  N   UNL     1       7.641  15.751  18.544  0.00  0.00    +0.000 NA
ATOM      9  C   UNL     1       8.867  15.023  18.958  0.00  0.00    +0.000 C 
ATOM     10  C   UNL     1       8.935  13.446  19.092  0.00  0.00    +0.000 A 
ATOM     11  C   UNL     1       9.211  13.045  20.453  0.00  0.00    +0.000 A 
ATOM     12  C   UNL     1      10.505  13.057  20.797  0.00  0.00    +0.000 A 
ATOM     13  C   UNL     1      11.311  12.952  19.697  0.00  0.00    +0.000 A 
ATOM     14  C   UNL     1      10.692  12.805  18.321  0.00  0.00    +0.000 A 
ATOM     15  C   UNL     1       9.356  12.983  17.882  0.00  0.00    +0.000 A 
ATOM     16  C   UNL     1       7.816  13.199  17.424  0.00  0.00    +0.000 C 
ATOM     17  C   UNL     1       6.821  14.688  17.815  0.00  0.00    +0.000 C 
ENDROOT
BRANCH   1  18
ATOM     18  C   UNL     1       1.467  15.008  18.752  0.00  0.00    +0.000 C 
ATOM     19  O   UNL     1       0.858  15.995  19.163  0.00  0.00    +0.000 OA
BRANCH  18  21
ATOM     20  C   UNL     1       1.061  12.746  19.092  0.00  0.00    +0.000 C 
ATOM     21  O   UNL     1       0.831  13.902  18.273  0.00  0.00    +0.000 OA
ENDBRANCH  18  21
ENDBRANCH   1  18
BRANCH  11  22
ATOM     22  O   UNL     1       8.196  13.036  21.372  0.00  0.00    +0.000 OA
ATOM     23  C   UNL     1       8.689  12.766  22.692  0.00  0.00    +0.000 C 
ENDBRANCH  11  22
BRANCH  14  24
ATOM     24  O   UNL     1      11.686  12.334  17.452  0.00  0.00    +0.000 OA
ATOM     25  C   UNL     1      12.332  13.349  16.684  0.00  0.00    +0.000 C 
ENDBRANCH  14  24
TORSDOF 4
ENDMDL
