MODEL 1
REMARK VINA RESULT:      -8.2      0.000      0.000
REMARK  Name = 
REMARK  5 active torsions:
REMARK  status: ('A' for Active; 'I' for Inactive)
REMARK    1  A    between atoms: C_1  and  N_2
REMARK    2  A    between atoms: C_8  and  O_9
REMARK    3  A    between atoms: O_9  and  C_10
REMARK    4  A    between atoms: N_12  and  C_13
REMARK    5  A    between atoms: C_19  and  C_20
REMARK                            x       y       z     vdW  Elec       q    Type
REMARK                         _______ _______ _______ _____ _____    ______ ____
ROOT
ATOM      1  C   UNL     1       2.045   7.767  19.389  0.00  0.00    +0.000 C 
ATOM      2  O   UNL     1       1.835   7.243  20.471  0.00  0.00    +0.000 OA
ATOM      3  N   UNL     1       2.662   7.208  18.291  0.00  0.00    +0.000 N 
ATOM      4  H   UNL     1       2.679   7.795  17.469  0.00  0.00    +0.000 HD
ENDROOT
BRANCH   3   5
ATOM      5  C   UNL     1       2.736   5.805  18.098  0.00  0.00    +0.000 A 
ATOM      6  C   UNL     1       1.531   5.086  17.959  0.00  0.00    +0.000 A 
ATOM      7  C   UNL     1       1.534   3.715  17.735  0.00  0.00    +0.000 A 
ATOM      8  C   UNL     1       2.737   3.050  17.649  0.00  0.00    +0.000 A 
ATOM      9  F   UNL     1       2.754   1.729  17.416  0.00  0.00    +0.000 F 
ATOM     10  C   UNL     1       3.941   3.735  17.785  0.00  0.00    +0.000 A 
ATOM     11  C   UNL     1       3.990   5.128  18.032  0.00  0.00    +0.000 A 
BRANCH  11  12
ATOM     12  C   UNL     1       5.339   5.780  18.122  0.00  0.00    +0.000 A 
ATOM     13  C   UNL     1       5.773   6.772  17.224  0.00  0.00    +0.000 A 
ATOM     14  C   UNL     1       7.037   7.367  17.319  0.00  0.00    +0.000 A 
ATOM     15  C   UNL     1       7.937   6.940  18.285  0.00  0.00    +0.000 A 
ATOM     16  C   UNL     1       7.565   5.930  19.164  0.00  0.00    +0.000 A 
ATOM     17  C   UNL     1       6.281   5.375  19.093  0.00  0.00    +0.000 A 
ENDBRANCH  11  12
ENDBRANCH   3   5
BRANCH   1  18
ATOM     18  O   UNL     1       1.540   8.982  19.041  0.00  0.00    +0.000 OA
BRANCH  18  26
ATOM     19  C   UNL     1       0.491  13.361  18.455  0.00  0.00    +0.000 C 
ATOM     20  N   UNL     1       0.202  12.072  19.220  0.00  0.00    +0.000 N 
ATOM     21  C   UNL     1      -0.642  11.209  18.300  0.00  0.00    +0.000 C 
ATOM     22  C   UNL     1      -1.121   9.973  19.044  0.00  0.00    +0.000 C 
ATOM     23  C   UNL     1      -0.391   9.855  20.383  0.00  0.00    +0.000 C 
ATOM     24  C   UNL     1      -0.791  11.071  21.249  0.00  0.00    +0.000 C 
ATOM     25  C   UNL     1      -0.534  12.393  20.516  0.00  0.00    +0.000 C 
ATOM     26  C   UNL     1       1.138   9.880  20.117  0.00  0.00    +0.000 C 
ATOM     27  C   UNL     1       1.504  11.317  19.667  0.00  0.00    +0.000 C 
ENDBRANCH  18  26
ENDBRANCH   1  18
TORSDOF 4
ENDMDL
MODEL 2
REMARK VINA RESULT:      -8.1      0.840      1.741
REMARK  Name = 
REMARK  5 active torsions:
REMARK  status: ('A' for Active; 'I' for Inactive)
REMARK    1  A    between atoms: C_1  and  N_2
REMARK    2  A    between atoms: C_8  and  O_9
REMARK    3  A    between atoms: O_9  and  C_10
REMARK    4  A    between atoms: N_12  and  C_13
REMARK    5  A    between atoms: C_19  and  C_20
REMARK                            x       y       z     vdW  Elec       q    Type
REMARK                         _______ _______ _______ _____ _____    ______ ____
ROOT
ATOM      1  C   UNL     1       2.053   7.509  20.001  0.00  0.00    +0.000 C 
ATOM      2  O   UNL     1       1.589   6.827  20.902  0.00  0.00    +0.000 OA
ATOM      3  N   UNL     1       2.817   7.084  18.936  0.00  0.00    +0.000 N 
ATOM      4  H   UNL     1       3.047   7.805  18.266  0.00  0.00    +0.000 HD
ENDROOT
BRANCH   3   5
ATOM      5  C   UNL     1       2.796   5.743  18.477  0.00  0.00    +0.000 A 
ATOM      6  C   UNL     1       1.547   5.105  18.334  0.00  0.00    +0.000 A 
ATOM      7  C   UNL     1       1.455   3.803  17.859  0.00  0.00    +0.000 A 
ATOM      8  C   UNL     1       2.607   3.126  17.524  0.00  0.00    +0.000 A 
ATOM      9  F   UNL     1       2.530   1.874  17.048  0.00  0.00    +0.000 F 
ATOM     10  C   UNL     1       3.853   3.732  17.656  0.00  0.00    +0.000 A 
ATOM     11  C   UNL     1       4.001   5.049  18.153  0.00  0.00    +0.000 A 
BRANCH  11  12
ATOM     12  C   UNL     1       5.384   5.625  18.220  0.00  0.00    +0.000 A 
ATOM     13  C   UNL     1       6.310   5.284  19.222  0.00  0.00    +0.000 A 
ATOM     14  C   UNL     1       7.596   5.835  19.273  0.00  0.00    +0.000 A 
ATOM     15  C   UNL     1       7.978   6.799  18.351  0.00  0.00    +0.000 A 
ATOM     16  C   UNL     1       7.078   7.199  17.372  0.00  0.00    +0.000 A 
ATOM     17  C   UNL     1       5.810   6.607  17.298  0.00  0.00    +0.000 A 
ENDBRANCH  11  12
ENDBRANCH   3   5
BRANCH   1  18
ATOM     18  O   UNL     1       1.740   8.821  19.826  0.00  0.00    +0.000 OA
BRANCH  18  26
ATOM     19  C   UNL     1      -0.467  12.147  21.992  0.00  0.00    +0.000 C 
ATOM     20  N   UNL     1      -0.287  11.375  20.687  0.00  0.00    +0.000 N 
ATOM     21  C   UNL     1       0.968  11.925  20.034  0.00  0.00    +0.000 C 
ATOM     22  C   UNL     1       1.132  11.330  18.645  0.00  0.00    +0.000 C 
ATOM     23  C   UNL     1       0.143  10.180  18.449  0.00  0.00    +0.000 C 
ATOM     24  C   UNL     1      -1.284  10.767  18.509  0.00  0.00    +0.000 C 
ATOM     25  C   UNL     1      -1.510  11.568  19.798  0.00  0.00    +0.000 C 
ATOM     26  C   UNL     1       0.340   9.158  19.601  0.00  0.00    +0.000 C 
ATOM     27  C   UNL     1      -0.180   9.823  20.901  0.00  0.00    +0.000 C 
ENDBRANCH  18  26
ENDBRANCH   1  18
TORSDOF 4
ENDMDL
MODEL 3
REMARK VINA RESULT:      -7.9      1.925      3.973
REMARK  Name = 
REMARK  5 active torsions:
REMARK  status: ('A' for Active; 'I' for Inactive)
REMARK    1  A    between atoms: C_1  and  N_2
REMARK    2  A    between atoms: C_8  and  O_9
REMARK    3  A    between atoms: O_9  and  C_10
REMARK    4  A    between atoms: N_12  and  C_13
REMARK    5  A    between atoms: C_19  and  C_20
REMARK                            x       y       z     vdW  Elec       q    Type
REMARK                         _______ _______ _______ _____ _____    ______ ____
ROOT
ATOM      1  C   UNL     1       1.980   8.664  18.194  0.00  0.00    +0.000 C 
ATOM      2  O   UNL     1       2.187   9.150  17.093  0.00  0.00    +0.000 OA
ATOM      3  N   UNL     1       2.312   7.400  18.630  0.00  0.00    +0.000 N 
ATOM      4  H   UNL     1       2.107   7.219  19.603  0.00  0.00    +0.000 HD
ENDROOT
BRANCH   3   5
ATOM      5  C   UNL     1       3.341   6.637  18.023  0.00  0.00    +0.000 A 
ATOM      6  C   UNL     1       4.239   7.296  17.157  0.00  0.00    +0.000 A 
ATOM      7  C   UNL     1       5.289   6.613  16.556  0.00  0.00    +0.000 A 
ATOM      8  C   UNL     1       5.451   5.269  16.811  0.00  0.00    +0.000 A 
ATOM      9  F   UNL     1       6.471   4.603  16.250  0.00  0.00    +0.000 F 
ATOM     10  C   UNL     1       4.579   4.594  17.660  0.00  0.00    +0.000 A 
ATOM     11  C   UNL     1       3.484   5.241  18.282  0.00  0.00    +0.000 A 
BRANCH  11  12
ATOM     12  C   UNL     1       2.625   4.434  19.212  0.00  0.00    +0.000 A 
ATOM     13  C   UNL     1       2.844   4.375  20.600  0.00  0.00    +0.000 A 
ATOM     14  C   UNL     1       2.037   3.613  21.453  0.00  0.00    +0.000 A 
ATOM     15  C   UNL     1       1.016   2.831  20.932  0.00  0.00    +0.000 A 
ATOM     16  C   UNL     1       0.794   2.825  19.560  0.00  0.00    +0.000 A 
ATOM     17  C   UNL     1       1.576   3.628  18.719  0.00  0.00    +0.000 A 
ENDBRANCH  11  12
ENDBRANCH   3   5
BRANCH   1  18
ATOM     18  O   UNL     1       1.510   9.386  19.248  0.00  0.00    +0.000 OA
BRANCH  18  26
ATOM     19  C   UNL     1      -0.757  11.217  22.730  0.00  0.00    +0.000 C 
ATOM     20  N   UNL     1      -0.486  11.247  21.228  0.00  0.00    +0.000 N 
ATOM     21  C   UNL     1       0.845  11.953  21.048  0.00  0.00    +0.000 C 
ATOM     22  C   UNL     1       1.116  12.179  19.569  0.00  0.00    +0.000 C 
ATOM     23  C   UNL     1       0.105  11.398  18.729  0.00  0.00    +0.000 C 
ATOM     24  C   UNL     1      -1.298  11.980  19.012  0.00  0.00    +0.000 C 
ATOM     25  C   UNL     1      -1.611  11.987  20.514  0.00  0.00    +0.000 C 
ATOM     26  C   UNL     1       0.152   9.907  19.158  0.00  0.00    +0.000 C 
ATOM     27  C   UNL     1      -0.461   9.818  20.579  0.00  0.00    +0.000 C 
ENDBRANCH  18  26
ENDBRANCH   1  18
TORSDOF 4
ENDMDL
MODEL 4
REMARK VINA RESULT:      -7.8      4.898      6.429
REMARK  Name = 
REMARK  5 active torsions:
REMARK  status: ('A' for Active; 'I' for Inactive)
REMARK    1  A    between atoms: C_1  and  N_2
REMARK    2  A    between atoms: C_8  and  O_9
REMARK    3  A    between atoms: O_9  and  C_10
REMARK    4  A    between atoms: N_12  and  C_13
REMARK    5  A    between atoms: C_19  and  C_20
REMARK                            x       y       z     vdW  Elec       q    Type
REMARK                         _______ _______ _______ _____ _____    ______ ____
ROOT
ATOM      1  C   UNL     1       4.346   4.512  16.912  0.00  0.00    +0.000 C 
ATOM      2  O   UNL     1       4.062   5.674  16.670  0.00  0.00    +0.000 OA
ATOM      3  N   UNL     1       4.978   3.612  16.081  0.00  0.00    +0.000 N 
ATOM      4  H   UNL     1       5.176   2.714  16.501  0.00  0.00    +0.000 HD
ENDROOT
BRANCH   3   5
ATOM      5  C   UNL     1       5.795   4.026  14.999  0.00  0.00    +0.000 A 
ATOM      6  C   UNL     1       5.466   3.575  13.704  0.00  0.00    +0.000 A 
ATOM      7  C   UNL     1       6.206   3.970  12.596  0.00  0.00    +0.000 A 
ATOM      8  C   UNL     1       7.280   4.816  12.771  0.00  0.00    +0.000 A 
ATOM      9  F   UNL     1       7.992   5.218  11.708  0.00  0.00    +0.000 F 
ATOM     10  C   UNL     1       7.627   5.274  14.039  0.00  0.00    +0.000 A 
ATOM     11  C   UNL     1       6.916   4.886  15.200  0.00  0.00    +0.000 A 
BRANCH  11  12
ATOM     12  C   UNL     1       7.345   5.468  16.515  0.00  0.00    +0.000 A 
ATOM     13  C   UNL     1       7.675   4.678  17.631  0.00  0.00    +0.000 A 
ATOM     14  C   UNL     1       8.068   5.237  18.854  0.00  0.00    +0.000 A 
ATOM     15  C   UNL     1       8.084   6.615  19.017  0.00  0.00    +0.000 A 
ATOM     16  C   UNL     1       7.721   7.431  17.953  0.00  0.00    +0.000 A 
ATOM     17  C   UNL     1       7.375   6.865  16.718  0.00  0.00    +0.000 A 
ENDBRANCH  11  12
ENDBRANCH   3   5
BRANCH   1  18
ATOM     18  O   UNL     1       4.215   3.957  18.148  0.00  0.00    +0.000 OA
BRANCH  18  26
ATOM     19  C   UNL     1       2.176   3.068  22.106  0.00  0.00    +0.000 C 
ATOM     20  N   UNL     1       2.030   3.162  20.590  0.00  0.00    +0.000 N 
ATOM     21  C   UNL     1       1.906   4.639  20.262  0.00  0.00    +0.000 C 
ATOM     22  C   UNL     1       1.587   4.818  18.787  0.00  0.00    +0.000 C 
ATOM     23  C   UNL     1       1.753   3.487  18.052  0.00  0.00    +0.000 C 
ATOM     24  C   UNL     1       0.703   2.502  18.612  0.00  0.00    +0.000 C 
ATOM     25  C   UNL     1       0.798   2.385  20.138  0.00  0.00    +0.000 C 
ATOM     26  C   UNL     1       3.182   2.945  18.328  0.00  0.00    +0.000 C 
ATOM     27  C   UNL     1       3.230   2.509  19.815  0.00  0.00    +0.000 C 
ENDBRANCH  18  26
ENDBRANCH   1  18
TORSDOF 4
ENDMDL
MODEL 5
REMARK VINA RESULT:      -7.8      1.507      2.022
REMARK  Name = 
REMARK  5 active torsions:
REMARK  status: ('A' for Active; 'I' for Inactive)
REMARK    1  A    between atoms: C_1  and  N_2
REMARK    2  A    between atoms: C_8  and  O_9
REMARK    3  A    between atoms: O_9  and  C_10
REMARK    4  A    between atoms: N_12  and  C_13
REMARK    5  A    between atoms: C_19  and  C_20
REMARK                            x       y       z     vdW  Elec       q    Type
REMARK                         _______ _______ _______ _____ _____    ______ ____
ROOT
ATOM      1  C   UNL     1       1.543   7.690  20.803  0.00  0.00    +0.000 C 
ATOM      2  O   UNL     1       0.609   7.298  21.484  0.00  0.00    +0.000 OA
ATOM      3  N   UNL     1       2.550   6.933  20.245  0.00  0.00    +0.000 N 
ATOM      4  H   UNL     1       3.194   7.449  19.661  0.00  0.00    +0.000 HD
ENDROOT
BRANCH   3   5
ATOM      5  C   UNL     1       2.404   5.546  19.995  0.00  0.00    +0.000 A 
ATOM      6  C   UNL     1       1.260   4.893  20.501  0.00  0.00    +0.000 A 
ATOM      7  C   UNL     1       1.040   3.542  20.264  0.00  0.00    +0.000 A 
ATOM      8  C   UNL     1       1.958   2.831  19.523  0.00  0.00    +0.000 A 
ATOM      9  F   UNL     1       1.748   1.530  19.273  0.00  0.00    +0.000 F 
ATOM     10  C   UNL     1       3.095   3.449  19.014  0.00  0.00    +0.000 A 
ATOM     11  C   UNL     1       3.374   4.819  19.243  0.00  0.00    +0.000 A 
BRANCH  11  12
ATOM     12  C   UNL     1       4.607   5.401  18.616  0.00  0.00    +0.000 A 
ATOM     13  C   UNL     1       5.887   5.279  19.186  0.00  0.00    +0.000 A 
ATOM     14  C   UNL     1       7.027   5.833  18.591  0.00  0.00    +0.000 A 
ATOM     15  C   UNL     1       6.912   6.584  17.430  0.00  0.00    +0.000 A 
ATOM     16  C   UNL     1       5.659   6.767  16.858  0.00  0.00    +0.000 A 
ATOM     17  C   UNL     1       4.530   6.169  17.434  0.00  0.00    +0.000 A 
ENDBRANCH  11  12
ENDBRANCH   3   5
BRANCH   1  18
ATOM     18  O   UNL     1       1.644   8.968  20.346  0.00  0.00    +0.000 OA
BRANCH  18  26
ATOM     19  C   UNL     1       1.307  13.480  19.966  0.00  0.00    +0.000 C 
ATOM     20  N   UNL     1       0.834  12.119  19.462  0.00  0.00    +0.000 N 
ATOM     21  C   UNL     1       1.924  11.601  18.541  0.00  0.00    +0.000 C 
ATOM     22  C   UNL     1       1.462  10.324  17.859  0.00  0.00    +0.000 C 
ATOM     23  C   UNL     1       0.170   9.824  18.507  0.00  0.00    +0.000 C 
ATOM     24  C   UNL     1      -0.928  10.880  18.251  0.00  0.00    +0.000 C 
ATOM     25  C   UNL     1      -0.493  12.272  18.726  0.00  0.00    +0.000 C 
ATOM     26  C   UNL     1       0.408   9.674  20.034  0.00  0.00    +0.000 C 
ATOM     27  C   UNL     1       0.542  11.102  20.622  0.00  0.00    +0.000 C 
ENDBRANCH  18  26
ENDBRANCH   1  18
TORSDOF 4
ENDMDL
MODEL 6
REMARK VINA RESULT:      -7.7      0.547      1.108
REMARK  Name = 
REMARK  5 active torsions:
REMARK  status: ('A' for Active; 'I' for Inactive)
REMARK    1  A    between atoms: C_1  and  N_2
REMARK    2  A    between atoms: C_8  and  O_9
REMARK    3  A    between atoms: O_9  and  C_10
REMARK    4  A    between atoms: N_12  and  C_13
REMARK    5  A    between atoms: C_19  and  C_20
REMARK                            x       y       z     vdW  Elec       q    Type
REMARK                         _______ _______ _______ _____ _____    ______ ____
ROOT
ATOM      1  C   UNL     1       2.197   7.689  19.129  0.00  0.00    +0.000 C 
ATOM      2  O   UNL     1       2.097   7.260  20.268  0.00  0.00    +0.000 OA
ATOM      3  N   UNL     1       2.751   7.054  18.039  0.00  0.00    +0.000 N 
ATOM      4  H   UNL     1       2.676   7.562  17.168  0.00  0.00    +0.000 HD
ENDROOT
BRANCH   3   5
ATOM      5  C   UNL     1       2.876   5.643  17.968  0.00  0.00    +0.000 A 
ATOM      6  C   UNL     1       1.700   4.874  17.859  0.00  0.00    +0.000 A 
ATOM      7  C   UNL     1       1.754   3.489  17.753  0.00  0.00    +0.000 A 
ATOM      8  C   UNL     1       2.980   2.862  17.755  0.00  0.00    +0.000 A 
ATOM      9  F   UNL     1       3.047   1.528  17.636  0.00  0.00    +0.000 F 
ATOM     10  C   UNL     1       4.157   3.598  17.863  0.00  0.00    +0.000 A 
ATOM     11  C   UNL     1       4.154   5.008  17.992  0.00  0.00    +0.000 A 
BRANCH  11  12
ATOM     12  C   UNL     1       5.477   5.711  18.061  0.00  0.00    +0.000 A 
ATOM     13  C   UNL     1       6.473   5.381  18.997  0.00  0.00    +0.000 A 
ATOM     14  C   UNL     1       7.701   6.051  19.052  0.00  0.00    +0.000 A 
ATOM     15  C   UNL     1       7.949   7.122  18.205  0.00  0.00    +0.000 A 
ATOM     16  C   UNL     1       6.973   7.511  17.295  0.00  0.00    +0.000 A 
ATOM     17  C   UNL     1       5.766   6.804  17.214  0.00  0.00    +0.000 A 
ENDBRANCH  11  12
ENDBRANCH   3   5
BRANCH   1  18
ATOM     18  O   UNL     1       1.609   8.844  18.716  0.00  0.00    +0.000 OA
BRANCH  18  26
ATOM     19  C   UNL     1      -0.538  12.775  17.966  0.00  0.00    +0.000 C 
ATOM     20  N   UNL     1      -0.091  11.743  18.998  0.00  0.00    +0.000 N 
ATOM     21  C   UNL     1      -1.073  10.589  18.902  0.00  0.00    +0.000 C 
ATOM     22  C   UNL     1      -0.805   9.587  20.012  0.00  0.00    +0.000 C 
ATOM     23  C   UNL     1       0.518   9.916  20.704  0.00  0.00    +0.000 C 
ATOM     24  C   UNL     1       0.367  11.295  21.384  0.00  0.00    +0.000 C 
ATOM     25  C   UNL     1      -0.097  12.366  20.389  0.00  0.00    +0.000 C 
ATOM     26  C   UNL     1       1.636   9.980  19.629  0.00  0.00    +0.000 C 
ATOM     27  C   UNL     1       1.383  11.251  18.777  0.00  0.00    +0.000 C 
ENDBRANCH  18  26
ENDBRANCH   1  18
TORSDOF 4
ENDMDL
MODEL 7
REMARK VINA RESULT:      -7.7      1.521      1.692
REMARK  Name = 
REMARK  5 active torsions:
REMARK  status: ('A' for Active; 'I' for Inactive)
REMARK    1  A    between atoms: C_1  and  N_2
REMARK    2  A    between atoms: C_8  and  O_9
REMARK    3  A    between atoms: O_9  and  C_10
REMARK    4  A    between atoms: N_12  and  C_13
REMARK    5  A    between atoms: C_19  and  C_20
REMARK                            x       y       z     vdW  Elec       q    Type
REMARK                         _______ _______ _______ _____ _____    ______ ____
ROOT
ATOM      1  C   UNL     1       1.441   7.621  20.795  0.00  0.00    +0.000 C 
ATOM      2  O   UNL     1       0.474   7.203  21.413  0.00  0.00    +0.000 OA
ATOM      3  N   UNL     1       2.498   6.892  20.298  0.00  0.00    +0.000 N 
ATOM      4  H   UNL     1       3.165   7.426  19.759  0.00  0.00    +0.000 HD
ENDROOT
BRANCH   3   5
ATOM      5  C   UNL     1       2.400   5.503  20.031  0.00  0.00    +0.000 A 
ATOM      6  C   UNL     1       1.283   4.804  20.533  0.00  0.00    +0.000 A 
ATOM      7  C   UNL     1       1.110   3.449  20.280  0.00  0.00    +0.000 A 
ATOM      8  C   UNL     1       2.050   2.780  19.528  0.00  0.00    +0.000 A 
ATOM      9  F   UNL     1       1.886   1.475  19.262  0.00  0.00    +0.000 F 
ATOM     10  C   UNL     1       3.163   3.445  19.022  0.00  0.00    +0.000 A 
ATOM     11  C   UNL     1       3.393   4.820  19.267  0.00  0.00    +0.000 A 
BRANCH  11  12
ATOM     12  C   UNL     1       4.602   5.454  18.643  0.00  0.00    +0.000 A 
ATOM     13  C   UNL     1       4.548   6.204  17.455  0.00  0.00    +0.000 A 
ATOM     14  C   UNL     1       5.687   6.784  16.883  0.00  0.00    +0.000 A 
ATOM     15  C   UNL     1       6.935   6.578  17.454  0.00  0.00    +0.000 A 
ATOM     16  C   UNL     1       7.039   5.805  18.603  0.00  0.00    +0.000 A 
ATOM     17  C   UNL     1       5.889   5.269  19.196  0.00  0.00    +0.000 A 
ENDBRANCH  11  12
ENDBRANCH   3   5
BRANCH   1  18
ATOM     18  O   UNL     1       1.540   8.904  20.353  0.00  0.00    +0.000 OA
BRANCH  18  26
ATOM     19  C   UNL     1       1.697  13.442  20.387  0.00  0.00    +0.000 C 
ATOM     20  N   UNL     1       0.915  12.197  19.979  0.00  0.00    +0.000 N 
ATOM     21  C   UNL     1       1.583  11.664  18.724  0.00  0.00    +0.000 C 
ATOM     22  C   UNL     1       0.768  10.518  18.149  0.00  0.00    +0.000 C 
ATOM     23  C   UNL     1      -0.310  10.093  19.147  0.00  0.00    +0.000 C 
ATOM     24  C   UNL     1      -1.284  11.278  19.327  0.00  0.00    +0.000 C 
ATOM     25  C   UNL     1      -0.543  12.561  19.723  0.00  0.00    +0.000 C 
ATOM     26  C   UNL     1       0.372   9.764  20.502  0.00  0.00    +0.000 C 
ATOM     27  C   UNL     1       0.870  11.103  21.104  0.00  0.00    +0.000 C 
ENDBRANCH  18  26
ENDBRANCH   1  18
TORSDOF 4
ENDMDL
MODEL 8
REMARK VINA RESULT:      -7.5      4.430      6.630
REMARK  Name = 
REMARK  5 active torsions:
REMARK  status: ('A' for Active; 'I' for Inactive)
REMARK    1  A    between atoms: C_1  and  N_2
REMARK    2  A    between atoms: C_8  and  O_9
REMARK    3  A    between atoms: O_9  and  C_10
REMARK    4  A    between atoms: N_12  and  C_13
REMARK    5  A    between atoms: C_19  and  C_20
REMARK                            x       y       z     vdW  Elec       q    Type
REMARK                         _______ _______ _______ _____ _____    ______ ____
ROOT
ATOM      1  C   UNL     1       4.042   3.618  17.286  0.00  0.00    +0.000 C 
ATOM      2  O   UNL     1       3.299   4.532  16.965  0.00  0.00    +0.000 OA
ATOM      3  N   UNL     1       5.420   3.612  17.275  0.00  0.00    +0.000 N 
ATOM      4  H   UNL     1       5.843   2.771  17.641  0.00  0.00    +0.000 HD
ENDROOT
BRANCH   3   5
ATOM      5  C   UNL     1       6.182   4.807  17.326  0.00  0.00    +0.000 A 
ATOM      6  C   UNL     1       6.424   5.391  18.586  0.00  0.00    +0.000 A 
ATOM      7  C   UNL     1       7.190   6.544  18.708  0.00  0.00    +0.000 A 
ATOM      8  C   UNL     1       7.719   7.124  17.576  0.00  0.00    +0.000 A 
ATOM      9  F   UNL     1       8.474   8.227  17.682  0.00  0.00    +0.000 F 
ATOM     10  C   UNL     1       7.493   6.568  16.320  0.00  0.00    +0.000 A 
ATOM     11  C   UNL     1       6.705   5.406  16.141  0.00  0.00    +0.000 A 
BRANCH  11  12
ATOM     12  C   UNL     1       6.556   4.863  14.750  0.00  0.00    +0.000 A 
ATOM     13  C   UNL     1       5.476   4.054  14.354  0.00  0.00    +0.000 A 
ATOM     14  C   UNL     1       5.353   3.552  13.053  0.00  0.00    +0.000 A 
ATOM     15  C   UNL     1       6.348   3.794  12.117  0.00  0.00    +0.000 A 
ATOM     16  C   UNL     1       7.455   4.551  12.479  0.00  0.00    +0.000 A 
ATOM     17  C   UNL     1       7.546   5.091  13.769  0.00  0.00    +0.000 A 
ENDBRANCH  11  12
ENDBRANCH   3   5
BRANCH   1  18
ATOM     18  O   UNL     1       3.599   2.474  17.875  0.00  0.00    +0.000 OA
BRANCH  18  26
ATOM     19  C   UNL     1       1.960   5.880  20.390  0.00  0.00    +0.000 C 
ATOM     20  N   UNL     1       2.098   4.369  20.226  0.00  0.00    +0.000 N 
ATOM     21  C   UNL     1       1.077   3.957  19.181  0.00  0.00    +0.000 C 
ATOM     22  C   UNL     1       1.026   2.442  19.074  0.00  0.00    +0.000 C 
ATOM     23  C   UNL     1       2.193   1.826  19.848  0.00  0.00    +0.000 C 
ATOM     24  C   UNL     1       2.003   2.167  21.343  0.00  0.00    +0.000 C 
ATOM     25  C   UNL     1       1.843   3.677  21.560  0.00  0.00    +0.000 C 
ATOM     26  C   UNL     1       3.516   2.452  19.330  0.00  0.00    +0.000 C 
ATOM     27  C   UNL     1       3.545   3.926  19.807  0.00  0.00    +0.000 C 
ENDBRANCH  18  26
ENDBRANCH   1  18
TORSDOF 4
ENDMDL
MODEL 9
REMARK VINA RESULT:      -7.4      1.362      1.675
REMARK  Name = 
REMARK  5 active torsions:
REMARK  status: ('A' for Active; 'I' for Inactive)
REMARK    1  A    between atoms: C_1  and  N_2
REMARK    2  A    between atoms: C_8  and  O_9
REMARK    3  A    between atoms: O_9  and  C_10
REMARK    4  A    between atoms: N_12  and  C_13
REMARK    5  A    between atoms: C_19  and  C_20
REMARK                            x       y       z     vdW  Elec       q    Type
REMARK                         _______ _______ _______ _____ _____    ______ ____
ROOT
ATOM      1  C   UNL     1       1.716   8.110  20.523  0.00  0.00    +0.000 C 
ATOM      2  O   UNL     1       1.428   7.865  21.684  0.00  0.00    +0.000 OA
ATOM      3  N   UNL     1       2.328   7.273  19.615  0.00  0.00    +0.000 N 
ATOM      4  H   UNL     1       2.418   7.652  18.683  0.00  0.00    +0.000 HD
ENDROOT
BRANCH   3   5
ATOM      5  C   UNL     1       2.305   5.862  19.751  0.00  0.00    +0.000 A 
ATOM      6  C   UNL     1       1.159   5.265  20.315  0.00  0.00    +0.000 A 
ATOM      7  C   UNL     1       1.058   3.886  20.447  0.00  0.00    +0.000 A 
ATOM      8  C   UNL     1       2.099   3.091  20.019  0.00  0.00    +0.000 A 
ATOM      9  F   UNL     1       2.007   1.757  20.125  0.00  0.00    +0.000 F 
ATOM     10  C   UNL     1       3.242   3.655  19.460  0.00  0.00    +0.000 A 
ATOM     11  C   UNL     1       3.400   5.055  19.321  0.00  0.00    +0.000 A 
BRANCH  11  12
ATOM     12  C   UNL     1       4.653   5.561  18.669  0.00  0.00    +0.000 A 
ATOM     13  C   UNL     1       5.932   5.393  19.231  0.00  0.00    +0.000 A 
ATOM     14  C   UNL     1       7.091   5.876  18.612  0.00  0.00    +0.000 A 
ATOM     15  C   UNL     1       7.000   6.602  17.433  0.00  0.00    +0.000 A 
ATOM     16  C   UNL     1       5.752   6.830  16.868  0.00  0.00    +0.000 A 
ATOM     17  C   UNL     1       4.602   6.302  17.468  0.00  0.00    +0.000 A 
ENDBRANCH  11  12
ENDBRANCH   3   5
BRANCH   1  18
ATOM     18  O   UNL     1       1.315   9.241  19.881  0.00  0.00    +0.000 OA
BRANCH  18  26
ATOM     19  C   UNL     1       0.811  13.519  18.446  0.00  0.00    +0.000 C 
ATOM     20  N   UNL     1       0.246  12.386  19.298  0.00  0.00    +0.000 N 
ATOM     21  C   UNL     1      -0.442  11.432  18.338  0.00  0.00    +0.000 C 
ATOM     22  C   UNL     1      -1.181  10.356  19.116  0.00  0.00    +0.000 C 
ATOM     23  C   UNL     1      -0.785  10.415  20.592  0.00  0.00    +0.000 C 
ATOM     24  C   UNL     1      -1.261  11.772  21.157  0.00  0.00    +0.000 C 
ATOM     25  C   UNL     1      -0.731  12.946  20.324  0.00  0.00    +0.000 C 
ATOM     26  C   UNL     1       0.762  10.318  20.693  0.00  0.00    +0.000 C 
ATOM     27  C   UNL     1       1.343  11.645  20.141  0.00  0.00    +0.000 C 
ENDBRANCH  18  26
ENDBRANCH   1  18
TORSDOF 4
ENDMDL
