MODEL 1
REMARK VINA RESULT:      -8.7      0.000      0.000
REMARK  Name = 
REMARK  5 active torsions:
REMARK  status: ('A' for Active; 'I' for Inactive)
REMARK    1  A    between atoms: C_1  and  C_2
REMARK    2  A    between atoms: C_5  and  C_6
REMARK    3  A    between atoms: N_8  and  N_9
REMARK    4  A    between atoms: C_10  and  C_12
REMARK    5  A    between atoms: C_13  and  C_14
REMARK                            x       y       z     vdW  Elec       q    Type
REMARK                         _______ _______ _______ _____ _____    ______ ____
ROOT
ATOM      1  N   UNL     1       6.910   6.959  17.070  0.00  0.00    +0.000 N 
ATOM      2  C   UNL     1       5.550   6.727  17.043  0.00  0.00    +0.000 C 
ATOM      3  O   UNL     1       4.763   7.656  17.229  0.00  0.00    +0.000 OA
ATOM      4  H   UNL     1       7.629   6.267  16.875  0.00  0.00    +0.000 HD
ENDROOT
BRANCH   2   5
ATOM      5  C   UNL     1       5.151   5.377  16.780  0.00  0.00    +0.000 A 
ATOM      6  C   UNL     1       5.635   4.461  15.836  0.00  0.00    +0.000 A 
ATOM      7  C   UNL     1       6.695   4.606  14.806  0.00  0.00    +0.000 C 
ATOM      8  N   UNL     1       5.036   3.224  15.983  0.00  0.00    +0.000 NA
ATOM      9  C   UNL     1       4.234   3.380  16.995  0.00  0.00    +0.000 A 
ATOM     10  S   UNL     1       3.161   2.302  17.826  0.00  0.00    +0.000 S 
ATOM     11  C   UNL     1       2.675   3.671  18.875  0.00  0.00    +0.000 A 
ATOM     12  C   UNL     1       1.753   3.630  19.909  0.00  0.00    +0.000 A 
ATOM     13  C   UNL     1       1.484   4.811  20.608  0.00  0.00    +0.000 A 
ATOM     14  C   UNL     1       2.123   6.011  20.257  0.00  0.00    +0.000 A 
ATOM     15  C   UNL     1       3.050   6.052  19.212  0.00  0.00    +0.000 A 
ATOM     16  C   UNL     1       3.330   4.871  18.547  0.00  0.00    +0.000 A 
ATOM     17  N   UNL     1       4.229   4.651  17.498  0.00  0.00    +0.000 N 
ENDBRANCH   2   5
BRANCH   1  20
ATOM     18  C   UNL     1       8.239   8.532  18.282  0.00  0.00    +0.000 C 
ATOM     19  O   UNL     1       8.686   7.645  19.006  0.00  0.00    +0.000 OA
ATOM     20  N   UNL     1       7.329   8.269  17.283  0.00  0.00    +0.000 N 
ATOM     21  H   UNL     1       6.862   8.968  16.714  0.00  0.00    +0.000 HD
BRANCH  18  26
ATOM     22  C   UNL     1      10.175  13.975  18.872  0.00  0.00    +0.000 C 
ATOM     23  C   UNL     1       9.651  12.577  18.739  0.00  0.00    +0.000 A 
ATOM     24  C   UNL     1      10.049  11.566  19.619  0.00  0.00    +0.000 A 
ATOM     25  C   UNL     1       9.565  10.264  19.466  0.00  0.00    +0.000 A 
ATOM     26  C   UNL     1       8.678   9.952  18.427  0.00  0.00    +0.000 A 
ATOM     27  C   UNL     1       8.272  10.971  17.553  0.00  0.00    +0.000 A 
ATOM     28  C   UNL     1       8.757  12.272  17.710  0.00  0.00    +0.000 A 
ENDBRANCH  18  26
ENDBRANCH   1  20
TORSDOF 3
ENDMDL
MODEL 2
REMARK VINA RESULT:      -8.2      5.997      8.632
REMARK  Name = 
REMARK  5 active torsions:
REMARK  status: ('A' for Active; 'I' for Inactive)
REMARK    1  A    between atoms: C_1  and  C_2
REMARK    2  A    between atoms: C_5  and  C_6
REMARK    3  A    between atoms: N_8  and  N_9
REMARK    4  A    between atoms: C_10  and  C_12
REMARK    5  A    between atoms: C_13  and  C_14
REMARK                            x       y       z     vdW  Elec       q    Type
REMARK                         _______ _______ _______ _____ _____    ______ ____
ROOT
ATOM      1  N   UNL     1       1.279   8.726  18.954  0.00  0.00    +0.000 N 
ATOM      2  C   UNL     1       0.953   9.999  18.536  0.00  0.00    +0.000 C 
ATOM      3  O   UNL     1       1.489  10.476  17.535  0.00  0.00    +0.000 OA
ATOM      4  H   UNL     1       0.850   8.234  19.733  0.00  0.00    +0.000 HD
ENDROOT
BRANCH   2   5
ATOM      5  C   UNL     1      -0.028  10.683  19.324  0.00  0.00    +0.000 A 
ATOM      6  C   UNL     1       0.073  11.243  20.605  0.00  0.00    +0.000 A 
ATOM      7  C   UNL     1       1.219  11.287  21.550  0.00  0.00    +0.000 C 
ATOM      8  N   UNL     1      -1.089  11.901  20.961  0.00  0.00    +0.000 NA
ATOM      9  C   UNL     1      -1.860  11.763  19.922  0.00  0.00    +0.000 A 
ATOM     10  S   UNL     1      -3.458  12.325  19.558  0.00  0.00    +0.000 S 
ATOM     11  C   UNL     1      -3.348  11.470  17.986  0.00  0.00    +0.000 A 
ATOM     12  C   UNL     1      -4.324  11.424  17.004  0.00  0.00    +0.000 A 
ATOM     13  C   UNL     1      -4.068  10.684  15.844  0.00  0.00    +0.000 A 
ATOM     14  C   UNL     1      -2.855   9.993  15.691  0.00  0.00    +0.000 A 
ATOM     15  C   UNL     1      -1.872  10.037  16.685  0.00  0.00    +0.000 A 
ATOM     16  C   UNL     1      -2.127  10.797  17.814  0.00  0.00    +0.000 A 
ATOM     17  N   UNL     1      -1.300  11.019  18.921  0.00  0.00    +0.000 N 
ENDBRANCH   2   5
BRANCH   1  20
ATOM     18  C   UNL     1       2.645   6.793  18.625  0.00  0.00    +0.000 C 
ATOM     19  O   UNL     1       2.267   6.305  19.688  0.00  0.00    +0.000 OA
ATOM     20  N   UNL     1       2.199   8.019  18.185  0.00  0.00    +0.000 N 
ATOM     21  H   UNL     1       2.541   8.509  17.364  0.00  0.00    +0.000 HD
BRANCH  18  26
ATOM     22  C   UNL     1       6.164   3.855  15.059  0.00  0.00    +0.000 C 
ATOM     23  C   UNL     1       5.277   4.611  16.003  0.00  0.00    +0.000 A 
ATOM     24  C   UNL     1       4.322   3.952  16.785  0.00  0.00    +0.000 A 
ATOM     25  C   UNL     1       3.491   4.676  17.643  0.00  0.00    +0.000 A 
ATOM     26  C   UNL     1       3.599   6.070  17.731  0.00  0.00    +0.000 A 
ATOM     27  C   UNL     1       4.564   6.725  16.954  0.00  0.00    +0.000 A 
ATOM     28  C   UNL     1       5.395   5.999  16.098  0.00  0.00    +0.000 A 
ENDBRANCH  18  26
ENDBRANCH   1  20
TORSDOF 3
ENDMDL
MODEL 3
REMARK VINA RESULT:      -8.2      6.086      8.669
REMARK  Name = 
REMARK  5 active torsions:
REMARK  status: ('A' for Active; 'I' for Inactive)
REMARK    1  A    between atoms: C_1  and  C_2
REMARK    2  A    between atoms: C_5  and  C_6
REMARK    3  A    between atoms: N_8  and  N_9
REMARK    4  A    between atoms: C_10  and  C_12
REMARK    5  A    between atoms: C_13  and  C_14
REMARK                            x       y       z     vdW  Elec       q    Type
REMARK                         _______ _______ _______ _____ _____    ______ ____
ROOT
ATOM      1  N   UNL     1       1.437   9.454  18.999  0.00  0.00    +0.000 N 
ATOM      2  C   UNL     1       1.537  10.796  18.697  0.00  0.00    +0.000 C 
ATOM      3  O   UNL     1       2.300  11.172  17.807  0.00  0.00    +0.000 OA
ATOM      4  H   UNL     1       0.797   9.049  19.677  0.00  0.00    +0.000 HD
ENDROOT
BRANCH   2   5
ATOM      5  C   UNL     1       0.705  11.672  19.466  0.00  0.00    +0.000 A 
ATOM      6  C   UNL     1       1.050  12.633  20.426  0.00  0.00    +0.000 A 
ATOM      7  C   UNL     1       2.379  13.031  20.957  0.00  0.00    +0.000 C 
ATOM      8  N   UNL     1      -0.060  13.334  20.859  0.00  0.00    +0.000 NA
ATOM      9  C   UNL     1      -1.040  12.829  20.169  0.00  0.00    +0.000 A 
ATOM     10  S   UNL     1      -2.735  13.182  20.097  0.00  0.00    +0.000 S 
ATOM     11  C   UNL     1      -2.913  11.852  18.909  0.00  0.00    +0.000 A 
ATOM     12  C   UNL     1      -4.088  11.446  18.297  0.00  0.00    +0.000 A 
ATOM     13  C   UNL     1      -4.037  10.368  17.407  0.00  0.00    +0.000 A 
ATOM     14  C   UNL     1      -2.825   9.706  17.154  0.00  0.00    +0.000 A 
ATOM     15  C   UNL     1      -1.640  10.115  17.774  0.00  0.00    +0.000 A 
ATOM     16  C   UNL     1      -1.699  11.201  18.630  0.00  0.00    +0.000 A 
ATOM     17  N   UNL     1      -0.658  11.810  19.341  0.00  0.00    +0.000 N 
ENDBRANCH   2   5
BRANCH   1  20
ATOM     18  C   UNL     1       2.581   7.366  18.788  0.00  0.00    +0.000 C 
ATOM     19  O   UNL     1       2.277   7.047  19.936  0.00  0.00    +0.000 OA
ATOM     20  N   UNL     1       2.202   8.571  18.241  0.00  0.00    +0.000 N 
ATOM     21  H   UNL     1       2.496   8.925  17.335  0.00  0.00    +0.000 HD
BRANCH  18  26
ATOM     22  C   UNL     1       5.831   3.909  15.440  0.00  0.00    +0.000 C 
ATOM     23  C   UNL     1       4.972   4.806  16.281  0.00  0.00    +0.000 A 
ATOM     24  C   UNL     1       5.189   6.187  16.323  0.00  0.00    +0.000 A 
ATOM     25  C   UNL     1       4.390   7.002  17.128  0.00  0.00    +0.000 A 
ATOM     26  C   UNL     1       3.365   6.450  17.906  0.00  0.00    +0.000 A 
ATOM     27  C   UNL     1       3.143   5.067  17.852  0.00  0.00    +0.000 A 
ATOM     28  C   UNL     1       3.942   4.253  17.045  0.00  0.00    +0.000 A 
ENDBRANCH  18  26
ENDBRANCH   1  20
TORSDOF 3
ENDMDL
MODEL 4
REMARK VINA RESULT:      -7.8      6.359      8.784
REMARK  Name = 
REMARK  5 active torsions:
REMARK  status: ('A' for Active; 'I' for Inactive)
REMARK    1  A    between atoms: C_1  and  C_2
REMARK    2  A    between atoms: C_5  and  C_6
REMARK    3  A    between atoms: N_8  and  N_9
REMARK    4  A    between atoms: C_10  and  C_12
REMARK    5  A    between atoms: C_13  and  C_14
REMARK                            x       y       z     vdW  Elec       q    Type
REMARK                         _______ _______ _______ _____ _____    ______ ____
ROOT
ATOM      1  N   UNL     1       0.717   9.099  19.464  0.00  0.00    +0.000 N 
ATOM      2  C   UNL     1       0.546  10.427  19.133  0.00  0.00    +0.000 C 
ATOM      3  O   UNL     1       1.362  10.991  18.403  0.00  0.00    +0.000 OA
ATOM      4  H   UNL     1       0.069   8.541  20.013  0.00  0.00    +0.000 HD
ENDROOT
BRANCH   2   5
ATOM      5  C   UNL     1      -0.617  11.062  19.679  0.00  0.00    +0.000 A 
ATOM      6  C   UNL     1      -0.800  11.708  20.909  0.00  0.00    +0.000 A 
ATOM      7  C   UNL     1       0.146  11.923  22.035  0.00  0.00    +0.000 C 
ATOM      8  N   UNL     1      -2.058  12.272  20.999  0.00  0.00    +0.000 NA
ATOM      9  C   UNL     1      -2.611  11.995  19.855  0.00  0.00    +0.000 A 
ATOM     10  S   UNL     1      -4.157  12.375  19.170  0.00  0.00    +0.000 S 
ATOM     11  C   UNL     1      -3.689  11.437  17.716  0.00  0.00    +0.000 A 
ATOM     12  C   UNL     1      -4.461  11.235  16.583  0.00  0.00    +0.000 A 
ATOM     13  C   UNL     1      -3.936  10.451  15.550  0.00  0.00    +0.000 A 
ATOM     14  C   UNL     1      -2.662   9.872  15.670  0.00  0.00    +0.000 A 
ATOM     15  C   UNL     1      -1.885  10.074  16.815  0.00  0.00    +0.000 A 
ATOM     16  C   UNL     1      -2.405  10.876  17.817  0.00  0.00    +0.000 A 
ATOM     17  N   UNL     1      -1.817  11.246  19.032  0.00  0.00    +0.000 N 
ENDBRANCH   2   5
BRANCH   1  20
ATOM     18  C   UNL     1       2.257   7.272  19.490  0.00  0.00    +0.000 C 
ATOM     19  O   UNL     1       1.718   6.791  20.485  0.00  0.00    +0.000 OA
ATOM     20  N   UNL     1       1.815   8.443  18.916  0.00  0.00    +0.000 N 
ATOM     21  H   UNL     1       2.271   8.931  18.151  0.00  0.00    +0.000 HD
BRANCH  18  26
ATOM     22  C   UNL     1       6.848   4.871  16.867  0.00  0.00    +0.000 C 
ATOM     23  C   UNL     1       5.643   5.470  17.529  0.00  0.00    +0.000 A 
ATOM     24  C   UNL     1       4.951   6.536  16.946  0.00  0.00    +0.000 A 
ATOM     25  C   UNL     1       3.843   7.094  17.589  0.00  0.00    +0.000 A 
ATOM     26  C   UNL     1       3.413   6.598  18.826  0.00  0.00    +0.000 A 
ATOM     27  C   UNL     1       4.103   5.522  19.402  0.00  0.00    +0.000 A 
ATOM     28  C   UNL     1       5.209   4.964  18.756  0.00  0.00    +0.000 A 
ENDBRANCH  18  26
ENDBRANCH   1  20
TORSDOF 3
ENDMDL
MODEL 5
REMARK VINA RESULT:      -7.8      4.456      6.994
REMARK  Name = 
REMARK  5 active torsions:
REMARK  status: ('A' for Active; 'I' for Inactive)
REMARK    1  A    between atoms: C_1  and  C_2
REMARK    2  A    between atoms: C_5  and  C_6
REMARK    3  A    between atoms: N_8  and  N_9
REMARK    4  A    between atoms: C_10  and  C_12
REMARK    5  A    between atoms: C_13  and  C_14
REMARK                            x       y       z     vdW  Elec       q    Type
REMARK                         _______ _______ _______ _____ _____    ______ ____
ROOT
ATOM      1  N   UNL     1       2.000   6.889  20.876  0.00  0.00    +0.000 N 
ATOM      2  C   UNL     1       2.254   6.462  19.589  0.00  0.00    +0.000 C 
ATOM      3  O   UNL     1       2.157   7.250  18.647  0.00  0.00    +0.000 OA
ATOM      4  H   UNL     1       2.106   6.326  21.715  0.00  0.00    +0.000 HD
ENDROOT
BRANCH   2   5
ATOM      5  C   UNL     1       2.634   5.088  19.451  0.00  0.00    +0.000 A 
ATOM      6  C   UNL     1       2.245   3.964  20.192  0.00  0.00    +0.000 A 
ATOM      7  C   UNL     1       1.332   3.847  21.358  0.00  0.00    +0.000 C 
ATOM      8  N   UNL     1       2.774   2.803  19.662  0.00  0.00    +0.000 NA
ATOM      9  C   UNL     1       3.444   3.207  18.623  0.00  0.00    +0.000 A 
ATOM     10  S   UNL     1       4.361   2.371  17.413  0.00  0.00    +0.000 S 
ATOM     11  C   UNL     1       4.756   3.960  16.683  0.00  0.00    +0.000 A 
ATOM     12  C   UNL     1       5.535   4.179  15.558  0.00  0.00    +0.000 A 
ATOM     13  C   UNL     1       5.754   5.497  15.146  0.00  0.00    +0.000 A 
ATOM     14  C   UNL     1       5.209   6.572  15.868  0.00  0.00    +0.000 A 
ATOM     15  C   UNL     1       4.427   6.350  17.005  0.00  0.00    +0.000 A 
ATOM     16  C   UNL     1       4.193   5.040  17.385  0.00  0.00    +0.000 A 
ATOM     17  N   UNL     1       3.429   4.564  18.458  0.00  0.00    +0.000 N 
ENDBRANCH   2   5
BRANCH   1  20
ATOM     18  C   UNL     1       0.384   8.565  21.417  0.00  0.00    +0.000 C 
ATOM     19  O   UNL     1      -0.488   7.715  21.586  0.00  0.00    +0.000 OA
ATOM     20  N   UNL     1       1.668   8.230  21.048  0.00  0.00    +0.000 N 
ATOM     21  H   UNL     1       2.402   8.890  20.810  0.00  0.00    +0.000 HD
BRANCH  18  26
ATOM     22  C   UNL     1      -0.662  14.179  22.469  0.00  0.00    +0.000 C 
ATOM     23  C   UNL     1      -0.416  12.729  22.176  0.00  0.00    +0.000 A 
ATOM     24  C   UNL     1      -1.051  11.723  22.912  0.00  0.00    +0.000 A 
ATOM     25  C   UNL     1      -0.792  10.378  22.637  0.00  0.00    +0.000 A 
ATOM     26  C   UNL     1       0.108  10.018  21.626  0.00  0.00    +0.000 A 
ATOM     27  C   UNL     1       0.733  11.029  20.883  0.00  0.00    +0.000 A 
ATOM     28  C   UNL     1       0.472  12.373  21.159  0.00  0.00    +0.000 A 
ENDBRANCH  18  26
ENDBRANCH   1  20
TORSDOF 3
ENDMDL
MODEL 6
REMARK VINA RESULT:      -7.8      4.260      7.051
REMARK  Name = 
REMARK  5 active torsions:
REMARK  status: ('A' for Active; 'I' for Inactive)
REMARK    1  A    between atoms: C_1  and  C_2
REMARK    2  A    between atoms: C_5  and  C_6
REMARK    3  A    between atoms: N_8  and  N_9
REMARK    4  A    between atoms: C_10  and  C_12
REMARK    5  A    between atoms: C_13  and  C_14
REMARK                            x       y       z     vdW  Elec       q    Type
REMARK                         _______ _______ _______ _____ _____    ______ ____
ROOT
ATOM      1  N   UNL     1       1.851   6.982  20.825  0.00  0.00    +0.000 N 
ATOM      2  C   UNL     1       2.231   6.664  19.538  0.00  0.00    +0.000 C 
ATOM      3  O   UNL     1       2.267   7.539  18.671  0.00  0.00    +0.000 OA
ATOM      4  H   UNL     1       1.844   6.339  21.612  0.00  0.00    +0.000 HD
ENDROOT
BRANCH   2   5
ATOM      5  C   UNL     1       2.576   5.293  19.309  0.00  0.00    +0.000 A 
ATOM      6  C   UNL     1       1.906   4.119  19.679  0.00  0.00    +0.000 A 
ATOM      7  C   UNL     1       0.642   3.928  20.436  0.00  0.00    +0.000 C 
ATOM      8  N   UNL     1       2.536   2.998  19.172  0.00  0.00    +0.000 NA
ATOM      9  C   UNL     1       3.541   3.478  18.500  0.00  0.00    +0.000 A 
ATOM     10  S   UNL     1       4.783   2.735  17.547  0.00  0.00    +0.000 S 
ATOM     11  C   UNL     1       5.475   4.365  17.266  0.00  0.00    +0.000 A 
ATOM     12  C   UNL     1       6.603   4.663  16.520  0.00  0.00    +0.000 A 
ATOM     13  C   UNL     1       7.008   5.999  16.430  0.00  0.00    +0.000 A 
ATOM     14  C   UNL     1       6.294   7.009  17.095  0.00  0.00    +0.000 A 
ATOM     15  C   UNL     1       5.157   6.706  17.851  0.00  0.00    +0.000 A 
ATOM     16  C   UNL     1       4.751   5.384  17.908  0.00  0.00    +0.000 A 
ATOM     17  N   UNL     1       3.643   4.839  18.567  0.00  0.00    +0.000 N 
ENDBRANCH   2   5
BRANCH   1  20
ATOM     18  C   UNL     1       0.264   8.657  21.444  0.00  0.00    +0.000 C 
ATOM     19  O   UNL     1      -0.635   7.822  21.522  0.00  0.00    +0.000 OA
ATOM     20  N   UNL     1       1.549   8.315  21.089  0.00  0.00    +0.000 N 
ATOM     21  H   UNL     1       2.308   8.969  20.924  0.00  0.00    +0.000 HD
BRANCH  18  26
ATOM     22  C   UNL     1      -0.720  14.298  22.415  0.00  0.00    +0.000 C 
ATOM     23  C   UNL     1      -0.442  12.842  22.185  0.00  0.00    +0.000 A 
ATOM     24  C   UNL     1       0.441  12.422  21.185  0.00  0.00    +0.000 A 
ATOM     25  C   UNL     1       0.671  11.060  20.973  0.00  0.00    +0.000 A 
ATOM     26  C   UNL     1       0.019  10.098  21.755  0.00  0.00    +0.000 A 
ATOM     27  C   UNL     1      -0.856  10.523  22.764  0.00  0.00    +0.000 A 
ATOM     28  C   UNL     1      -1.084  11.886  22.975  0.00  0.00    +0.000 A 
ENDBRANCH  18  26
ENDBRANCH   1  20
TORSDOF 3
ENDMDL
MODEL 7
REMARK VINA RESULT:      -7.8      6.455      9.673
REMARK  Name = 
REMARK  5 active torsions:
REMARK  status: ('A' for Active; 'I' for Inactive)
REMARK    1  A    between atoms: C_1  and  C_2
REMARK    2  A    between atoms: C_5  and  C_6
REMARK    3  A    between atoms: N_8  and  N_9
REMARK    4  A    between atoms: C_10  and  C_12
REMARK    5  A    between atoms: C_13  and  C_14
REMARK                            x       y       z     vdW  Elec       q    Type
REMARK                         _______ _______ _______ _____ _____    ______ ____
ROOT
ATOM      1  N   UNL     1       0.603  10.052  19.805  0.00  0.00    +0.000 N 
ATOM      2  C   UNL     1       0.844  10.575  21.058  0.00  0.00    +0.000 C 
ATOM      3  O   UNL     1       1.593   9.986  21.839  0.00  0.00    +0.000 OA
ATOM      4  H   UNL     1       0.046  10.495  19.079  0.00  0.00    +0.000 HD
ENDROOT
BRANCH   2   5
ATOM      5  C   UNL     1       0.188  11.813  21.355  0.00  0.00    +0.000 A 
ATOM      6  C   UNL     1      -0.840  12.095  22.264  0.00  0.00    +0.000 A 
ATOM      7  C   UNL     1      -1.581  11.200  23.190  0.00  0.00    +0.000 C 
ATOM      8  N   UNL     1      -1.117  13.448  22.308  0.00  0.00    +0.000 NA
ATOM      9  C   UNL     1      -0.271  13.971  21.470  0.00  0.00    +0.000 A 
ATOM     10  S   UNL     1       0.051  15.602  20.982  0.00  0.00    +0.000 S 
ATOM     11  C   UNL     1       1.289  14.970  19.852  0.00  0.00    +0.000 A 
ATOM     12  C   UNL     1       2.085  15.718  18.999  0.00  0.00    +0.000 A 
ATOM     13  C   UNL     1       2.987  15.045  18.169  0.00  0.00    +0.000 A 
ATOM     14  C   UNL     1       3.069  13.643  18.189  0.00  0.00    +0.000 A 
ATOM     15  C   UNL     1       2.263  12.889  19.047  0.00  0.00    +0.000 A 
ATOM     16  C   UNL     1       1.396  13.569  19.885  0.00  0.00    +0.000 A 
ATOM     17  N   UNL     1       0.517  13.047  20.841  0.00  0.00    +0.000 N 
ENDBRANCH   2   5
BRANCH   1  20
ATOM     18  C   UNL     1       1.956   8.797  18.286  0.00  0.00    +0.000 C 
ATOM     19  O   UNL     1       2.007   9.742  17.500  0.00  0.00    +0.000 OA
ATOM     20  N   UNL     1       1.259   8.870  19.471  0.00  0.00    +0.000 N 
ATOM     21  H   UNL     1       1.110   8.098  20.114  0.00  0.00    +0.000 HD
BRANCH  18  26
ATOM     22  C   UNL     1       4.528   3.723  17.120  0.00  0.00    +0.000 C 
ATOM     23  C   UNL     1       3.879   5.034  17.449  0.00  0.00    +0.000 A 
ATOM     24  C   UNL     1       2.636   5.087  18.089  0.00  0.00    +0.000 A 
ATOM     25  C   UNL     1       2.038   6.318  18.368  0.00  0.00    +0.000 A 
ATOM     26  C   UNL     1       2.671   7.515  18.010  0.00  0.00    +0.000 A 
ATOM     27  C   UNL     1       3.921   7.458  17.380  0.00  0.00    +0.000 A 
ATOM     28  C   UNL     1       4.518   6.226  17.102  0.00  0.00    +0.000 A 
ENDBRANCH  18  26
ENDBRANCH   1  20
TORSDOF 3
ENDMDL
MODEL 8
REMARK VINA RESULT:      -7.7      5.506      8.596
REMARK  Name = 
REMARK  5 active torsions:
REMARK  status: ('A' for Active; 'I' for Inactive)
REMARK    1  A    between atoms: C_1  and  C_2
REMARK    2  A    between atoms: C_5  and  C_6
REMARK    3  A    between atoms: N_8  and  N_9
REMARK    4  A    between atoms: C_10  and  C_12
REMARK    5  A    between atoms: C_13  and  C_14
REMARK                            x       y       z     vdW  Elec       q    Type
REMARK                         _______ _______ _______ _____ _____    ______ ____
ROOT
ATOM      1  N   UNL     1       2.085   8.373  19.355  0.00  0.00    +0.000 N 
ATOM      2  C   UNL     1       1.278   9.425  18.973  0.00  0.00    +0.000 C 
ATOM      3  O   UNL     1       1.194   9.737  17.784  0.00  0.00    +0.000 OA
ATOM      4  H   UNL     1       2.173   8.012  20.301  0.00  0.00    +0.000 HD
ENDROOT
BRANCH   2   5
ATOM      5  C   UNL     1       0.570  10.084  20.029  0.00  0.00    +0.000 A 
ATOM      6  C   UNL     1      -0.207   9.550  21.066  0.00  0.00    +0.000 A 
ATOM      7  C   UNL     1      -0.552   8.140  21.385  0.00  0.00    +0.000 C 
ATOM      8  N   UNL     1      -0.636  10.536  21.933  0.00  0.00    +0.000 NA
ATOM      9  C   UNL     1      -0.118  11.627  21.451  0.00  0.00    +0.000 A 
ATOM     10  S   UNL     1      -0.153  13.279  21.972  0.00  0.00    +0.000 S 
ATOM     11  C   UNL     1       0.811  13.707  20.523  0.00  0.00    +0.000 A 
ATOM     12  C   UNL     1       1.248  14.974  20.169  0.00  0.00    +0.000 A 
ATOM     13  C   UNL     1       1.975  15.120  18.983  0.00  0.00    +0.000 A 
ATOM     14  C   UNL     1       2.241  14.009  18.166  0.00  0.00    +0.000 A 
ATOM     15  C   UNL     1       1.797  12.732  18.523  0.00  0.00    +0.000 A 
ATOM     16  C   UNL     1       1.104  12.597  19.713  0.00  0.00    +0.000 A 
ATOM     17  N   UNL     1       0.587  11.433  20.295  0.00  0.00    +0.000 N 
ENDBRANCH   2   5
BRANCH   1  20
ATOM     18  C   UNL     1       3.350   6.477  18.635  0.00  0.00    +0.000 C 
ATOM     19  O   UNL     1       3.321   5.989  19.763  0.00  0.00    +0.000 OA
ATOM     20  N   UNL     1       2.755   7.685  18.347  0.00  0.00    +0.000 N 
ATOM     21  H   UNL     1       2.821   8.177  17.461  0.00  0.00    +0.000 HD
BRANCH  18  26
ATOM     22  C   UNL     1       6.137   3.873  14.257  0.00  0.00    +0.000 C 
ATOM     23  C   UNL     1       5.392   4.547  15.369  0.00  0.00    +0.000 A 
ATOM     24  C   UNL     1       5.403   5.939  15.511  0.00  0.00    +0.000 A 
ATOM     25  C   UNL     1       4.719   6.547  16.566  0.00  0.00    +0.000 A 
ATOM     26  C   UNL     1       4.015   5.773  17.498  0.00  0.00    +0.000 A 
ATOM     27  C   UNL     1       3.997   4.380  17.347  0.00  0.00    +0.000 A 
ATOM     28  C   UNL     1       4.681   3.774  16.290  0.00  0.00    +0.000 A 
ENDBRANCH  18  26
ENDBRANCH   1  20
TORSDOF 3
ENDMDL
MODEL 9
REMARK VINA RESULT:      -7.7      6.742      9.950
REMARK  Name = 
REMARK  5 active torsions:
REMARK  status: ('A' for Active; 'I' for Inactive)
REMARK    1  A    between atoms: C_1  and  C_2
REMARK    2  A    between atoms: C_5  and  C_6
REMARK    3  A    between atoms: N_8  and  N_9
REMARK    4  A    between atoms: C_10  and  C_12
REMARK    5  A    between atoms: C_13  and  C_14
REMARK                            x       y       z     vdW  Elec       q    Type
REMARK                         _______ _______ _______ _____ _____    ______ ____
ROOT
ATOM      1  N   UNL     1       0.392  10.648  19.396  0.00  0.00    +0.000 N 
ATOM      2  C   UNL     1       0.532  11.515  20.459  0.00  0.00    +0.000 C 
ATOM      3  O   UNL     1       1.207  11.189  21.436  0.00  0.00    +0.000 OA
ATOM      4  H   UNL     1      -0.099  10.852  18.529  0.00  0.00    +0.000 HD
ENDROOT
BRANCH   2   5
ATOM      5  C   UNL     1      -0.135  12.776  20.328  0.00  0.00    +0.000 A 
ATOM      6  C   UNL     1      -1.388  13.188  20.801  0.00  0.00    +0.000 A 
ATOM      7  C   UNL     1      -2.421  12.444  21.568  0.00  0.00    +0.000 C 
ATOM      8  N   UNL     1      -1.611  14.526  20.539  0.00  0.00    +0.000 NA
ATOM      9  C   UNL     1      -0.521  14.917  19.947  0.00  0.00    +0.000 A 
ATOM     10  S   UNL     1       0.004  16.451  19.337  0.00  0.00    +0.000 S 
ATOM     11  C   UNL     1       1.514  15.661  18.781  0.00  0.00    +0.000 A 
ATOM     12  C   UNL     1       2.570  16.271  18.124  0.00  0.00    +0.000 A 
ATOM     13  C   UNL     1       3.663  15.485  17.746  0.00  0.00    +0.000 A 
ATOM     14  C   UNL     1       3.678  14.106  18.013  0.00  0.00    +0.000 A 
ATOM     15  C   UNL     1       2.611  13.490  18.673  0.00  0.00    +0.000 A 
ATOM     16  C   UNL     1       1.548  14.285  19.068  0.00  0.00    +0.000 A 
ATOM     17  N   UNL     1       0.390  13.914  19.760  0.00  0.00    +0.000 N 
ENDBRANCH   2   5
BRANCH   1  20
ATOM     18  C   UNL     1       1.823   9.008  18.406  0.00  0.00    +0.000 C 
ATOM     19  O   UNL     1       1.918   9.669  17.374  0.00  0.00    +0.000 OA
ATOM     20  N   UNL     1       1.063   9.430  19.474  0.00  0.00    +0.000 N 
ATOM     21  H   UNL     1       0.876   8.889  20.314  0.00  0.00    +0.000 HD
BRANCH  18  26
ATOM     22  C   UNL     1       4.854   4.093  19.017  0.00  0.00    +0.000 C 
ATOM     23  C   UNL     1       4.050   5.347  18.842  0.00  0.00    +0.000 A 
ATOM     24  C   UNL     1       4.273   6.207  17.762  0.00  0.00    +0.000 A 
ATOM     25  C   UNL     1       3.527   7.380  17.628  0.00  0.00    +0.000 A 
ATOM     26  C   UNL     1       2.549   7.714  18.574  0.00  0.00    +0.000 A 
ATOM     27  C   UNL     1       2.320   6.843  19.649  0.00  0.00    +0.000 A 
ATOM     28  C   UNL     1       3.067   5.670  19.780  0.00  0.00    +0.000 A 
ENDBRANCH  18  26
ENDBRANCH   1  20
TORSDOF 3
ENDMDL
