MODEL 1
REMARK VINA RESULT:      -7.7      0.000      0.000
REMARK  Name = 
REMARK  1 active torsions:
REMARK  status: ('A' for Active; 'I' for Inactive)
REMARK    1  A    between atoms: C_6  and  C_7
REMARK                            x       y       z     vdW  Elec       q    Type
REMARK                         _______ _______ _______ _____ _____    ______ ____
ROOT
ATOM      1  C   UNL     1       4.645   4.602  17.200  0.00  0.00    +0.000 A 
ATOM      2  C   UNL     1       4.879   5.380  18.334  0.00  0.00    +0.000 A 
ATOM      3  N   UNL     1       4.122   5.380  19.460  0.00  0.00    +0.000 NA
ATOM      4  C   UNL     1       3.048   4.578  19.491  0.00  0.00    +0.000 A 
ATOM      5  C   UNL     1       2.245   4.552  20.623  0.00  0.00    +0.000 A 
ATOM      6  C   UNL     1       1.108   3.744  20.697  0.00  0.00    +0.000 A 
ATOM      7  C   UNL     1       0.758   2.937  19.619  0.00  0.00    +0.000 A 
ATOM      8  C   UNL     1       1.551   2.939  18.475  0.00  0.00    +0.000 A 
ATOM      9  C   UNL     1       2.695   3.753  18.405  0.00  0.00    +0.000 A 
ATOM     10  C   UNL     1       3.517   3.773  17.268  0.00  0.00    +0.000 A 
ENDROOT
BRANCH   1  16
ATOM     11 BR   UNL     1       5.482   3.144  12.109  0.00  0.00    +0.000 Br
ATOM     12  C   UNL     1       6.002   4.035  13.694  0.00  0.00    +0.000 A 
ATOM     13  C   UNL     1       7.217   4.709  13.740  0.00  0.00    +0.000 A 
ATOM     14  C   UNL     1       7.594   5.356  14.912  0.00  0.00    +0.000 A 
ATOM     15  C   UNL     1       6.760   5.318  16.034  0.00  0.00    +0.000 A 
ATOM     16  C   UNL     1       5.524   4.644  16.011  0.00  0.00    +0.000 A 
ATOM     17  C   UNL     1       5.161   4.007  14.809  0.00  0.00    +0.000 A 
ENDBRANCH   1  16
TORSDOF 1
ENDMDL
MODEL 2
REMARK VINA RESULT:      -7.5      2.510      6.340
REMARK  Name = 
REMARK  1 active torsions:
REMARK  status: ('A' for Active; 'I' for Inactive)
REMARK    1  A    between atoms: C_6  and  C_7
REMARK                            x       y       z     vdW  Elec       q    Type
REMARK                         _______ _______ _______ _____ _____    ______ ____
ROOT
ATOM      1  C   UNL     1       5.068   4.890  16.456  0.00  0.00    +0.000 A 
ATOM      2  C   UNL     1       6.246   5.636  16.479  0.00  0.00    +0.000 A 
ATOM      3  N   UNL     1       7.144   5.724  15.466  0.00  0.00    +0.000 NA
ATOM      4  C   UNL     1       6.896   5.027  14.348  0.00  0.00    +0.000 A 
ATOM      5  C   UNL     1       7.792   5.085  13.290  0.00  0.00    +0.000 A 
ATOM      6  C   UNL     1       7.583   4.365  12.111  0.00  0.00    +0.000 A 
ATOM      7  C   UNL     1       6.453   3.566  11.977  0.00  0.00    +0.000 A 
ATOM      8  C   UNL     1       5.535   3.495  13.021  0.00  0.00    +0.000 A 
ATOM      9  C   UNL     1       5.748   4.223  14.204  0.00  0.00    +0.000 A 
ATOM     10  C   UNL     1       4.838   4.176  15.272  0.00  0.00    +0.000 A 
ENDROOT
BRANCH   1  16
ATOM     11 BR   UNL     1       0.921   2.484  18.854  0.00  0.00    +0.000 Br
ATOM     12  C   UNL     1       2.243   3.832  18.770  0.00  0.00    +0.000 A 
ATOM     13  C   UNL     1       2.311   4.795  19.771  0.00  0.00    +0.000 A 
ATOM     14  C   UNL     1       3.283   5.787  19.698  0.00  0.00    +0.000 A 
ATOM     15  C   UNL     1       4.175   5.818  18.621  0.00  0.00    +0.000 A 
ATOM     16  C   UNL     1       4.127   4.853  17.596  0.00  0.00    +0.000 A 
ATOM     17  C   UNL     1       3.141   3.853  17.701  0.00  0.00    +0.000 A 
ENDBRANCH   1  16
TORSDOF 1
ENDMDL
MODEL 3
REMARK VINA RESULT:      -7.5      1.327      1.819
REMARK  Name = 
REMARK  1 active torsions:
REMARK  status: ('A' for Active; 'I' for Inactive)
REMARK    1  A    between atoms: C_6  and  C_7
REMARK                            x       y       z     vdW  Elec       q    Type
REMARK                         _______ _______ _______ _____ _____    ______ ____
ROOT
ATOM      1  C   UNL     1       4.018   3.886  17.273  0.00  0.00    +0.000 A 
ATOM      2  C   UNL     1       2.681   3.832  16.878  0.00  0.00    +0.000 A 
ATOM      3  N   UNL     1       1.628   3.562  17.690  0.00  0.00    +0.000 NA
ATOM      4  C   UNL     1       1.885   3.310  18.982  0.00  0.00    +0.000 A 
ATOM      5  C   UNL     1       0.835   3.024  19.845  0.00  0.00    +0.000 A 
ATOM      6  C   UNL     1       1.054   2.742  21.196  0.00  0.00    +0.000 A 
ATOM      7  C   UNL     1       2.348   2.744  21.705  0.00  0.00    +0.000 A 
ATOM      8  C   UNL     1       3.417   3.034  20.862  0.00  0.00    +0.000 A 
ATOM      9  C   UNL     1       3.193   3.320  19.504  0.00  0.00    +0.000 A 
ATOM     10  C   UNL     1       4.249   3.621  18.630  0.00  0.00    +0.000 A 
ENDROOT
BRANCH   1  16
ATOM     11 BR   UNL     1       6.043   3.428  12.331  0.00  0.00    +0.000 Br
ATOM     12  C   UNL     1       6.125   4.052  14.113  0.00  0.00    +0.000 A 
ATOM     13  C   UNL     1       7.226   4.788  14.537  0.00  0.00    +0.000 A 
ATOM     14  C   UNL     1       7.281   5.238  15.852  0.00  0.00    +0.000 A 
ATOM     15  C   UNL     1       6.241   4.942  16.738  0.00  0.00    +0.000 A 
ATOM     16  C   UNL     1       5.114   4.201  16.333  0.00  0.00    +0.000 A 
ATOM     17  C   UNL     1       5.079   3.767  14.993  0.00  0.00    +0.000 A 
ENDBRANCH   1  16
TORSDOF 1
ENDMDL
MODEL 4
REMARK VINA RESULT:      -7.3      2.954      6.499
REMARK  Name = 
REMARK  1 active torsions:
REMARK  status: ('A' for Active; 'I' for Inactive)
REMARK    1  A    between atoms: C_6  and  C_7
REMARK                            x       y       z     vdW  Elec       q    Type
REMARK                         _______ _______ _______ _____ _____    ______ ____
ROOT
ATOM      1  C   UNL     1       5.327   4.877  16.645  0.00  0.00    +0.000 A 
ATOM      2  C   UNL     1       6.499   5.628  16.572  0.00  0.00    +0.000 A 
ATOM      3  N   UNL     1       7.311   5.721  15.489  0.00  0.00    +0.000 NA
ATOM      4  C   UNL     1       6.975   5.023  14.395  0.00  0.00    +0.000 A 
ATOM      5  C   UNL     1       7.782   5.087  13.267  0.00  0.00    +0.000 A 
ATOM      6  C   UNL     1       7.479   4.367  12.108  0.00  0.00    +0.000 A 
ATOM      7  C   UNL     1       6.346   3.564  12.065  0.00  0.00    +0.000 A 
ATOM      8  C   UNL     1       5.516   3.488  13.181  0.00  0.00    +0.000 A 
ATOM      9  C   UNL     1       5.822   4.215  14.344  0.00  0.00    +0.000 A 
ATOM     10  C   UNL     1       5.003   4.164  15.482  0.00  0.00    +0.000 A 
ENDROOT
BRANCH   1  16
ATOM     11 BR   UNL     1       2.005   7.459  19.967  0.00  0.00    +0.000 Br
ATOM     12  C   UNL     1       2.960   5.918  19.433  0.00  0.00    +0.000 A 
ATOM     13  C   UNL     1       2.880   4.758  20.194  0.00  0.00    +0.000 A 
ATOM     14  C   UNL     1       3.592   3.631  19.797  0.00  0.00    +0.000 A 
ATOM     15  C   UNL     1       4.387   3.672  18.647  0.00  0.00    +0.000 A 
ATOM     16  C   UNL     1       4.482   4.835  17.858  0.00  0.00    +0.000 A 
ATOM     17  C   UNL     1       3.743   5.958  18.276  0.00  0.00    +0.000 A 
ENDBRANCH   1  16
TORSDOF 1
ENDMDL
MODEL 5
REMARK VINA RESULT:      -7.2      4.634      6.983
REMARK  Name = 
REMARK  1 active torsions:
REMARK  status: ('A' for Active; 'I' for Inactive)
REMARK    1  A    between atoms: C_6  and  C_7
REMARK                            x       y       z     vdW  Elec       q    Type
REMARK                         _______ _______ _______ _____ _____    ______ ____
ROOT
ATOM      1  C   UNL     1       2.675   7.127  18.463  0.00  0.00    +0.000 A 
ATOM      2  C   UNL     1       2.448   5.817  18.881  0.00  0.00    +0.000 A 
ATOM      3  N   UNL     1       3.094   4.717  18.419  0.00  0.00    +0.000 NA
ATOM      4  C   UNL     1       4.022   4.892  17.468  0.00  0.00    +0.000 A 
ATOM      5  C   UNL     1       4.704   3.792  16.964  0.00  0.00    +0.000 A 
ATOM      6  C   UNL     1       5.669   3.924  15.963  0.00  0.00    +0.000 A 
ATOM      7  C   UNL     1       5.969   5.180  15.448  0.00  0.00    +0.000 A 
ATOM      8  C   UNL     1       5.306   6.300  15.941  0.00  0.00    +0.000 A 
ATOM      9  C   UNL     1       4.336   6.165  16.949  0.00  0.00    +0.000 A 
ATOM     10  C   UNL     1       3.654   7.274  17.470  0.00  0.00    +0.000 A 
ENDROOT
BRANCH   1  16
ATOM     11 BR   UNL     1       0.248   9.355  22.692  0.00  0.00    +0.000 Br
ATOM     12  C   UNL     1       0.811   9.386  20.888  0.00  0.00    +0.000 A 
ATOM     13  C   UNL     1       0.513  10.485  20.091  0.00  0.00    +0.000 A 
ATOM     14  C   UNL     1       0.926  10.497  18.762  0.00  0.00    +0.000 A 
ATOM     15  C   UNL     1       1.624   9.406  18.235  0.00  0.00    +0.000 A 
ATOM     16  C   UNL     1       1.940   8.282  19.023  0.00  0.00    +0.000 A 
ATOM     17  C   UNL     1       1.520   8.301  20.367  0.00  0.00    +0.000 A 
ENDBRANCH   1  16
TORSDOF 1
ENDMDL
MODEL 6
REMARK VINA RESULT:      -7.2      4.423      5.456
REMARK  Name = 
REMARK  1 active torsions:
REMARK  status: ('A' for Active; 'I' for Inactive)
REMARK    1  A    between atoms: C_6  and  C_7
REMARK                            x       y       z     vdW  Elec       q    Type
REMARK                         _______ _______ _______ _____ _____    ______ ____
ROOT
ATOM      1  C   UNL     1       2.220   7.781  18.723  0.00  0.00    +0.000 A 
ATOM      2  C   UNL     1       1.817   8.921  18.027  0.00  0.00    +0.000 A 
ATOM      3  N   UNL     1       1.137   9.969  18.556  0.00  0.00    +0.000 NA
ATOM      4  C   UNL     1       0.806   9.908  19.853  0.00  0.00    +0.000 A 
ATOM      5  C   UNL     1       0.105  10.958  20.431  0.00  0.00    +0.000 A 
ATOM      6  C   UNL     1      -0.274  10.934  21.776  0.00  0.00    +0.000 A 
ATOM      7  C   UNL     1       0.051   9.840  22.570  0.00  0.00    +0.000 A 
ATOM      8  C   UNL     1       0.760   8.777  22.016  0.00  0.00    +0.000 A 
ATOM      9  C   UNL     1       1.141   8.805  20.663  0.00  0.00    +0.000 A 
ATOM     10  C   UNL     1       1.860   7.753  20.078  0.00  0.00    +0.000 A 
ENDROOT
BRANCH   1  16
ATOM     11 BR   UNL     1       2.628   2.532  17.715  0.00  0.00    +0.000 Br
ATOM     12  C   UNL     1       3.253   4.309  17.566  0.00  0.00    +0.000 A 
ATOM     13  C   UNL     1       4.428   4.573  16.872  0.00  0.00    +0.000 A 
ATOM     14  C   UNL     1       4.884   5.883  16.773  0.00  0.00    +0.000 A 
ATOM     15  C   UNL     1       4.168   6.922  17.377  0.00  0.00    +0.000 A 
ATOM     16  C   UNL     1       2.973   6.681  18.083  0.00  0.00    +0.000 A 
ATOM     17  C   UNL     1       2.528   5.347  18.158  0.00  0.00    +0.000 A 
ENDBRANCH   1  16
TORSDOF 1
ENDMDL
MODEL 7
REMARK VINA RESULT:      -7.1      2.781      6.559
REMARK  Name = 
REMARK  1 active torsions:
REMARK  status: ('A' for Active; 'I' for Inactive)
REMARK    1  A    between atoms: C_6  and  C_7
REMARK                            x       y       z     vdW  Elec       q    Type
REMARK                         _______ _______ _______ _____ _____    ______ ____
ROOT
ATOM      1  C   UNL     1       5.112   4.177  16.494  0.00  0.00    +0.000 A 
ATOM      2  C   UNL     1       6.131   5.099  16.730  0.00  0.00    +0.000 A 
ATOM      3  N   UNL     1       7.031   5.534  15.813  0.00  0.00    +0.000 NA
ATOM      4  C   UNL     1       6.952   5.029  14.574  0.00  0.00    +0.000 A 
ATOM      5  C   UNL     1       7.858   5.444  13.606  0.00  0.00    +0.000 A 
ATOM      6  C   UNL     1       7.824   4.936  12.305  0.00  0.00    +0.000 A 
ATOM      7  C   UNL     1       6.866   3.992  11.952  0.00  0.00    +0.000 A 
ATOM      8  C   UNL     1       5.942   3.564  12.902  0.00  0.00    +0.000 A 
ATOM      9  C   UNL     1       5.977   4.079  14.209  0.00  0.00    +0.000 A 
ATOM     10  C   UNL     1       5.057   3.672  15.187  0.00  0.00    +0.000 A 
ENDROOT
BRANCH   1  16
ATOM     11 BR   UNL     1       1.890   5.595  20.537  0.00  0.00    +0.000 Br
ATOM     12  C   UNL     1       2.660   4.298  19.398  0.00  0.00    +0.000 A 
ATOM     13  C   UNL     1       2.340   2.956  19.564  0.00  0.00    +0.000 A 
ATOM     14  C   UNL     1       2.917   2.008  18.725  0.00  0.00    +0.000 A 
ATOM     15  C   UNL     1       3.818   2.405  17.732  0.00  0.00    +0.000 A 
ATOM     16  C   UNL     1       4.156   3.760  17.542  0.00  0.00    +0.000 A 
ATOM     17  C   UNL     1       3.549   4.699  18.397  0.00  0.00    +0.000 A 
ENDBRANCH   1  16
TORSDOF 1
ENDMDL
MODEL 8
REMARK VINA RESULT:      -7.1      4.007      5.200
REMARK  Name = 
REMARK  1 active torsions:
REMARK  status: ('A' for Active; 'I' for Inactive)
REMARK    1  A    between atoms: C_6  and  C_7
REMARK                            x       y       z     vdW  Elec       q    Type
REMARK                         _______ _______ _______ _____ _____    ______ ____
ROOT
ATOM      1  C   UNL     1       2.468   7.176  18.590  0.00  0.00    +0.000 A 
ATOM      2  C   UNL     1       2.186   8.271  17.774  0.00  0.00    +0.000 A 
ATOM      3  N   UNL     1       1.579   9.417  18.174  0.00  0.00    +0.000 NA
ATOM      4  C   UNL     1       1.200   9.509  19.457  0.00  0.00    +0.000 A 
ATOM      5  C   UNL     1       0.571  10.662  19.905  0.00  0.00    +0.000 A 
ATOM      6  C   UNL     1       0.146  10.799  21.229  0.00  0.00    +0.000 A 
ATOM      7  C   UNL     1       0.352   9.763  22.134  0.00  0.00    +0.000 A 
ATOM      8  C   UNL     1       0.987   8.598  21.712  0.00  0.00    +0.000 A 
ATOM      9  C   UNL     1       1.415   8.466  20.380  0.00  0.00    +0.000 A 
ATOM     10  C   UNL     1       2.062   7.307  19.925  0.00  0.00    +0.000 A 
ENDROOT
BRANCH   1  16
ATOM     11 BR   UNL     1       7.039   4.818  17.078  0.00  0.00    +0.000 Br
ATOM     12  C   UNL     1       5.173   4.795  17.376  0.00  0.00    +0.000 A 
ATOM     13  C   UNL     1       4.444   3.643  17.103  0.00  0.00    +0.000 A 
ATOM     14  C   UNL     1       3.070   3.637  17.319  0.00  0.00    +0.000 A 
ATOM     15  C   UNL     1       2.430   4.784  17.799  0.00  0.00    +0.000 A 
ATOM     16  C   UNL     1       3.147   5.963  18.086  0.00  0.00    +0.000 A 
ATOM     17  C   UNL     1       4.538   5.938  17.869  0.00  0.00    +0.000 A 
ENDBRANCH   1  16
TORSDOF 1
ENDMDL
MODEL 9
REMARK VINA RESULT:      -7.1      1.086      1.209
REMARK  Name = 
REMARK  1 active torsions:
REMARK  status: ('A' for Active; 'I' for Inactive)
REMARK    1  A    between atoms: C_6  and  C_7
REMARK                            x       y       z     vdW  Elec       q    Type
REMARK                         _______ _______ _______ _____ _____    ______ ____
ROOT
ATOM      1  C   UNL     1       4.436   4.679  17.367  0.00  0.00    +0.000 A 
ATOM      2  C   UNL     1       3.491   5.681  17.581  0.00  0.00    +0.000 A 
ATOM      3  N   UNL     1       2.599   5.720  18.603  0.00  0.00    +0.000 NA
ATOM      4  C   UNL     1       2.608   4.704  19.479  0.00  0.00    +0.000 A 
ATOM      5  C   UNL     1       1.708   4.703  20.536  0.00  0.00    +0.000 A 
ATOM      6  C   UNL     1       1.671   3.660  21.465  0.00  0.00    +0.000 A 
ATOM      7  C   UNL     1       2.551   2.591  21.345  0.00  0.00    +0.000 A 
ATOM      8  C   UNL     1       3.469   2.572  20.298  0.00  0.00    +0.000 A 
ATOM      9  C   UNL     1       3.504   3.623  19.366  0.00  0.00    +0.000 A 
ATOM     10  C   UNL     1       4.420   3.636  18.303  0.00  0.00    +0.000 A 
ENDROOT
BRANCH   1  16
ATOM     11 BR   UNL     1       5.541   3.289  12.308  0.00  0.00    +0.000 Br
ATOM     12  C   UNL     1       5.991   4.129  13.941  0.00  0.00    +0.000 A 
ATOM     13  C   UNL     1       7.223   4.757  14.077  0.00  0.00    +0.000 A 
ATOM     14  C   UNL     1       7.549   5.367  15.284  0.00  0.00    +0.000 A 
ATOM     15  C   UNL     1       6.645   5.338  16.351  0.00  0.00    +0.000 A 
ATOM     16  C   UNL     1       5.389   4.711  16.236  0.00  0.00    +0.000 A 
ATOM     17  C   UNL     1       5.080   4.111  15.000  0.00  0.00    +0.000 A 
ENDBRANCH   1  16
TORSDOF 1
ENDMDL
