MODEL 1
REMARK VINA RESULT:      -7.5      0.000      0.000
REMARK  Name = 
REMARK  8 active torsions:
REMARK  status: ('A' for Active; 'I' for Inactive)
REMARK    1  A    between atoms: C_1  and  O_2
REMARK    2  A    between atoms: O_2  and  C_3
REMARK    3  A    between atoms: C_3  and  C_4
REMARK    4  A    between atoms: C_10  and  C_11
REMARK    5  A    between atoms: C_19  and  C_21
REMARK    6  A    between atoms: C_24  and  O_25
REMARK    7  A    between atoms: O_25  and  C_26
REMARK    8  A    between atoms: C_28  and  C_29
REMARK                            x       y       z     vdW  Elec       q    Type
REMARK                         _______ _______ _______ _____ _____    ______ ____
ROOT
ATOM      1  C   UNL     1       0.971  10.092  20.218  0.00  0.00    +0.000 A 
ATOM      2  N   UNL     1       0.282   9.650  21.261  0.00  0.00    +0.000 NA
ATOM      3  N   UNL     1       0.472   8.301  21.378  0.00  0.00    +0.000 NA
ATOM      4  C   UNL     1       1.253   7.930  20.389  0.00  0.00    +0.000 A 
ATOM      5  N   UNL     1       1.415   8.995  19.530  0.00  0.00    +0.000 N 
ATOM      6  C   UNL     1       1.974   8.825  18.206  0.00  0.00    +0.000 C 
ATOM      7  C   UNL     1       2.271   7.346  17.872  0.00  0.00    +0.000 C 
ATOM      8  N   UNL     1       2.821   6.658  19.045  0.00  0.00    +0.000 N 
ATOM      9  C   UNL     1       3.976   5.871  19.143  0.00  0.00    +0.000 C 
ATOM     10  O   UNL     1       4.265   5.293  20.192  0.00  0.00    +0.000 OA
ATOM     11  C   UNL     1       1.887   6.605  20.180  0.00  0.00    +0.000 C 
ENDROOT
BRANCH   1  18
ATOM     12  C   UNL     1      -1.524  13.493  21.689  0.00  0.00    +0.000 C 
ATOM     13  O   UNL     1      -2.582  14.041  21.373  0.00  0.00    +0.000 OA
ATOM     14  N   UNL     1      -0.628  13.001  20.736  0.00  0.00    +0.000 N 
ATOM     15  C   UNL     1      -0.821  13.441  19.352  0.00  0.00    +0.000 C 
ATOM     16  C   UNL     1      -0.349  12.400  18.348  0.00  0.00    +0.000 C 
ATOM     17  C   UNL     1       1.098  12.007  18.617  0.00  0.00    +0.000 C 
ATOM     18  C   UNL     1       1.316  11.550  20.070  0.00  0.00    +0.000 C 
ATOM     19  C   UNL     1       0.716  12.523  21.082  0.00  0.00    +0.000 C 
BRANCH  12  20
ATOM     20  C   UNL     1      -1.184  13.290  23.176  0.00  0.00    +0.000 C 
BRANCH  20  22
ATOM     21  C   UNL     1      -1.740  14.984  24.719  0.00  0.00    +0.000 C 
ATOM     22  O   UNL     1      -0.729  14.432  23.885  0.00  0.00    +0.000 OA
ENDBRANCH  20  22
ENDBRANCH  12  20
ENDBRANCH   1  18
BRANCH   9  23
ATOM     23  C   UNL     1       4.900   5.670  17.984  0.00  0.00    +0.000 A 
ATOM     24  C   UNL     1       6.081   6.417  17.879  0.00  0.00    +0.000 A 
ATOM     25  C   UNL     1       6.926   6.264  16.773  0.00  0.00    +0.000 A 
ATOM     26  C   UNL     1       6.661   5.298  15.804  0.00  0.00    +0.000 A 
ATOM     27  C   UNL     1       5.542   4.485  15.952  0.00  0.00    +0.000 A 
ATOM     28  C   UNL     1       4.641   4.666  17.021  0.00  0.00    +0.000 A 
ATOM     29  C   UNL     1       3.479   3.710  17.104  0.00  0.00    +0.000 C 
BRANCH  26  30
ATOM     30  O   UNL     1       7.560   5.235  14.775  0.00  0.00    +0.000 OA
ATOM     31  C   UNL     1       7.057   4.796  13.518  0.00  0.00    +0.000 C 
ENDBRANCH  26  30
ENDBRANCH   9  23
TORSDOF 5
ENDMDL
MODEL 2
REMARK VINA RESULT:      -7.1      1.152      1.728
REMARK  Name = 
REMARK  8 active torsions:
REMARK  status: ('A' for Active; 'I' for Inactive)
REMARK    1  A    between atoms: C_1  and  O_2
REMARK    2  A    between atoms: O_2  and  C_3
REMARK    3  A    between atoms: C_3  and  C_4
REMARK    4  A    between atoms: C_10  and  C_11
REMARK    5  A    between atoms: C_19  and  C_21
REMARK    6  A    between atoms: C_24  and  O_25
REMARK    7  A    between atoms: O_25  and  C_26
REMARK    8  A    between atoms: C_28  and  C_29
REMARK                            x       y       z     vdW  Elec       q    Type
REMARK                         _______ _______ _______ _____ _____    ______ ____
ROOT
ATOM      1  C   UNL     1       1.184   9.093  20.012  0.00  0.00    +0.000 A 
ATOM      2  N   UNL     1       0.883   8.727  21.250  0.00  0.00    +0.000 NA
ATOM      3  N   UNL     1       1.401   7.484  21.482  0.00  0.00    +0.000 NA
ATOM      4  C   UNL     1       1.988   7.093  20.375  0.00  0.00    +0.000 A 
ATOM      5  N   UNL     1       1.692   7.993  19.375  0.00  0.00    +0.000 N 
ATOM      6  C   UNL     1       1.944   7.694  17.982  0.00  0.00    +0.000 C 
ATOM      7  C   UNL     1       2.487   6.262  17.771  0.00  0.00    +0.000 C 
ATOM      8  N   UNL     1       3.442   5.916  18.830  0.00  0.00    +0.000 N 
ATOM      9  C   UNL     1       4.737   5.394  18.711  0.00  0.00    +0.000 C 
ATOM     10  O   UNL     1       5.392   5.084  19.706  0.00  0.00    +0.000 OA
ATOM     11  C   UNL     1       2.842   5.896  20.173  0.00  0.00    +0.000 C 
ENDROOT
BRANCH   1  18
ATOM     12  C   UNL     1      -1.685  12.143  21.569  0.00  0.00    +0.000 C 
ATOM     13  O   UNL     1      -2.884  12.402  21.447  0.00  0.00    +0.000 OA
ATOM     14  N   UNL     1      -0.914  11.672  20.504  0.00  0.00    +0.000 N 
ATOM     15  C   UNL     1      -1.484  11.803  19.161  0.00  0.00    +0.000 C 
ATOM     16  C   UNL     1      -0.996  10.709  18.222  0.00  0.00    +0.000 C 
ATOM     17  C   UNL     1       0.526  10.668  18.185  0.00  0.00    +0.000 C 
ATOM     18  C   UNL     1       1.138  10.538  19.590  0.00  0.00    +0.000 C 
ATOM     19  C   UNL     1       0.547  11.542  20.578  0.00  0.00    +0.000 C 
BRANCH  12  20
ATOM     20  C   UNL     1      -1.010  12.289  22.944  0.00  0.00    +0.000 C 
BRANCH  20  22
ATOM     21  C   UNL     1      -1.269  14.457  23.834  0.00  0.00    +0.000 C 
ATOM     22  O   UNL     1      -0.383  13.533  23.216  0.00  0.00    +0.000 OA
ENDBRANCH  20  22
ENDBRANCH  12  20
ENDBRANCH   1  18
BRANCH   9  23
ATOM     23  C   UNL     1       5.380   5.164  17.380  0.00  0.00    +0.000 A 
ATOM     24  C   UNL     1       5.001   4.073  16.587  0.00  0.00    +0.000 A 
ATOM     25  C   UNL     1       5.632   3.828  15.360  0.00  0.00    +0.000 A 
ATOM     26  C   UNL     1       6.580   4.718  14.859  0.00  0.00    +0.000 A 
ATOM     27  C   UNL     1       6.891   5.858  15.596  0.00  0.00    +0.000 A 
ATOM     28  C   UNL     1       6.318   6.088  16.863  0.00  0.00    +0.000 A 
ATOM     29  C   UNL     1       6.699   7.368  17.561  0.00  0.00    +0.000 C 
BRANCH  26  30
ATOM     30  O   UNL     1       7.122   4.381  13.649  0.00  0.00    +0.000 OA
ATOM     31  C   UNL     1       6.282   3.653  12.758  0.00  0.00    +0.000 C 
ENDBRANCH  26  30
ENDBRANCH   9  23
TORSDOF 5
ENDMDL
MODEL 3
REMARK VINA RESULT:      -6.8      1.305      1.519
REMARK  Name = 
REMARK  8 active torsions:
REMARK  status: ('A' for Active; 'I' for Inactive)
REMARK    1  A    between atoms: C_1  and  O_2
REMARK    2  A    between atoms: O_2  and  C_3
REMARK    3  A    between atoms: C_3  and  C_4
REMARK    4  A    between atoms: C_10  and  C_11
REMARK    5  A    between atoms: C_19  and  C_21
REMARK    6  A    between atoms: C_24  and  O_25
REMARK    7  A    between atoms: O_25  and  C_26
REMARK    8  A    between atoms: C_28  and  C_29
REMARK                            x       y       z     vdW  Elec       q    Type
REMARK                         _______ _______ _______ _____ _____    ______ ____
ROOT
ATOM      1  C   UNL     1       1.064   9.323  19.724  0.00  0.00    +0.000 A 
ATOM      2  N   UNL     1       0.840   9.121  21.015  0.00  0.00    +0.000 NA
ATOM      3  N   UNL     1       1.411   7.935  21.383  0.00  0.00    +0.000 NA
ATOM      4  C   UNL     1       1.954   7.412  20.308  0.00  0.00    +0.000 A 
ATOM      5  N   UNL     1       1.576   8.160  19.214  0.00  0.00    +0.000 N 
ATOM      6  C   UNL     1       1.767   7.680  17.863  0.00  0.00    +0.000 C 
ATOM      7  C   UNL     1       2.345   6.247  17.817  0.00  0.00    +0.000 C 
ATOM      8  N   UNL     1       3.365   6.075  18.857  0.00  0.00    +0.000 N 
ATOM      9  C   UNL     1       4.669   5.576  18.737  0.00  0.00    +0.000 C 
ATOM     10  O   UNL     1       5.385   5.422  19.728  0.00  0.00    +0.000 OA
ATOM     11  C   UNL     1       2.837   6.222  20.222  0.00  0.00    +0.000 C 
ENDROOT
BRANCH   1  18
ATOM     12  C   UNL     1      -1.620  12.576  21.195  0.00  0.00    +0.000 C 
ATOM     13  O   UNL     1      -2.828  12.822  21.191  0.00  0.00    +0.000 OA
ATOM     14  N   UNL     1      -0.985  11.957  20.116  0.00  0.00    +0.000 N 
ATOM     15  C   UNL     1      -1.722  11.902  18.852  0.00  0.00    +0.000 C 
ATOM     16  C   UNL     1      -1.344  10.685  18.020  0.00  0.00    +0.000 C 
ATOM     17  C   UNL     1       0.161  10.630  17.795  0.00  0.00    +0.000 C 
ATOM     18  C   UNL     1       0.949  10.694  19.115  0.00  0.00    +0.000 C 
ATOM     19  C   UNL     1       0.475  11.830  20.020  0.00  0.00    +0.000 C 
BRANCH  12  20
ATOM     20  C   UNL     1      -0.778  12.909  22.439  0.00  0.00    +0.000 C 
BRANCH  20  22
ATOM     21  C   UNL     1      -1.411  10.750  23.144  0.00  0.00    +0.000 C 
ATOM     22  O   UNL     1      -0.519  11.841  23.336  0.00  0.00    +0.000 OA
ENDBRANCH  20  22
ENDBRANCH  12  20
ENDBRANCH   1  18
BRANCH   9  23
ATOM     23  C   UNL     1       5.250   5.183  17.416  0.00  0.00    +0.000 A 
ATOM     24  C   UNL     1       6.211   5.991  16.794  0.00  0.00    +0.000 A 
ATOM     25  C   UNL     1       6.725   5.649  15.537  0.00  0.00    +0.000 A 
ATOM     26  C   UNL     1       6.364   4.452  14.922  0.00  0.00    +0.000 A 
ATOM     27  C   UNL     1       5.484   3.596  15.579  0.00  0.00    +0.000 A 
ATOM     28  C   UNL     1       4.903   3.951  16.813  0.00  0.00    +0.000 A 
ATOM     29  C   UNL     1       3.989   2.938  17.453  0.00  0.00    +0.000 C 
BRANCH  26  30
ATOM     30  O   UNL     1       6.935   4.222  13.701  0.00  0.00    +0.000 OA
ATOM     31  C   UNL     1       6.137   3.527  12.748  0.00  0.00    +0.000 C 
ENDBRANCH  26  30
ENDBRANCH   9  23
TORSDOF 5
ENDMDL
MODEL 4
REMARK VINA RESULT:      -6.6      1.239      1.385
REMARK  Name = 
REMARK  8 active torsions:
REMARK  status: ('A' for Active; 'I' for Inactive)
REMARK    1  A    between atoms: C_1  and  O_2
REMARK    2  A    between atoms: O_2  and  C_3
REMARK    3  A    between atoms: C_3  and  C_4
REMARK    4  A    between atoms: C_10  and  C_11
REMARK    5  A    between atoms: C_19  and  C_21
REMARK    6  A    between atoms: C_24  and  O_25
REMARK    7  A    between atoms: O_25  and  C_26
REMARK    8  A    between atoms: C_28  and  C_29
REMARK                            x       y       z     vdW  Elec       q    Type
REMARK                         _______ _______ _______ _____ _____    ______ ____
ROOT
ATOM      1  C   UNL     1       1.147  11.208  20.201  0.00  0.00    +0.000 A 
ATOM      2  N   UNL     1       0.570  11.000  21.376  0.00  0.00    +0.000 NA
ATOM      3  N   UNL     1       0.539   9.656  21.623  0.00  0.00    +0.000 NA
ATOM      4  C   UNL     1       1.072   9.057  20.583  0.00  0.00    +0.000 A 
ATOM      5  N   UNL     1       1.275   9.990  19.590  0.00  0.00    +0.000 N 
ATOM      6  C   UNL     1       1.573   9.600  18.229  0.00  0.00    +0.000 C 
ATOM      7  C   UNL     1       1.550   8.067  18.032  0.00  0.00    +0.000 C 
ATOM      8  N   UNL     1       2.154   7.394  19.187  0.00  0.00    +0.000 N 
ATOM      9  C   UNL     1       3.155   6.413  19.210  0.00  0.00    +0.000 C 
ATOM     10  O   UNL     1       3.506   5.887  20.267  0.00  0.00    +0.000 OA
ATOM     11  C   UNL     1       1.422   7.621  20.443  0.00  0.00    +0.000 C 
ENDROOT
BRANCH   1  18
ATOM     12  C   UNL     1      -0.541  15.144  21.472  0.00  0.00    +0.000 C 
ATOM     13  O   UNL     1      -1.522  15.838  21.197  0.00  0.00    +0.000 OA
ATOM     14  N   UNL     1       0.136  14.398  20.504  0.00  0.00    +0.000 N 
ATOM     15  C   UNL     1      -0.148  14.715  19.102  0.00  0.00    +0.000 C 
ATOM     16  C   UNL     1       0.017  13.503  18.196  0.00  0.00    +0.000 C 
ATOM     17  C   UNL     1       1.399  12.885  18.365  0.00  0.00    +0.000 C 
ATOM     18  C   UNL     1       1.712  12.555  19.834  0.00  0.00    +0.000 C 
ATOM     19  C   UNL     1       1.412  13.724  20.770  0.00  0.00    +0.000 C 
BRANCH  12  20
ATOM     20  C   UNL     1      -0.062  15.044  22.930  0.00  0.00    +0.000 C 
BRANCH  20  22
ATOM     21  C   UNL     1      -1.418  13.167  23.371  0.00  0.00    +0.000 C 
ATOM     22  O   UNL     1      -0.945  14.420  23.849  0.00  0.00    +0.000 OA
ENDBRANCH  20  22
ENDBRANCH  12  20
ENDBRANCH   1  18
BRANCH   9  23
ATOM     23  C   UNL     1       3.829   5.938  17.962  0.00  0.00    +0.000 A 
ATOM     24  C   UNL     1       4.803   6.726  17.336  0.00  0.00    +0.000 A 
ATOM     25  C   UNL     1       5.405   6.305  16.144  0.00  0.00    +0.000 A 
ATOM     26  C   UNL     1       5.118   5.051  15.607  0.00  0.00    +0.000 A 
ATOM     27  C   UNL     1       4.223   4.220  16.276  0.00  0.00    +0.000 A 
ATOM     28  C   UNL     1       3.556   4.651  17.441  0.00  0.00    +0.000 A 
ATOM     29  C   UNL     1       2.633   3.661  18.104  0.00  0.00    +0.000 C 
BRANCH  26  30
ATOM     30  O   UNL     1       5.771   4.745  14.446  0.00  0.00    +0.000 OA
ATOM     31  C   UNL     1       7.189   4.884  14.458  0.00  0.00    +0.000 C 
ENDBRANCH  26  30
ENDBRANCH   9  23
TORSDOF 5
ENDMDL
MODEL 5
REMARK VINA RESULT:      -6.4      0.567      1.182
REMARK  Name = 
REMARK  8 active torsions:
REMARK  status: ('A' for Active; 'I' for Inactive)
REMARK    1  A    between atoms: C_1  and  O_2
REMARK    2  A    between atoms: O_2  and  C_3
REMARK    3  A    between atoms: C_3  and  C_4
REMARK    4  A    between atoms: C_10  and  C_11
REMARK    5  A    between atoms: C_19  and  C_21
REMARK    6  A    between atoms: C_24  and  O_25
REMARK    7  A    between atoms: O_25  and  C_26
REMARK    8  A    between atoms: C_28  and  C_29
REMARK                            x       y       z     vdW  Elec       q    Type
REMARK                         _______ _______ _______ _____ _____    ______ ____
ROOT
ATOM      1  C   UNL     1       0.996   9.969  20.238  0.00  0.00    +0.000 A 
ATOM      2  N   UNL     1       0.319   9.495  21.274  0.00  0.00    +0.000 NA
ATOM      3  N   UNL     1       0.543   8.151  21.371  0.00  0.00    +0.000 NA
ATOM      4  C   UNL     1       1.332   7.813  20.378  0.00  0.00    +0.000 A 
ATOM      5  N   UNL     1       1.468   8.894  19.534  0.00  0.00    +0.000 N 
ATOM      6  C   UNL     1       2.031   8.757  18.209  0.00  0.00    +0.000 C 
ATOM      7  C   UNL     1       2.365   7.291  17.853  0.00  0.00    +0.000 C 
ATOM      8  N   UNL     1       2.931   6.600  19.016  0.00  0.00    +0.000 N 
ATOM      9  C   UNL     1       4.106   5.840  19.103  0.00  0.00    +0.000 C 
ATOM     10  O   UNL     1       4.410   5.256  20.144  0.00  0.00    +0.000 OA
ATOM     11  C   UNL     1       1.999   6.507  20.150  0.00  0.00    +0.000 C 
ENDROOT
BRANCH   1  18
ATOM     12  C   UNL     1      -1.619  13.287  21.689  0.00  0.00    +0.000 C 
ATOM     13  O   UNL     1      -2.685  13.810  21.357  0.00  0.00    +0.000 OA
ATOM     14  N   UNL     1      -0.691  12.829  20.751  0.00  0.00    +0.000 N 
ATOM     15  C   UNL     1      -0.868  13.278  19.368  0.00  0.00    +0.000 C 
ATOM     16  C   UNL     1      -0.347  12.260  18.364  0.00  0.00    +0.000 C 
ATOM     17  C   UNL     1       1.105  11.903  18.658  0.00  0.00    +0.000 C 
ATOM     18  C   UNL     1       1.305  11.437  20.111  0.00  0.00    +0.000 C 
ATOM     19  C   UNL     1       0.658  12.384  21.120  0.00  0.00    +0.000 C 
BRANCH  12  20
ATOM     20  C   UNL     1      -1.304  13.079  23.181  0.00  0.00    +0.000 C 
BRANCH  20  22
ATOM     21  C   UNL     1      -1.832  14.884  24.603  0.00  0.00    +0.000 C 
ATOM     22  O   UNL     1      -0.807  14.204  23.889  0.00  0.00    +0.000 OA
ENDBRANCH  20  22
ENDBRANCH  12  20
ENDBRANCH   1  18
BRANCH   9  23
ATOM     23  C   UNL     1       5.035   5.680  17.942  0.00  0.00    +0.000 A 
ATOM     24  C   UNL     1       4.540   5.671  16.631  0.00  0.00    +0.000 A 
ATOM     25  C   UNL     1       5.400   5.477  15.544  0.00  0.00    +0.000 A 
ATOM     26  C   UNL     1       6.778   5.385  15.735  0.00  0.00    +0.000 A 
ATOM     27  C   UNL     1       7.287   5.491  17.026  0.00  0.00    +0.000 A 
ATOM     28  C   UNL     1       6.434   5.620  18.141  0.00  0.00    +0.000 A 
ATOM     29  C   UNL     1       7.092   5.759  19.490  0.00  0.00    +0.000 C 
BRANCH  26  30
ATOM     30  O   UNL     1       7.518   5.205  14.599  0.00  0.00    +0.000 OA
ATOM     31  C   UNL     1       6.886   4.503  13.534  0.00  0.00    +0.000 C 
ENDBRANCH  26  30
ENDBRANCH   9  23
TORSDOF 5
ENDMDL
MODEL 6
REMARK VINA RESULT:      -6.4      2.028     10.091
REMARK  Name = 
REMARK  8 active torsions:
REMARK  status: ('A' for Active; 'I' for Inactive)
REMARK    1  A    between atoms: C_1  and  O_2
REMARK    2  A    between atoms: O_2  and  C_3
REMARK    3  A    between atoms: C_3  and  C_4
REMARK    4  A    between atoms: C_10  and  C_11
REMARK    5  A    between atoms: C_19  and  C_21
REMARK    6  A    between atoms: C_24  and  O_25
REMARK    7  A    between atoms: O_25  and  C_26
REMARK    8  A    between atoms: C_28  and  C_29
REMARK                            x       y       z     vdW  Elec       q    Type
REMARK                         _______ _______ _______ _____ _____    ______ ____
ROOT
ATOM      1  C   UNL     1       2.289   7.613  19.059  0.00  0.00    +0.000 A 
ATOM      2  N   UNL     1       2.918   7.874  17.922  0.00  0.00    +0.000 NA
ATOM      3  N   UNL     1       2.478   9.074  17.438  0.00  0.00    +0.000 NA
ATOM      4  C   UNL     1       1.565   9.519  18.270  0.00  0.00    +0.000 A 
ATOM      5  N   UNL     1       1.280   8.530  19.185  0.00  0.00    +0.000 N 
ATOM      6  C   UNL     1       0.119   8.602  20.045  0.00  0.00    +0.000 C 
ATOM      7  C   UNL     1      -0.762   9.838  19.754  0.00  0.00    +0.000 C 
ATOM      8  N   UNL     1       0.078  11.009  19.476  0.00  0.00    +0.000 N 
ATOM      9  C   UNL     1       0.015  12.290  20.039  0.00  0.00    +0.000 C 
ATOM     10  O   UNL     1       0.749  13.196  19.643  0.00  0.00    +0.000 OA
ATOM     11  C   UNL     1       0.916  10.854  18.277  0.00  0.00    +0.000 C 
ENDROOT
BRANCH   1  18
ATOM     12  C   UNL     1       4.470   3.868  17.982  0.00  0.00    +0.000 C 
ATOM     13  O   UNL     1       4.194   2.766  17.502  0.00  0.00    +0.000 OA
ATOM     14  N   UNL     1       3.613   4.532  18.862  0.00  0.00    +0.000 N 
ATOM     15  C   UNL     1       2.529   3.744  19.454  0.00  0.00    +0.000 C 
ATOM     16  C   UNL     1       1.308   4.597  19.771  0.00  0.00    +0.000 C 
ATOM     17  C   UNL     1       1.690   5.781  20.651  0.00  0.00    +0.000 C 
ATOM     18  C   UNL     1       2.833   6.612  20.043  0.00  0.00    +0.000 C 
ATOM     19  C   UNL     1       4.005   5.744  19.590  0.00  0.00    +0.000 C 
BRANCH  12  20
ATOM     20  C   UNL     1       5.775   4.572  17.571  0.00  0.00    +0.000 C 
BRANCH  20  22
ATOM     21  C   UNL     1       7.644   5.592  18.585  0.00  0.00    +0.000 C 
ATOM     22  O   UNL     1       6.891   4.395  18.431  0.00  0.00    +0.000 OA
ENDBRANCH  20  22
ENDBRANCH  12  20
ENDBRANCH   1  18
BRANCH   9  23
ATOM     23  C   UNL     1      -0.954  12.633  21.126  0.00  0.00    +0.000 A 
ATOM     24  C   UNL     1      -0.499  12.918  22.420  0.00  0.00    +0.000 A 
ATOM     25  C   UNL     1      -1.405  13.196  23.451  0.00  0.00    +0.000 A 
ATOM     26  C   UNL     1      -2.771  13.289  23.191  0.00  0.00    +0.000 A 
ATOM     27  C   UNL     1      -3.223  13.104  21.887  0.00  0.00    +0.000 A 
ATOM     28  C   UNL     1      -2.335  12.758  20.848  0.00  0.00    +0.000 A 
ATOM     29  C   UNL     1      -2.924  12.612  19.468  0.00  0.00    +0.000 C 
BRANCH  26  30
ATOM     30  O   UNL     1      -3.558  13.573  24.272  0.00  0.00    +0.000 OA
ATOM     31  C   UNL     1      -4.345  12.502  24.783  0.00  0.00    +0.000 C 
ENDBRANCH  26  30
ENDBRANCH   9  23
TORSDOF 5
ENDMDL
MODEL 7
REMARK VINA RESULT:      -6.3      2.090     10.013
REMARK  Name = 
REMARK  8 active torsions:
REMARK  status: ('A' for Active; 'I' for Inactive)
REMARK    1  A    between atoms: C_1  and  O_2
REMARK    2  A    between atoms: O_2  and  C_3
REMARK    3  A    between atoms: C_3  and  C_4
REMARK    4  A    between atoms: C_10  and  C_11
REMARK    5  A    between atoms: C_19  and  C_21
REMARK    6  A    between atoms: C_24  and  O_25
REMARK    7  A    between atoms: O_25  and  C_26
REMARK    8  A    between atoms: C_28  and  C_29
REMARK                            x       y       z     vdW  Elec       q    Type
REMARK                         _______ _______ _______ _____ _____    ______ ____
ROOT
ATOM      1  C   UNL     1       2.454   7.611  18.530  0.00  0.00    +0.000 A 
ATOM      2  N   UNL     1       3.279   8.101  17.615  0.00  0.00    +0.000 NA
ATOM      3  N   UNL     1       2.998   9.425  17.430  0.00  0.00    +0.000 NA
ATOM      4  C   UNL     1       1.986   9.723  18.213  0.00  0.00    +0.000 A 
ATOM      5  N   UNL     1       1.494   8.559  18.762  0.00  0.00    +0.000 N 
ATOM      6  C   UNL     1       0.212   8.516  19.430  0.00  0.00    +0.000 C 
ATOM      7  C   UNL     1      -0.533   9.869  19.374  0.00  0.00    +0.000 C 
ATOM      8  N   UNL     1       0.408  10.978  19.562  0.00  0.00    +0.000 N 
ATOM      9  C   UNL     1       0.328  12.061  20.448  0.00  0.00    +0.000 C 
ATOM     10  O   UNL     1       1.170  12.960  20.432  0.00  0.00    +0.000 OA
ATOM     11  C   UNL     1       1.425  11.066  18.502  0.00  0.00    +0.000 C 
ENDROOT
BRANCH   1  18
ATOM     12  C   UNL     1       5.354   4.503  17.157  0.00  0.00    +0.000 C 
ATOM     13  O   UNL     1       5.405   3.639  16.279  0.00  0.00    +0.000 OA
ATOM     14  N   UNL     1       4.170   4.807  17.832  0.00  0.00    +0.000 N 
ATOM     15  C   UNL     1       3.066   3.853  17.702  0.00  0.00    +0.000 C 
ATOM     16  C   UNL     1       1.707   4.529  17.816  0.00  0.00    +0.000 C 
ATOM     17  C   UNL     1       1.609   5.330  19.107  0.00  0.00    +0.000 C 
ATOM     18  C   UNL     1       2.767   6.332  19.260  0.00  0.00    +0.000 C 
ATOM     19  C   UNL     1       4.129   5.689  19.005  0.00  0.00    +0.000 C 
BRANCH  12  20
ATOM     20  C   UNL     1       6.613   5.317  17.499  0.00  0.00    +0.000 C 
BRANCH  20  22
ATOM     21  C   UNL     1       7.898   5.646  19.448  0.00  0.00    +0.000 C 
ATOM     22  O   UNL     1       7.516   4.734  18.426  0.00  0.00    +0.000 OA
ENDBRANCH  20  22
ENDBRANCH  12  20
ENDBRANCH   1  18
BRANCH   9  23
ATOM     23  C   UNL     1      -0.787  12.197  21.435  0.00  0.00    +0.000 A 
ATOM     24  C   UNL     1      -1.793  13.153  21.245  0.00  0.00    +0.000 A 
ATOM     25  C   UNL     1      -2.815  13.313  22.189  0.00  0.00    +0.000 A 
ATOM     26  C   UNL     1      -2.906  12.461  23.289  0.00  0.00    +0.000 A 
ATOM     27  C   UNL     1      -1.966  11.445  23.434  0.00  0.00    +0.000 A 
ATOM     28  C   UNL     1      -0.892  11.308  22.531  0.00  0.00    +0.000 A 
ATOM     29  C   UNL     1       0.050  10.155  22.763  0.00  0.00    +0.000 C 
BRANCH  26  30
ATOM     30  O   UNL     1      -3.949  12.707  24.138  0.00  0.00    +0.000 OA
ATOM     31  C   UNL     1      -4.723  13.873  23.873  0.00  0.00    +0.000 C 
ENDBRANCH  26  30
ENDBRANCH   9  23
TORSDOF 5
ENDMDL
MODEL 8
REMARK VINA RESULT:      -6.3      2.856      3.640
REMARK  Name = 
REMARK  8 active torsions:
REMARK  status: ('A' for Active; 'I' for Inactive)
REMARK    1  A    between atoms: C_1  and  O_2
REMARK    2  A    between atoms: O_2  and  C_3
REMARK    3  A    between atoms: C_3  and  C_4
REMARK    4  A    between atoms: C_10  and  C_11
REMARK    5  A    between atoms: C_19  and  C_21
REMARK    6  A    between atoms: C_24  and  O_25
REMARK    7  A    between atoms: O_25  and  C_26
REMARK    8  A    between atoms: C_28  and  C_29
REMARK                            x       y       z     vdW  Elec       q    Type
REMARK                         _______ _______ _______ _____ _____    ______ ____
ROOT
ATOM      1  C   UNL     1       1.564  12.528  19.551  0.00  0.00    +0.000 A 
ATOM      2  N   UNL     1       0.730  12.674  20.571  0.00  0.00    +0.000 NA
ATOM      3  N   UNL     1       0.282  11.442  20.956  0.00  0.00    +0.000 NA
ATOM      4  C   UNL     1       0.825  10.559  20.150  0.00  0.00    +0.000 A 
ATOM      5  N   UNL     1       1.471  11.227  19.133  0.00  0.00    +0.000 N 
ATOM      6  C   UNL     1       1.915  10.545  17.937  0.00  0.00    +0.000 C 
ATOM      7  C   UNL     1       1.510   9.054  17.918  0.00  0.00    +0.000 C 
ATOM      8  N   UNL     1       1.663   8.467  19.254  0.00  0.00    +0.000 N 
ATOM      9  C   UNL     1       2.329   7.292  19.628  0.00  0.00    +0.000 C 
ATOM     10  O   UNL     1       2.303   6.889  20.792  0.00  0.00    +0.000 OA
ATOM     11  C   UNL     1       0.787   9.080  20.264  0.00  0.00    +0.000 C 
ENDROOT
BRANCH   1  18
ATOM     12  C   UNL     1       3.812  15.083  22.444  0.00  0.00    +0.000 C 
ATOM     13  O   UNL     1       3.563  16.016  23.210  0.00  0.00    +0.000 OA
ATOM     14  N   UNL     1       3.196  14.961  21.196  0.00  0.00    +0.000 N 
ATOM     15  C   UNL     1       2.492  16.138  20.684  0.00  0.00    +0.000 C 
ATOM     16  C   UNL     1       1.327  15.761  19.780  0.00  0.00    +0.000 C 
ATOM     17  C   UNL     1       1.791  14.849  18.652  0.00  0.00    +0.000 C 
ATOM     18  C   UNL     1       2.540  13.612  19.176  0.00  0.00    +0.000 C 
ATOM     19  C   UNL     1       3.618  13.972  20.195  0.00  0.00    +0.000 C 
BRANCH  12  20
ATOM     20  C   UNL     1       4.794  13.981  22.878  0.00  0.00    +0.000 C 
BRANCH  20  22
ATOM     21  C   UNL     1       5.984  12.839  24.563  0.00  0.00    +0.000 C 
ATOM     22  O   UNL     1       5.034  13.857  24.272  0.00  0.00    +0.000 OA
ENDBRANCH  20  22
ENDBRANCH  12  20
ENDBRANCH   1  18
BRANCH   9  23
ATOM     23  C   UNL     1       3.081   6.457  18.640  0.00  0.00    +0.000 A 
ATOM     24  C   UNL     1       4.273   6.927  18.074  0.00  0.00    +0.000 A 
ATOM     25  C   UNL     1       4.957   6.168  17.117  0.00  0.00    +0.000 A 
ATOM     26  C   UNL     1       4.518   4.889  16.778  0.00  0.00    +0.000 A 
ATOM     27  C   UNL     1       3.388   4.375  17.408  0.00  0.00    +0.000 A 
ATOM     28  C   UNL     1       2.647   5.148  18.326  0.00  0.00    +0.000 A 
ATOM     29  C   UNL     1       1.460   4.484  18.974  0.00  0.00    +0.000 C 
BRANCH  26  30
ATOM     30  O   UNL     1       5.269   4.239  15.838  0.00  0.00    +0.000 OA
ATOM     31  C   UNL     1       5.621   4.987  14.678  0.00  0.00    +0.000 C 
ENDBRANCH  26  30
ENDBRANCH   9  23
TORSDOF 5
ENDMDL
MODEL 9
REMARK VINA RESULT:      -6.3      1.755      2.384
REMARK  Name = 
REMARK  8 active torsions:
REMARK  status: ('A' for Active; 'I' for Inactive)
REMARK    1  A    between atoms: C_1  and  O_2
REMARK    2  A    between atoms: O_2  and  C_3
REMARK    3  A    between atoms: C_3  and  C_4
REMARK    4  A    between atoms: C_10  and  C_11
REMARK    5  A    between atoms: C_19  and  C_21
REMARK    6  A    between atoms: C_24  and  O_25
REMARK    7  A    between atoms: O_25  and  C_26
REMARK    8  A    between atoms: C_28  and  C_29
REMARK                            x       y       z     vdW  Elec       q    Type
REMARK                         _______ _______ _______ _____ _____    ______ ____
ROOT
ATOM      1  C   UNL     1       1.021   9.680  19.373  0.00  0.00    +0.000 A 
ATOM      2  N   UNL     1       0.830   9.614  20.683  0.00  0.00    +0.000 NA
ATOM      3  N   UNL     1       1.395   8.462  21.154  0.00  0.00    +0.000 NA
ATOM      4  C   UNL     1       1.901   7.825  20.124  0.00  0.00    +0.000 A 
ATOM      5  N   UNL     1       1.504   8.464  18.970  0.00  0.00    +0.000 N 
ATOM      6  C   UNL     1       1.651   7.847  17.670  0.00  0.00    +0.000 C 
ATOM      7  C   UNL     1       2.209   6.408  17.755  0.00  0.00    +0.000 C 
ATOM      8  N   UNL     1       3.254   6.325  18.780  0.00  0.00    +0.000 N 
ATOM      9  C   UNL     1       4.548   5.796  18.679  0.00  0.00    +0.000 C 
ATOM     10  O   UNL     1       5.288   5.731  19.661  0.00  0.00    +0.000 OA
ATOM     11  C   UNL     1       2.765   6.618  20.136  0.00  0.00    +0.000 C 
ENDROOT
BRANCH   1  18
ATOM     12  C   UNL     1       1.553  13.728  21.184  0.00  0.00    +0.000 C 
ATOM     13  O   UNL     1       0.922  14.471  21.939  0.00  0.00    +0.000 OA
ATOM     14  N   UNL     1       0.920  12.927  20.231  0.00  0.00    +0.000 N 
ATOM     15  C   UNL     1      -0.481  13.232  19.930  0.00  0.00    +0.000 C 
ATOM     16  C   UNL     1      -1.257  11.995  19.499  0.00  0.00    +0.000 C 
ATOM     17  C   UNL     1      -0.567  11.304  18.330  0.00  0.00    +0.000 C 
ATOM     18  C   UNL     1       0.907  10.985  18.631  0.00  0.00    +0.000 C 
ATOM     19  C   UNL     1       1.658  12.187  19.199  0.00  0.00    +0.000 C 
BRANCH  12  20
ATOM     20  C   UNL     1       3.082  13.631  21.314  0.00  0.00    +0.000 C 
BRANCH  20  22
ATOM     21  C   UNL     1       4.516  14.948  19.984  0.00  0.00    +0.000 C 
ATOM     22  O   UNL     1       3.809  14.846  21.213  0.00  0.00    +0.000 OA
ENDBRANCH  20  22
ENDBRANCH  12  20
ENDBRANCH   1  18
BRANCH   9  23
ATOM     23  C   UNL     1       5.087   5.262  17.390  0.00  0.00    +0.000 A 
ATOM     24  C   UNL     1       5.986   6.020  16.627  0.00  0.00    +0.000 A 
ATOM     25  C   UNL     1       6.459   5.543  15.398  0.00  0.00    +0.000 A 
ATOM     26  C   UNL     1       6.123   4.266  14.954  0.00  0.00    +0.000 A 
ATOM     27  C   UNL     1       5.308   3.468  15.753  0.00  0.00    +0.000 A 
ATOM     28  C   UNL     1       4.767   3.953  16.961  0.00  0.00    +0.000 A 
ATOM     29  C   UNL     1       3.925   2.995  17.764  0.00  0.00    +0.000 C 
BRANCH  26  30
ATOM     30  O   UNL     1       6.650   3.906  13.745  0.00  0.00    +0.000 OA
ATOM     31  C   UNL     1       5.722   3.505  12.742  0.00  0.00    +0.000 C 
ENDBRANCH  26  30
ENDBRANCH   9  23
TORSDOF 5
ENDMDL
