MODEL 1
REMARK VINA RESULT:      -8.1      0.000      0.000
REMARK  Name = 
REMARK  8 active torsions:
REMARK  status: ('A' for Active; 'I' for Inactive)
REMARK    1  A    between atoms: C_1  and  C_2
REMARK    2  A    between atoms: C_4  and  S_5
REMARK    3  A    between atoms: S_5  and  C_6
REMARK    4  A    between atoms: C_6  and  C_7
REMARK    5  A    between atoms: C_7  and  C_9
REMARK    6  A    between atoms: N_15  and  N_16
REMARK    7  A    between atoms: N_16  and  C_17
REMARK    8  A    between atoms: C_23  and  C_24
REMARK                            x       y       z     vdW  Elec       q    Type
REMARK                         _______ _______ _______ _____ _____    ______ ____
ROOT
ATOM      1  C   UNL     1       2.567   1.796  18.173  0.00  0.00    +0.000 C 
ATOM      2  C   UNL     1       3.010   3.167  18.519  0.00  0.00    +0.000 A 
ATOM      3  N   UNL     1       4.208   3.673  18.072  0.00  0.00    +0.000 NA
ATOM      4  C   UNL     1       4.299   4.869  18.615  0.00  0.00    +0.000 A 
ATOM      5  N   UNL     1       3.214   5.156  19.432  0.00  0.00    +0.000 N 
ATOM      6  C   UNL     1       2.332   4.101  19.283  0.00  0.00    +0.000 A 
ATOM      7  C   UNL     1       0.977   4.018  19.886  0.00  0.00    +0.000 C 
ENDROOT
BRANCH   5   8
ATOM      8  N   UNL     1       2.989   6.331  20.142  0.00  0.00    +0.000 N 
ATOM      9  H   UNL     1       3.750   6.533  20.779  0.00  0.00    +0.000 HD
BRANCH   8  10
ATOM     10  C   UNL     1       2.286   7.462  19.680  0.00  0.00    +0.000 A 
ATOM     11  C   UNL     1       2.313   7.882  18.344  0.00  0.00    +0.000 A 
ATOM     12  C   UNL     1       1.642   9.041  17.939  0.00  0.00    +0.000 A 
ATOM     13  C   UNL     1       0.891   9.769  18.856  0.00  0.00    +0.000 A 
ATOM     14  C   UNL     1       0.801   9.332  20.174  0.00  0.00    +0.000 A 
ATOM     15  C   UNL     1       1.489   8.184  20.580  0.00  0.00    +0.000 A 
ENDBRANCH   8  10
ENDBRANCH   5   8
BRANCH   4  16
ATOM     16  S   UNL     1       5.599   6.000  18.350  0.00  0.00    +0.000 S 
BRANCH  16  17
ATOM     17  C   UNL     1       5.725   5.989  16.532  0.00  0.00    +0.000 C 
BRANCH  17  18
ATOM     18  C   UNL     1       6.838   5.073  16.017  0.00  0.00    +0.000 C 
ATOM     19  O   UNL     1       7.728   4.608  16.725  0.00  0.00    +0.000 OA
BRANCH  18  20
ATOM     20  C   UNL     1       6.853   4.733  14.547  0.00  0.00    +0.000 A 
ATOM     21  C   UNL     1       7.729   5.356  13.645  0.00  0.00    +0.000 A 
ATOM     22  C   UNL     1       7.714   5.008  12.289  0.00  0.00    +0.000 A 
ATOM     23  C   UNL     1       6.828   4.039  11.819  0.00  0.00    +0.000 A 
ATOM     24  C   UNL     1       5.955   3.411  12.704  0.00  0.00    +0.000 A 
ATOM     25  C   UNL     1       5.971   3.754  14.061  0.00  0.00    +0.000 A 
ENDBRANCH  18  20
ENDBRANCH  17  18
ENDBRANCH  16  17
ENDBRANCH   4  16
TORSDOF 6
ENDMDL
MODEL 2
REMARK VINA RESULT:      -8.1      1.102      1.594
REMARK  Name = 
REMARK  8 active torsions:
REMARK  status: ('A' for Active; 'I' for Inactive)
REMARK    1  A    between atoms: C_1  and  C_2
REMARK    2  A    between atoms: C_4  and  S_5
REMARK    3  A    between atoms: S_5  and  C_6
REMARK    4  A    between atoms: C_6  and  C_7
REMARK    5  A    between atoms: C_7  and  C_9
REMARK    6  A    between atoms: N_15  and  N_16
REMARK    7  A    between atoms: N_16  and  C_17
REMARK    8  A    between atoms: C_23  and  C_24
REMARK                            x       y       z     vdW  Elec       q    Type
REMARK                         _______ _______ _______ _____ _____    ______ ____
ROOT
ATOM      1  C   UNL     1       2.623   1.676  19.148  0.00  0.00    +0.000 C 
ATOM      2  C   UNL     1       3.275   2.975  18.854  0.00  0.00    +0.000 A 
ATOM      3  N   UNL     1       4.599   3.202  19.148  0.00  0.00    +0.000 NA
ATOM      4  C   UNL     1       4.813   4.458  18.815  0.00  0.00    +0.000 A 
ATOM      5  N   UNL     1       3.665   5.076  18.340  0.00  0.00    +0.000 N 
ATOM      6  C   UNL     1       2.700   4.088  18.264  0.00  0.00    +0.000 A 
ATOM      7  C   UNL     1       1.333   4.258  17.708  0.00  0.00    +0.000 C 
ENDROOT
BRANCH   5   8
ATOM      8  N   UNL     1       3.545   6.387  17.892  0.00  0.00    +0.000 N 
ATOM      9  H   UNL     1       3.675   6.451  16.889  0.00  0.00    +0.000 HD
BRANCH   8  10
ATOM     10  C   UNL     1       2.722   7.387  18.448  0.00  0.00    +0.000 A 
ATOM     11  C   UNL     1       2.302   8.514  17.730  0.00  0.00    +0.000 A 
ATOM     12  C   UNL     1       1.526   9.508  18.337  0.00  0.00    +0.000 A 
ATOM     13  C   UNL     1       1.115   9.362  19.658  0.00  0.00    +0.000 A 
ATOM     14  C   UNL     1       1.471   8.219  20.368  0.00  0.00    +0.000 A 
ATOM     15  C   UNL     1       2.262   7.237  19.764  0.00  0.00    +0.000 A 
ENDBRANCH   8  10
ENDBRANCH   5   8
BRANCH   4  16
ATOM     16  S   UNL     1       6.346   5.280  18.921  0.00  0.00    +0.000 S 
BRANCH  16  17
ATOM     17  C   UNL     1       7.129   4.795  17.348  0.00  0.00    +0.000 C 
BRANCH  17  18
ATOM     18  C   UNL     1       6.656   5.639  16.162  0.00  0.00    +0.000 C 
ATOM     19  O   UNL     1       6.276   6.804  16.256  0.00  0.00    +0.000 OA
BRANCH  18  20
ATOM     20  C   UNL     1       6.641   4.998  14.796  0.00  0.00    +0.000 A 
ATOM     21  C   UNL     1       5.741   3.975  14.462  0.00  0.00    +0.000 A 
ATOM     22  C   UNL     1       5.757   3.409  13.180  0.00  0.00    +0.000 A 
ATOM     23  C   UNL     1       6.667   3.856  12.223  0.00  0.00    +0.000 A 
ATOM     24  C   UNL     1       7.564   4.873  12.542  0.00  0.00    +0.000 A 
ATOM     25  C   UNL     1       7.548   5.443  13.821  0.00  0.00    +0.000 A 
ENDBRANCH  18  20
ENDBRANCH  17  18
ENDBRANCH  16  17
ENDBRANCH   4  16
TORSDOF 6
ENDMDL
MODEL 3
REMARK VINA RESULT:      -8.1      1.107      1.796
REMARK  Name = 
REMARK  8 active torsions:
REMARK  status: ('A' for Active; 'I' for Inactive)
REMARK    1  A    between atoms: C_1  and  C_2
REMARK    2  A    between atoms: C_4  and  S_5
REMARK    3  A    between atoms: S_5  and  C_6
REMARK    4  A    between atoms: C_6  and  C_7
REMARK    5  A    between atoms: C_7  and  C_9
REMARK    6  A    between atoms: N_15  and  N_16
REMARK    7  A    between atoms: N_16  and  C_17
REMARK    8  A    between atoms: C_23  and  C_24
REMARK                            x       y       z     vdW  Elec       q    Type
REMARK                         _______ _______ _______ _____ _____    ______ ____
ROOT
ATOM      1  C   UNL     1       2.446   1.748  18.562  0.00  0.00    +0.000 C 
ATOM      2  C   UNL     1       3.153   3.043  18.423  0.00  0.00    +0.000 A 
ATOM      3  N   UNL     1       4.489   3.174  18.725  0.00  0.00    +0.000 NA
ATOM      4  C   UNL     1       4.757   4.451  18.548  0.00  0.00    +0.000 A 
ATOM      5  N   UNL     1       3.634   5.174  18.169  0.00  0.00    +0.000 N 
ATOM      6  C   UNL     1       2.625   4.245  17.984  0.00  0.00    +0.000 A 
ATOM      7  C   UNL     1       1.263   4.544  17.472  0.00  0.00    +0.000 C 
ENDROOT
BRANCH   5   8
ATOM      8  N   UNL     1       3.571   6.534  17.888  0.00  0.00    +0.000 N 
ATOM      9  H   UNL     1       3.794   6.725  16.919  0.00  0.00    +0.000 HD
BRANCH   8  10
ATOM     10  C   UNL     1       2.709   7.471  18.495  0.00  0.00    +0.000 A 
ATOM     11  C   UNL     1       2.312   7.383  19.835  0.00  0.00    +0.000 A 
ATOM     12  C   UNL     1       1.414   8.307  20.382  0.00  0.00    +0.000 A 
ATOM     13  C   UNL     1       0.942   9.363  19.610  0.00  0.00    +0.000 A 
ATOM     14  C   UNL     1       1.375   9.502  18.295  0.00  0.00    +0.000 A 
ATOM     15  C   UNL     1       2.257   8.566  17.745  0.00  0.00    +0.000 A 
ENDBRANCH   8  10
ENDBRANCH   5   8
BRANCH   4  16
ATOM     16  S   UNL     1       6.327   5.185  18.735  0.00  0.00    +0.000 S 
BRANCH  16  17
ATOM     17  C   UNL     1       7.111   4.778  17.141  0.00  0.00    +0.000 C 
BRANCH  17  18
ATOM     18  C   UNL     1       6.511   5.556  15.966  0.00  0.00    +0.000 C 
ATOM     19  O   UNL     1       5.969   6.653  16.074  0.00  0.00    +0.000 OA
BRANCH  18  20
ATOM     20  C   UNL     1       6.576   4.931  14.595  0.00  0.00    +0.000 A 
ATOM     21  C   UNL     1       5.660   3.954  14.175  0.00  0.00    +0.000 A 
ATOM     22  C   UNL     1       5.754   3.402  12.891  0.00  0.00    +0.000 A 
ATOM     23  C   UNL     1       6.757   3.816  12.016  0.00  0.00    +0.000 A 
ATOM     24  C   UNL     1       7.671   4.786  12.420  0.00  0.00    +0.000 A 
ATOM     25  C   UNL     1       7.578   5.343  13.701  0.00  0.00    +0.000 A 
ENDBRANCH  18  20
ENDBRANCH  17  18
ENDBRANCH  16  17
ENDBRANCH   4  16
TORSDOF 6
ENDMDL
MODEL 4
REMARK VINA RESULT:      -7.9      0.319      1.030
REMARK  Name = 
REMARK  8 active torsions:
REMARK  status: ('A' for Active; 'I' for Inactive)
REMARK    1  A    between atoms: C_1  and  C_2
REMARK    2  A    between atoms: C_4  and  S_5
REMARK    3  A    between atoms: S_5  and  C_6
REMARK    4  A    between atoms: C_6  and  C_7
REMARK    5  A    between atoms: C_7  and  C_9
REMARK    6  A    between atoms: N_15  and  N_16
REMARK    7  A    between atoms: N_16  and  C_17
REMARK    8  A    between atoms: C_23  and  C_24
REMARK                            x       y       z     vdW  Elec       q    Type
REMARK                         _______ _______ _______ _____ _____    ______ ____
ROOT
ATOM      1  C   UNL     1       2.086   1.973  18.122  0.00  0.00    +0.000 C 
ATOM      2  C   UNL     1       2.619   3.316  18.453  0.00  0.00    +0.000 A 
ATOM      3  N   UNL     1       3.780   3.792  17.889  0.00  0.00    +0.000 NA
ATOM      4  C   UNL     1       3.977   4.966  18.451  0.00  0.00    +0.000 A 
ATOM      5  N   UNL     1       3.000   5.268  19.390  0.00  0.00    +0.000 N 
ATOM      6  C   UNL     1       2.067   4.251  19.311  0.00  0.00    +0.000 A 
ATOM      7  C   UNL     1       0.783   4.199  20.059  0.00  0.00    +0.000 C 
ENDROOT
BRANCH   5   8
ATOM      8  N   UNL     1       2.902   6.427  20.151  0.00  0.00    +0.000 N 
ATOM      9  H   UNL     1       3.757   6.612  20.662  0.00  0.00    +0.000 HD
BRANCH   8  10
ATOM     10  C   UNL     1       2.143   7.572  19.832  0.00  0.00    +0.000 A 
ATOM     11  C   UNL     1       1.323   8.225  20.762  0.00  0.00    +0.000 A 
ATOM     12  C   UNL     1       0.548   9.328  20.388  0.00  0.00    +0.000 A 
ATOM     13  C   UNL     1       0.622   9.827  19.092  0.00  0.00    +0.000 A 
ATOM     14  C   UNL     1       1.479   9.230  18.172  0.00  0.00    +0.000 A 
ATOM     15  C   UNL     1       2.238   8.115  18.543  0.00  0.00    +0.000 A 
ENDBRANCH   8  10
ENDBRANCH   5   8
BRANCH   4  16
ATOM     16  S   UNL     1       5.285   6.056  18.073  0.00  0.00    +0.000 S 
BRANCH  16  17
ATOM     17  C   UNL     1       5.410   5.861  16.266  0.00  0.00    +0.000 C 
BRANCH  17  18
ATOM     18  C   UNL     1       6.612   5.015  15.839  0.00  0.00    +0.000 C 
ATOM     19  O   UNL     1       7.480   4.615  16.612  0.00  0.00    +0.000 OA
BRANCH  18  20
ATOM     20  C   UNL     1       6.749   4.662  14.379  0.00  0.00    +0.000 A 
ATOM     21  C   UNL     1       7.692   5.283  13.545  0.00  0.00    +0.000 A 
ATOM     22  C   UNL     1       7.788   4.923  12.195  0.00  0.00    +0.000 A 
ATOM     23  C   UNL     1       6.949   3.944  11.664  0.00  0.00    +0.000 A 
ATOM     24  C   UNL     1       6.011   3.319  12.481  0.00  0.00    +0.000 A 
ATOM     25  C   UNL     1       5.914   3.673  13.832  0.00  0.00    +0.000 A 
ENDBRANCH  18  20
ENDBRANCH  17  18
ENDBRANCH  16  17
ENDBRANCH   4  16
TORSDOF 6
ENDMDL
MODEL 5
REMARK VINA RESULT:      -7.9      0.629      1.168
REMARK  Name = 
REMARK  8 active torsions:
REMARK  status: ('A' for Active; 'I' for Inactive)
REMARK    1  A    between atoms: C_1  and  C_2
REMARK    2  A    between atoms: C_4  and  S_5
REMARK    3  A    between atoms: S_5  and  C_6
REMARK    4  A    between atoms: C_6  and  C_7
REMARK    5  A    between atoms: C_7  and  C_9
REMARK    6  A    between atoms: N_15  and  N_16
REMARK    7  A    between atoms: N_16  and  C_17
REMARK    8  A    between atoms: C_23  and  C_24
REMARK                            x       y       z     vdW  Elec       q    Type
REMARK                         _______ _______ _______ _____ _____    ______ ____
ROOT
ATOM      1  C   UNL     1       2.053   1.827  19.088  0.00  0.00    +0.000 C 
ATOM      2  C   UNL     1       2.604   3.203  19.099  0.00  0.00    +0.000 A 
ATOM      3  N   UNL     1       3.714   3.542  18.361  0.00  0.00    +0.000 NA
ATOM      4  C   UNL     1       3.950   4.803  18.657  0.00  0.00    +0.000 A 
ATOM      5  N   UNL     1       3.050   5.299  19.591  0.00  0.00    +0.000 N 
ATOM      6  C   UNL     1       2.118   4.297  19.793  0.00  0.00    +0.000 A 
ATOM      7  C   UNL     1       0.899   4.411  20.636  0.00  0.00    +0.000 C 
ENDROOT
BRANCH   5   8
ATOM      8  N   UNL     1       3.007   6.588  20.110  0.00  0.00    +0.000 N 
ATOM      9  H   UNL     1       3.880   6.838  20.559  0.00  0.00    +0.000 HD
BRANCH   8  10
ATOM     10  C   UNL     1       2.279   7.674  19.584  0.00  0.00    +0.000 A 
ATOM     11  C   UNL     1       2.362   8.067  18.241  0.00  0.00    +0.000 A 
ATOM     12  C   UNL     1       1.660   9.184  17.773  0.00  0.00    +0.000 A 
ATOM     13  C   UNL     1       0.824   9.892  18.630  0.00  0.00    +0.000 A 
ATOM     14  C   UNL     1       0.681   9.479  19.951  0.00  0.00    +0.000 A 
ATOM     15  C   UNL     1       1.399   8.374  20.420  0.00  0.00    +0.000 A 
ENDBRANCH   8  10
ENDBRANCH   5   8
BRANCH   4  16
ATOM     16  S   UNL     1       5.217   5.780  17.966  0.00  0.00    +0.000 S 
BRANCH  16  17
ATOM     17  C   UNL     1       6.031   4.586  16.855  0.00  0.00    +0.000 C 
BRANCH  17  18
ATOM     18  C   UNL     1       6.911   5.259  15.798  0.00  0.00    +0.000 C 
ATOM     19  O   UNL     1       7.671   6.196  16.032  0.00  0.00    +0.000 OA
BRANCH  18  20
ATOM     20  C   UNL     1       6.829   4.751  14.379  0.00  0.00    +0.000 A 
ATOM     21  C   UNL     1       5.936   3.738  13.999  0.00  0.00    +0.000 A 
ATOM     22  C   UNL     1       5.890   3.298  12.670  0.00  0.00    +0.000 A 
ATOM     23  C   UNL     1       6.730   3.862  11.710  0.00  0.00    +0.000 A 
ATOM     24  C   UNL     1       7.619   4.870  12.075  0.00  0.00    +0.000 A 
ATOM     25  C   UNL     1       7.666   5.314  13.401  0.00  0.00    +0.000 A 
ENDBRANCH  18  20
ENDBRANCH  17  18
ENDBRANCH  16  17
ENDBRANCH   4  16
TORSDOF 6
ENDMDL
MODEL 6
REMARK VINA RESULT:      -7.8      1.024      1.229
REMARK  Name = 
REMARK  8 active torsions:
REMARK  status: ('A' for Active; 'I' for Inactive)
REMARK    1  A    between atoms: C_1  and  C_2
REMARK    2  A    between atoms: C_4  and  S_5
REMARK    3  A    between atoms: S_5  and  C_6
REMARK    4  A    between atoms: C_6  and  C_7
REMARK    5  A    between atoms: C_7  and  C_9
REMARK    6  A    between atoms: N_15  and  N_16
REMARK    7  A    between atoms: N_16  and  C_17
REMARK    8  A    between atoms: C_23  and  C_24
REMARK                            x       y       z     vdW  Elec       q    Type
REMARK                         _______ _______ _______ _____ _____    ______ ____
ROOT
ATOM      1  C   UNL     1       4.243   1.844  19.663  0.00  0.00    +0.000 C 
ATOM      2  C   UNL     1       4.317   3.209  19.090  0.00  0.00    +0.000 A 
ATOM      3  N   UNL     1       5.491   3.925  19.075  0.00  0.00    +0.000 NA
ATOM      4  C   UNL     1       5.174   5.093  18.559  0.00  0.00    +0.000 A 
ATOM      5  N   UNL     1       3.821   5.184  18.261  0.00  0.00    +0.000 N 
ATOM      6  C   UNL     1       3.291   3.930  18.503  0.00  0.00    +0.000 A 
ATOM      7  C   UNL     1       1.891   3.517  18.225  0.00  0.00    +0.000 C 
ENDROOT
BRANCH   5   8
ATOM      8  N   UNL     1       3.160   6.268  17.695  0.00  0.00    +0.000 N 
ATOM      9  H   UNL     1       2.777   6.038  16.785  0.00  0.00    +0.000 HD
BRANCH   8  10
ATOM     10  C   UNL     1       2.465   7.277  18.392  0.00  0.00    +0.000 A 
ATOM     11  C   UNL     1       1.934   8.410  17.761  0.00  0.00    +0.000 A 
ATOM     12  C   UNL     1       1.296   9.413  18.500  0.00  0.00    +0.000 A 
ATOM     13  C   UNL     1       1.133   9.272  19.874  0.00  0.00    +0.000 A 
ATOM     14  C   UNL     1       1.599   8.124  20.508  0.00  0.00    +0.000 A 
ATOM     15  C   UNL     1       2.253   7.132  19.770  0.00  0.00    +0.000 A 
ENDBRANCH   8  10
ENDBRANCH   5   8
BRANCH   4  16
ATOM     16  S   UNL     1       6.292   6.394  18.248  0.00  0.00    +0.000 S 
BRANCH  16  17
ATOM     17  C   UNL     1       6.397   6.357  16.429  0.00  0.00    +0.000 C 
BRANCH  17  18
ATOM     18  C   UNL     1       7.121   5.116  15.899  0.00  0.00    +0.000 C 
ATOM     19  O   UNL     1       7.960   4.485  16.538  0.00  0.00    +0.000 OA
BRANCH  18  20
ATOM     20  C   UNL     1       6.797   4.649  14.502  0.00  0.00    +0.000 A 
ATOM     21  C   UNL     1       7.633   4.924  13.410  0.00  0.00    +0.000 A 
ATOM     22  C   UNL     1       7.297   4.468  12.128  0.00  0.00    +0.000 A 
ATOM     23  C   UNL     1       6.128   3.735  11.924  0.00  0.00    +0.000 A 
ATOM     24  C   UNL     1       5.291   3.453  13.001  0.00  0.00    +0.000 A 
ATOM     25  C   UNL     1       5.626   3.905  14.283  0.00  0.00    +0.000 A 
ENDBRANCH  18  20
ENDBRANCH  17  18
ENDBRANCH  16  17
ENDBRANCH   4  16
TORSDOF 6
ENDMDL
MODEL 7
REMARK VINA RESULT:      -7.7      3.378      8.130
REMARK  Name = 
REMARK  8 active torsions:
REMARK  status: ('A' for Active; 'I' for Inactive)
REMARK    1  A    between atoms: C_1  and  C_2
REMARK    2  A    between atoms: C_4  and  S_5
REMARK    3  A    between atoms: S_5  and  C_6
REMARK    4  A    between atoms: C_6  and  C_7
REMARK    5  A    between atoms: C_7  and  C_9
REMARK    6  A    between atoms: N_15  and  N_16
REMARK    7  A    between atoms: N_16  and  C_17
REMARK    8  A    between atoms: C_23  and  C_24
REMARK                            x       y       z     vdW  Elec       q    Type
REMARK                         _______ _______ _______ _____ _____    ______ ____
ROOT
ATOM      1  C   UNL     1       1.519   2.868  21.401  0.00  0.00    +0.000 C 
ATOM      2  C   UNL     1       2.166   3.841  20.490  0.00  0.00    +0.000 A 
ATOM      3  N   UNL     1       1.738   5.145  20.403  0.00  0.00    +0.000 NA
ATOM      4  C   UNL     1       2.487   5.691  19.468  0.00  0.00    +0.000 A 
ATOM      5  N   UNL     1       3.374   4.780  18.911  0.00  0.00    +0.000 N 
ATOM      6  C   UNL     1       3.240   3.616  19.646  0.00  0.00    +0.000 A 
ATOM      7  C   UNL     1       4.068   2.393  19.482  0.00  0.00    +0.000 C 
ENDROOT
BRANCH   5   8
ATOM      8  N   UNL     1       4.312   5.028  17.914  0.00  0.00    +0.000 N 
ATOM      9  H   UNL     1       3.868   5.198  17.019  0.00  0.00    +0.000 HD
BRANCH   8  10
ATOM     10  C   UNL     1       5.563   5.655  18.084  0.00  0.00    +0.000 A 
ATOM     11  C   UNL     1       6.497   5.241  19.042  0.00  0.00    +0.000 A 
ATOM     12  C   UNL     1       7.707   5.925  19.211  0.00  0.00    +0.000 A 
ATOM     13  C   UNL     1       8.022   7.000  18.387  0.00  0.00    +0.000 A 
ATOM     14  C   UNL     1       7.133   7.385  17.388  0.00  0.00    +0.000 A 
ATOM     15  C   UNL     1       5.916   6.712  17.234  0.00  0.00    +0.000 A 
ENDBRANCH   8  10
ENDBRANCH   5   8
BRANCH   4  16
ATOM     16  S   UNL     1       2.419   7.360  18.970  0.00  0.00    +0.000 S 
BRANCH  16  17
ATOM     17  C   UNL     1       1.549   8.124  20.378  0.00  0.00    +0.000 C 
BRANCH  17  18
ATOM     18  C   UNL     1       1.004   9.518  20.056  0.00  0.00    +0.000 C 
ATOM     19  O   UNL     1       1.268  10.139  19.029  0.00  0.00    +0.000 OA
BRANCH  18  20
ATOM     20  C   UNL     1       0.099  10.176  21.068  0.00  0.00    +0.000 A 
ATOM     21  C   UNL     1      -0.051   9.679  22.371  0.00  0.00    +0.000 A 
ATOM     22  C   UNL     1      -0.899  10.323  23.281  0.00  0.00    +0.000 A 
ATOM     23  C   UNL     1      -1.604  11.466  22.902  0.00  0.00    +0.000 A 
ATOM     24  C   UNL     1      -1.461  11.970  21.612  0.00  0.00    +0.000 A 
ATOM     25  C   UNL     1      -0.612  11.331  20.701  0.00  0.00    +0.000 A 
ENDBRANCH  18  20
ENDBRANCH  17  18
ENDBRANCH  16  17
ENDBRANCH   4  16
TORSDOF 6
ENDMDL
MODEL 8
REMARK VINA RESULT:      -7.7      1.017      1.487
REMARK  Name = 
REMARK  8 active torsions:
REMARK  status: ('A' for Active; 'I' for Inactive)
REMARK    1  A    between atoms: C_1  and  C_2
REMARK    2  A    between atoms: C_4  and  S_5
REMARK    3  A    between atoms: S_5  and  C_6
REMARK    4  A    between atoms: C_6  and  C_7
REMARK    5  A    between atoms: C_7  and  C_9
REMARK    6  A    between atoms: N_15  and  N_16
REMARK    7  A    between atoms: N_16  and  C_17
REMARK    8  A    between atoms: C_23  and  C_24
REMARK                            x       y       z     vdW  Elec       q    Type
REMARK                         _______ _______ _______ _____ _____    ______ ____
ROOT
ATOM      1  C   UNL     1       4.693   1.739  20.395  0.00  0.00    +0.000 C 
ATOM      2  C   UNL     1       4.522   3.012  19.655  0.00  0.00    +0.000 A 
ATOM      3  N   UNL     1       5.592   3.823  19.356  0.00  0.00    +0.000 NA
ATOM      4  C   UNL     1       5.068   4.875  18.762  0.00  0.00    +0.000 A 
ATOM      5  N   UNL     1       3.684   4.799  18.686  0.00  0.00    +0.000 N 
ATOM      6  C   UNL     1       3.343   3.547  19.166  0.00  0.00    +0.000 A 
ATOM      7  C   UNL     1       1.972   2.974  19.179  0.00  0.00    +0.000 C 
ENDROOT
BRANCH   5   8
ATOM      8  N   UNL     1       2.825   5.729  18.111  0.00  0.00    +0.000 N 
ATOM      9  H   UNL     1       2.203   5.296  17.440  0.00  0.00    +0.000 HD
BRANCH   8  10
ATOM     10  C   UNL     1       2.315   6.888  18.732  0.00  0.00    +0.000 A 
ATOM     11  C   UNL     1       2.091   6.976  20.112  0.00  0.00    +0.000 A 
ATOM     12  C   UNL     1       1.534   8.128  20.679  0.00  0.00    +0.000 A 
ATOM     13  C   UNL     1       1.243   9.228  19.880  0.00  0.00    +0.000 A 
ATOM     14  C   UNL     1       1.517   9.182  18.517  0.00  0.00    +0.000 A 
ATOM     15  C   UNL     1       2.056   8.022  17.950  0.00  0.00    +0.000 A 
ENDBRANCH   8  10
ENDBRANCH   5   8
BRANCH   4  16
ATOM     16  S   UNL     1       5.971   6.217  18.112  0.00  0.00    +0.000 S 
BRANCH  16  17
ATOM     17  C   UNL     1       5.822   5.921  16.320  0.00  0.00    +0.000 C 
BRANCH  17  18
ATOM     18  C   UNL     1       6.928   5.015  15.771  0.00  0.00    +0.000 C 
ATOM     19  O   UNL     1       7.859   4.583  16.445  0.00  0.00    +0.000 OA
BRANCH  18  20
ATOM     20  C   UNL     1       6.879   4.641  14.310  0.00  0.00    +0.000 A 
ATOM     21  C   UNL     1       7.721   5.236  13.359  0.00  0.00    +0.000 A 
ATOM     22  C   UNL     1       7.646   4.857  12.012  0.00  0.00    +0.000 A 
ATOM     23  C   UNL     1       6.734   3.885  11.602  0.00  0.00    +0.000 A 
ATOM     24  C   UNL     1       5.894   3.285  12.538  0.00  0.00    +0.000 A 
ATOM     25  C   UNL     1       5.969   3.659  13.884  0.00  0.00    +0.000 A 
ENDBRANCH  18  20
ENDBRANCH  17  18
ENDBRANCH  16  17
ENDBRANCH   4  16
TORSDOF 6
ENDMDL
MODEL 9
REMARK VINA RESULT:      -7.6      1.160      1.590
REMARK  Name = 
REMARK  8 active torsions:
REMARK  status: ('A' for Active; 'I' for Inactive)
REMARK    1  A    between atoms: C_1  and  C_2
REMARK    2  A    between atoms: C_4  and  S_5
REMARK    3  A    between atoms: S_5  and  C_6
REMARK    4  A    between atoms: C_6  and  C_7
REMARK    5  A    between atoms: C_7  and  C_9
REMARK    6  A    between atoms: N_15  and  N_16
REMARK    7  A    between atoms: N_16  and  C_17
REMARK    8  A    between atoms: C_23  and  C_24
REMARK                            x       y       z     vdW  Elec       q    Type
REMARK                         _______ _______ _______ _____ _____    ______ ____
ROOT
ATOM      1  C   UNL     1       3.125   1.373  19.504  0.00  0.00    +0.000 C 
ATOM      2  C   UNL     1       3.641   2.698  19.084  0.00  0.00    +0.000 A 
ATOM      3  N   UNL     1       4.942   3.075  19.319  0.00  0.00    +0.000 NA
ATOM      4  C   UNL     1       5.026   4.312  18.877  0.00  0.00    +0.000 A 
ATOM      5  N   UNL     1       3.813   4.775  18.386  0.00  0.00    +0.000 N 
ATOM      6  C   UNL     1       2.948   3.696  18.421  0.00  0.00    +0.000 A 
ATOM      7  C   UNL     1       1.559   3.687  17.893  0.00  0.00    +0.000 C 
ENDROOT
BRANCH   5   8
ATOM      8  N   UNL     1       3.556   6.026  17.833  0.00  0.00    +0.000 N 
ATOM      9  H   UNL     1       3.482   5.979  16.824  0.00  0.00    +0.000 HD
BRANCH   8  10
ATOM     10  C   UNL     1       2.821   7.067  18.434  0.00  0.00    +0.000 A 
ATOM     11  C   UNL     1       2.430   7.045  19.779  0.00  0.00    +0.000 A 
ATOM     12  C   UNL     1       1.657   8.078  20.322  0.00  0.00    +0.000 A 
ATOM     13  C   UNL     1       1.307   9.173  19.539  0.00  0.00    +0.000 A 
ATOM     14  C   UNL     1       1.740   9.242  18.218  0.00  0.00    +0.000 A 
ATOM     15  C   UNL     1       2.497   8.199  17.674  0.00  0.00    +0.000 A 
ENDBRANCH   8  10
ENDBRANCH   5   8
BRANCH   4  16
ATOM     16  S   UNL     1       6.473   5.283  18.869  0.00  0.00    +0.000 S 
BRANCH  16  17
ATOM     17  C   UNL     1       7.359   4.604  17.429  0.00  0.00    +0.000 C 
BRANCH  17  18
ATOM     18  C   UNL     1       7.323   5.533  16.213  0.00  0.00    +0.000 C 
ATOM     19  O   UNL     1       7.510   6.746  16.270  0.00  0.00    +0.000 OA
BRANCH  18  20
ATOM     20  C   UNL     1       7.023   4.927  14.864  0.00  0.00    +0.000 A 
ATOM     21  C   UNL     1       7.698   5.325  13.700  0.00  0.00    +0.000 A 
ATOM     22  C   UNL     1       7.392   4.733  12.468  0.00  0.00    +0.000 A 
ATOM     23  C   UNL     1       6.414   3.742  12.384  0.00  0.00    +0.000 A 
ATOM     24  C   UNL     1       5.739   3.336  13.533  0.00  0.00    +0.000 A 
ATOM     25  C   UNL     1       6.045   3.923  14.767  0.00  0.00    +0.000 A 
ENDBRANCH  18  20
ENDBRANCH  17  18
ENDBRANCH  16  17
ENDBRANCH   4  16
TORSDOF 6
ENDMDL
