MODEL 1
REMARK VINA RESULT:      -7.5      0.000      0.000
REMARK  Name = 
REMARK  8 active torsions:
REMARK  status: ('A' for Active; 'I' for Inactive)
REMARK    1  A    between atoms: C_1  and  O_2
REMARK    2  A    between atoms: O_2  and  C_3
REMARK    3  A    between atoms: C_6  and  O_7
REMARK    4  A    between atoms: O_7  and  C_8
REMARK    5  A    between atoms: C_9  and  S_10
REMARK    6  A    between atoms: S_10  and  C_11
REMARK    7  A    between atoms: C_17  and  C_18
REMARK    8  A    between atoms: N_21  and  C_22
REMARK                            x       y       z     vdW  Elec       q    Type
REMARK                         _______ _______ _______ _____ _____    ______ ____
ROOT
ATOM      1  C   UNL     1       2.000   7.308  19.729  0.00  0.00    +0.000 A 
ATOM      2  C   UNL     1       2.663   7.504  18.405  0.00  0.00    +0.000 A 
ATOM      3  C   UNL     1       2.478   8.708  17.849  0.00  0.00    +0.000 A 
ATOM      4  N   UNL     1       1.717   9.675  18.498  0.00  0.00    +0.000 N 
ATOM      5  N   UNL     1       1.424  10.922  18.052  0.00  0.00    +0.000 NA
ATOM      6  C   UNL     1       0.648  11.435  19.009  0.00  0.00    +0.000 A 
ATOM      7  C   UNL     1       0.448  10.555  20.086  0.00  0.00    +0.000 A 
ATOM      8  C   UNL     1       1.137   9.408  19.744  0.00  0.00    +0.000 A 
ATOM      9  N   UNL     1       1.286   8.190  20.366  0.00  0.00    +0.000 NA
ENDROOT
BRANCH   7  10
ATOM     10  C   UNL     1      -0.335  10.836  21.275  0.00  0.00    +0.000 A 
ATOM     11  C   UNL     1      -0.187  10.229  22.539  0.00  0.00    +0.000 A 
ATOM     12  N   UNL     1      -1.048  10.715  23.442  0.00  0.00    +0.000 NA
ATOM     13  N   UNL     1      -1.749  11.630  22.748  0.00  0.00    +0.000 N 
ATOM     14  C   UNL     1      -2.773  12.404  23.403  0.00  0.00    +0.000 C 
ATOM     15  C   UNL     1      -1.366  11.737  21.441  0.00  0.00    +0.000 A 
ENDBRANCH   7  10
BRANCH   1  16
ATOM     16  S   UNL     1       2.112   5.675  20.324  0.00  0.00    +0.000 S 
BRANCH  16  21
ATOM     17  C   UNL     1       5.384   4.266  18.448  0.00  0.00    +0.000 A 
ATOM     18  C   UNL     1       4.901   3.431  17.450  0.00  0.00    +0.000 A 
ATOM     19  C   UNL     1       3.532   3.231  17.295  0.00  0.00    +0.000 A 
ATOM     20  C   UNL     1       2.606   3.888  18.122  0.00  0.00    +0.000 A 
ATOM     21  C   UNL     1       3.077   4.730  19.144  0.00  0.00    +0.000 A 
ATOM     22  C   UNL     1       4.476   4.894  19.300  0.00  0.00    +0.000 A 
BRANCH  17  24
ATOM     23  C   UNL     1       7.401   4.670  17.247  0.00  0.00    +0.000 C 
ATOM     24  O   UNL     1       6.744   4.382  18.474  0.00  0.00    +0.000 OA
ENDBRANCH  17  24
BRANCH  20  25
ATOM     25  O   UNL     1       1.256   3.686  17.991  0.00  0.00    +0.000 OA
ATOM     26  C   UNL     1       0.728   2.562  18.696  0.00  0.00    +0.000 C 
ENDBRANCH  20  25
ENDBRANCH  16  21
ENDBRANCH   1  16
TORSDOF 5
ENDMDL
MODEL 2
REMARK VINA RESULT:      -7.4      5.036      9.102
REMARK  Name = 
REMARK  8 active torsions:
REMARK  status: ('A' for Active; 'I' for Inactive)
REMARK    1  A    between atoms: C_1  and  O_2
REMARK    2  A    between atoms: O_2  and  C_3
REMARK    3  A    between atoms: C_6  and  O_7
REMARK    4  A    between atoms: O_7  and  C_8
REMARK    5  A    between atoms: C_9  and  S_10
REMARK    6  A    between atoms: S_10  and  C_11
REMARK    7  A    between atoms: C_17  and  C_18
REMARK    8  A    between atoms: N_21  and  C_22
REMARK                            x       y       z     vdW  Elec       q    Type
REMARK                         _______ _______ _______ _____ _____    ______ ____
ROOT
ATOM      1  C   UNL     1       5.154   4.164  17.066  0.00  0.00    +0.000 A 
ATOM      2  C   UNL     1       6.199   4.992  17.738  0.00  0.00    +0.000 A 
ATOM      3  C   UNL     1       7.160   5.459  16.929  0.00  0.00    +0.000 A 
ATOM      4  N   UNL     1       7.141   5.168  15.569  0.00  0.00    +0.000 N 
ATOM      5  N   UNL     1       8.051   5.547  14.637  0.00  0.00    +0.000 NA
ATOM      6  C   UNL     1       7.607   4.995  13.507  0.00  0.00    +0.000 A 
ATOM      7  C   UNL     1       6.408   4.281  13.676  0.00  0.00    +0.000 A 
ATOM      8  C   UNL     1       6.115   4.388  15.021  0.00  0.00    +0.000 A 
ATOM      9  N   UNL     1       5.101   3.876  15.798  0.00  0.00    +0.000 NA
ENDROOT
BRANCH   7  10
ATOM     10  C   UNL     1       5.681   3.586  12.630  0.00  0.00    +0.000 A 
ATOM     11  C   UNL     1       6.040   2.360  12.034  0.00  0.00    +0.000 A 
ATOM     12  N   UNL     1       5.156   1.965  11.108  0.00  0.00    +0.000 NA
ATOM     13  N   UNL     1       4.236   2.947  11.113  0.00  0.00    +0.000 N 
ATOM     14  C   UNL     1       3.085   2.862  10.250  0.00  0.00    +0.000 C 
ATOM     15  C   UNL     1       4.508   3.948  12.003  0.00  0.00    +0.000 A 
ENDBRANCH   7  10
BRANCH   1  16
ATOM     16  S   UNL     1       4.034   3.428  18.179  0.00  0.00    +0.000 S 
BRANCH  16  21
ATOM     17  C   UNL     1       2.531   7.108  18.812  0.00  0.00    +0.000 A 
ATOM     18  C   UNL     1       1.908   7.040  20.051  0.00  0.00    +0.000 A 
ATOM     19  C   UNL     1       1.893   5.848  20.770  0.00  0.00    +0.000 A 
ATOM     20  C   UNL     1       2.530   4.698  20.279  0.00  0.00    +0.000 A 
ATOM     21  C   UNL     1       3.159   4.746  19.023  0.00  0.00    +0.000 A 
ATOM     22  C   UNL     1       3.134   5.961  18.296  0.00  0.00    +0.000 A 
BRANCH  17  24
ATOM     23  C   UNL     1       1.394   9.188  18.572  0.00  0.00    +0.000 C 
ATOM     24  O   UNL     1       2.481   8.341  18.226  0.00  0.00    +0.000 OA
ENDBRANCH  17  24
BRANCH  20  25
ATOM     25  O   UNL     1       2.509   3.513  20.971  0.00  0.00    +0.000 OA
ATOM     26  C   UNL     1       1.217   2.941  21.176  0.00  0.00    +0.000 C 
ENDBRANCH  20  25
ENDBRANCH  16  21
ENDBRANCH   1  16
TORSDOF 5
ENDMDL
MODEL 3
REMARK VINA RESULT:      -7.3      3.766      8.509
REMARK  Name = 
REMARK  8 active torsions:
REMARK  status: ('A' for Active; 'I' for Inactive)
REMARK    1  A    between atoms: C_1  and  O_2
REMARK    2  A    between atoms: O_2  and  C_3
REMARK    3  A    between atoms: C_6  and  O_7
REMARK    4  A    between atoms: O_7  and  C_8
REMARK    5  A    between atoms: C_9  and  S_10
REMARK    6  A    between atoms: S_10  and  C_11
REMARK    7  A    between atoms: C_17  and  C_18
REMARK    8  A    between atoms: N_21  and  C_22
REMARK                            x       y       z     vdW  Elec       q    Type
REMARK                         _______ _______ _______ _____ _____    ______ ____
ROOT
ATOM      1  C   UNL     1       1.695   9.095  19.247  0.00  0.00    +0.000 A 
ATOM      2  C   UNL     1       0.960   8.773  20.507  0.00  0.00    +0.000 A 
ATOM      3  C   UNL     1       1.108   7.516  20.946  0.00  0.00    +0.000 A 
ATOM      4  N   UNL     1       1.901   6.613  20.245  0.00  0.00    +0.000 N 
ATOM      5  N   UNL     1       2.125   5.310  20.551  0.00  0.00    +0.000 NA
ATOM      6  C   UNL     1       2.914   4.877  19.565  0.00  0.00    +0.000 A 
ATOM      7  C   UNL     1       3.231   5.879  18.633  0.00  0.00    +0.000 A 
ATOM      8  C   UNL     1       2.562   7.003  19.073  0.00  0.00    +0.000 A 
ATOM      9  N   UNL     1       2.448   8.278  18.569  0.00  0.00    +0.000 NA
ENDROOT
BRANCH   7  10
ATOM     10  C   UNL     1       4.077   5.712  17.465  0.00  0.00    +0.000 A 
ATOM     11  C   UNL     1       4.720   6.737  16.743  0.00  0.00    +0.000 A 
ATOM     12  N   UNL     1       5.447   6.264  15.723  0.00  0.00    +0.000 NA
ATOM     13  N   UNL     1       5.261   4.934  15.795  0.00  0.00    +0.000 N 
ATOM     14  C   UNL     1       5.923   4.061  14.859  0.00  0.00    +0.000 C 
ATOM     15  C   UNL     1       4.441   4.550  16.818  0.00  0.00    +0.000 A 
ENDBRANCH   7  10
BRANCH   1  16
ATOM     16  S   UNL     1       1.327  10.676  18.617  0.00  0.00    +0.000 S 
BRANCH  16  21
ATOM     17  C   UNL     1      -2.381  10.106  17.155  0.00  0.00    +0.000 A 
ATOM     18  C   UNL     1      -3.218  10.831  17.992  0.00  0.00    +0.000 A 
ATOM     19  C   UNL     1      -2.700  11.533  19.077  0.00  0.00    +0.000 A 
ATOM     20  C   UNL     1      -1.320  11.552  19.334  0.00  0.00    +0.000 A 
ATOM     21  C   UNL     1      -0.457  10.816  18.503  0.00  0.00    +0.000 A 
ATOM     22  C   UNL     1      -1.012  10.085  17.424  0.00  0.00    +0.000 A 
BRANCH  17  24
ATOM     23  C   UNL     1      -3.085  10.164  14.880  0.00  0.00    +0.000 C 
ATOM     24  O   UNL     1      -3.022   9.481  16.124  0.00  0.00    +0.000 OA
ENDBRANCH  17  24
BRANCH  20  25
ATOM     25  O   UNL     1      -0.798  12.225  20.410  0.00  0.00    +0.000 OA
ATOM     26  C   UNL     1      -1.147  11.706  21.692  0.00  0.00    +0.000 C 
ENDBRANCH  20  25
ENDBRANCH  16  21
ENDBRANCH   1  16
TORSDOF 5
ENDMDL
MODEL 4
REMARK VINA RESULT:      -7.2      3.704      8.529
REMARK  Name = 
REMARK  8 active torsions:
REMARK  status: ('A' for Active; 'I' for Inactive)
REMARK    1  A    between atoms: C_1  and  O_2
REMARK    2  A    between atoms: O_2  and  C_3
REMARK    3  A    between atoms: C_6  and  O_7
REMARK    4  A    between atoms: O_7  and  C_8
REMARK    5  A    between atoms: C_9  and  S_10
REMARK    6  A    between atoms: S_10  and  C_11
REMARK    7  A    between atoms: C_17  and  C_18
REMARK    8  A    between atoms: N_21  and  C_22
REMARK                            x       y       z     vdW  Elec       q    Type
REMARK                         _______ _______ _______ _____ _____    ______ ____
ROOT
ATOM      1  C   UNL     1       1.847   8.685  19.212  0.00  0.00    +0.000 A 
ATOM      2  C   UNL     1       1.032   8.619  20.462  0.00  0.00    +0.000 A 
ATOM      3  C   UNL     1       1.067   7.442  21.102  0.00  0.00    +0.000 A 
ATOM      4  N   UNL     1       1.823   6.388  20.600  0.00  0.00    +0.000 N 
ATOM      5  N   UNL     1       1.936   5.141  21.120  0.00  0.00    +0.000 NA
ATOM      6  C   UNL     1       2.737   4.503  20.263  0.00  0.00    +0.000 A 
ATOM      7  C   UNL     1       3.171   5.319  19.204  0.00  0.00    +0.000 A 
ATOM      8  C   UNL     1       2.565   6.541  19.422  0.00  0.00    +0.000 A 
ATOM      9  N   UNL     1       2.569   7.722  18.716  0.00  0.00    +0.000 NA
ENDROOT
BRANCH   7  10
ATOM     10  C   UNL     1       4.056   4.911  18.129  0.00  0.00    +0.000 A 
ATOM     11  C   UNL     1       3.731   4.058  17.055  0.00  0.00    +0.000 A 
ATOM     12  N   UNL     1       4.757   3.885  16.212  0.00  0.00    +0.000 NA
ATOM     13  N   UNL     1       5.739   4.627  16.756  0.00  0.00    +0.000 N 
ATOM     14  C   UNL     1       7.020   4.718  16.103  0.00  0.00    +0.000 C 
ATOM     15  C   UNL     1       5.372   5.257  17.912  0.00  0.00    +0.000 A 
ENDBRANCH   7  10
BRANCH   1  16
ATOM     16  S   UNL     1       1.626  10.163  18.320  0.00  0.00    +0.000 S 
BRANCH  16  21
ATOM     17  C   UNL     1      -2.304  10.223  17.449  0.00  0.00    +0.000 A 
ATOM     18  C   UNL     1      -2.862  11.131  18.340  0.00  0.00    +0.000 A 
ATOM     19  C   UNL     1      -2.067  11.776  19.283  0.00  0.00    +0.000 A 
ATOM     20  C   UNL     1      -0.682  11.550  19.339  0.00  0.00    +0.000 A 
ATOM     21  C   UNL     1      -0.101  10.627  18.452  0.00  0.00    +0.000 A 
ATOM     22  C   UNL     1      -0.936   9.961  17.521  0.00  0.00    +0.000 A 
BRANCH  17  24
ATOM     23  C   UNL     1      -3.128  10.105  15.217  0.00  0.00    +0.000 C 
ATOM     24  O   UNL     1      -3.197   9.679  16.571  0.00  0.00    +0.000 OA
ENDBRANCH  17  24
BRANCH  20  25
ATOM     25  O   UNL     1       0.110  12.166  20.275  0.00  0.00    +0.000 OA
ATOM     26  C   UNL     1      -0.260  11.949  21.636  0.00  0.00    +0.000 C 
ENDBRANCH  20  25
ENDBRANCH  16  21
ENDBRANCH   1  16
TORSDOF 5
ENDMDL
MODEL 5
REMARK VINA RESULT:      -7.2      3.760      8.684
REMARK  Name = 
REMARK  8 active torsions:
REMARK  status: ('A' for Active; 'I' for Inactive)
REMARK    1  A    between atoms: C_1  and  O_2
REMARK    2  A    between atoms: O_2  and  C_3
REMARK    3  A    between atoms: C_6  and  O_7
REMARK    4  A    between atoms: O_7  and  C_8
REMARK    5  A    between atoms: C_9  and  S_10
REMARK    6  A    between atoms: S_10  and  C_11
REMARK    7  A    between atoms: C_17  and  C_18
REMARK    8  A    between atoms: N_21  and  C_22
REMARK                            x       y       z     vdW  Elec       q    Type
REMARK                         _______ _______ _______ _____ _____    ______ ____
ROOT
ATOM      1  C   UNL     1       2.533   8.352  18.416  0.00  0.00    +0.000 A 
ATOM      2  C   UNL     1       1.793   7.999  19.664  0.00  0.00    +0.000 A 
ATOM      3  C   UNL     1       2.047   6.777  20.150  0.00  0.00    +0.000 A 
ATOM      4  N   UNL     1       2.945   5.934  19.504  0.00  0.00    +0.000 N 
ATOM      5  N   UNL     1       3.283   4.669  19.861  0.00  0.00    +0.000 NA
ATOM      6  C   UNL     1       4.142   4.284  18.914  0.00  0.00    +0.000 A 
ATOM      7  C   UNL     1       4.391   5.283  17.958  0.00  0.00    +0.000 A 
ATOM      8  C   UNL     1       3.603   6.350  18.340  0.00  0.00    +0.000 A 
ATOM      9  N   UNL     1       3.383   7.591  17.788  0.00  0.00    +0.000 NA
ENDROOT
BRANCH   7  10
ATOM     10  C   UNL     1       5.286   5.162  16.821  0.00  0.00    +0.000 A 
ATOM     11  C   UNL     1       6.542   5.785  16.675  0.00  0.00    +0.000 A 
ATOM     12  N   UNL     1       7.139   5.463  15.520  0.00  0.00    +0.000 NA
ATOM     13  N   UNL     1       6.257   4.637  14.929  0.00  0.00    +0.000 N 
ATOM     14  C   UNL     1       6.566   4.046  13.652  0.00  0.00    +0.000 C 
ATOM     15  C   UNL     1       5.125   4.429  15.665  0.00  0.00    +0.000 A 
ENDBRANCH   7  10
BRANCH   1  16
ATOM     16  S   UNL     1       2.035   9.869  17.721  0.00  0.00    +0.000 S 
BRANCH  16  21
ATOM     17  C   UNL     1       0.069  11.698  20.720  0.00  0.00    +0.000 A 
ATOM     18  C   UNL     1      -1.278  11.534  20.427  0.00  0.00    +0.000 A 
ATOM     19  C   UNL     1      -1.674  10.863  19.274  0.00  0.00    +0.000 A 
ATOM     20  C   UNL     1      -0.728  10.309  18.396  0.00  0.00    +0.000 A 
ATOM     21  C   UNL     1       0.641  10.473  18.672  0.00  0.00    +0.000 A 
ATOM     22  C   UNL     1       1.019  11.186  19.836  0.00  0.00    +0.000 A 
BRANCH  17  24
ATOM     23  C   UNL     1      -0.811  12.764  22.660  0.00  0.00    +0.000 C 
ATOM     24  O   UNL     1       0.313  12.362  21.889  0.00  0.00    +0.000 OA
ENDBRANCH  17  24
BRANCH  20  25
ATOM     25  O   UNL     1      -1.105   9.660  17.248  0.00  0.00    +0.000 OA
ATOM     26  C   UNL     1      -2.394  10.002  16.741  0.00  0.00    +0.000 C 
ENDBRANCH  20  25
ENDBRANCH  16  21
ENDBRANCH   1  16
TORSDOF 5
ENDMDL
MODEL 6
REMARK VINA RESULT:      -7.0      3.768      8.793
REMARK  Name = 
REMARK  8 active torsions:
REMARK  status: ('A' for Active; 'I' for Inactive)
REMARK    1  A    between atoms: C_1  and  O_2
REMARK    2  A    between atoms: O_2  and  C_3
REMARK    3  A    between atoms: C_6  and  O_7
REMARK    4  A    between atoms: O_7  and  C_8
REMARK    5  A    between atoms: C_9  and  S_10
REMARK    6  A    between atoms: S_10  and  C_11
REMARK    7  A    between atoms: C_17  and  C_18
REMARK    8  A    between atoms: N_21  and  C_22
REMARK                            x       y       z     vdW  Elec       q    Type
REMARK                         _______ _______ _______ _____ _____    ______ ____
ROOT
ATOM      1  C   UNL     1       2.275   8.228  18.783  0.00  0.00    +0.000 A 
ATOM      2  C   UNL     1       1.419   8.039  19.992  0.00  0.00    +0.000 A 
ATOM      3  C   UNL     1       1.546   6.851  20.598  0.00  0.00    +0.000 A 
ATOM      4  N   UNL     1       2.426   5.896  20.100  0.00  0.00    +0.000 N 
ATOM      5  N   UNL     1       2.643   4.649  20.588  0.00  0.00    +0.000 NA
ATOM      6  C   UNL     1       3.540   4.124  19.750  0.00  0.00    +0.000 A 
ATOM      7  C   UNL     1       3.933   5.014  18.737  0.00  0.00    +0.000 A 
ATOM      8  C   UNL     1       3.198   6.161  18.962  0.00  0.00    +0.000 A 
ATOM      9  N   UNL     1       3.111   7.360  18.292  0.00  0.00    +0.000 NA
ENDROOT
BRANCH   7  10
ATOM     10  C   UNL     1       4.900   4.733  17.691  0.00  0.00    +0.000 A 
ATOM     11  C   UNL     1       6.300   4.676  17.838  0.00  0.00    +0.000 A 
ATOM     12  N   UNL     1       6.922   4.376  16.691  0.00  0.00    +0.000 NA
ATOM     13  N   UNL     1       5.913   4.246  15.811  0.00  0.00    +0.000 N 
ATOM     14  C   UNL     1       6.190   3.889  14.443  0.00  0.00    +0.000 C 
ATOM     15  C   UNL     1       4.679   4.458  16.358  0.00  0.00    +0.000 A 
ENDBRANCH   7  10
BRANCH   1  16
ATOM     16  S   UNL     1       1.943   9.707  17.925  0.00  0.00    +0.000 S 
BRANCH  16  21
ATOM     17  C   UNL     1      -2.026  10.365  18.063  0.00  0.00    +0.000 A 
ATOM     18  C   UNL     1      -2.221  11.193  19.160  0.00  0.00    +0.000 A 
ATOM     19  C   UNL     1      -1.143  11.592  19.946  0.00  0.00    +0.000 A 
ATOM     20  C   UNL     1       0.168  11.195  19.633  0.00  0.00    +0.000 A 
ATOM     21  C   UNL     1       0.383  10.350  18.530  0.00  0.00    +0.000 A 
ATOM     22  C   UNL     1      -0.734   9.933  17.765  0.00  0.00    +0.000 A 
BRANCH  17  24
ATOM     23  C   UNL     1      -4.050  11.138  17.073  0.00  0.00    +0.000 C 
ATOM     24  O   UNL     1      -3.168  10.067  17.375  0.00  0.00    +0.000 OA
ENDBRANCH  17  24
BRANCH  20  25
ATOM     25  O   UNL     1       1.236  11.568  20.408  0.00  0.00    +0.000 OA
ATOM     26  C   UNL     1       1.751  12.876  20.162  0.00  0.00    +0.000 C 
ENDBRANCH  20  25
ENDBRANCH  16  21
ENDBRANCH   1  16
TORSDOF 5
ENDMDL
MODEL 7
REMARK VINA RESULT:      -7.0      3.782      8.900
REMARK  Name = 
REMARK  8 active torsions:
REMARK  status: ('A' for Active; 'I' for Inactive)
REMARK    1  A    between atoms: C_1  and  O_2
REMARK    2  A    between atoms: O_2  and  C_3
REMARK    3  A    between atoms: C_6  and  O_7
REMARK    4  A    between atoms: O_7  and  C_8
REMARK    5  A    between atoms: C_9  and  S_10
REMARK    6  A    between atoms: S_10  and  C_11
REMARK    7  A    between atoms: C_17  and  C_18
REMARK    8  A    between atoms: N_21  and  C_22
REMARK                            x       y       z     vdW  Elec       q    Type
REMARK                         _______ _______ _______ _____ _____    ______ ____
ROOT
ATOM      1  C   UNL     1       1.918   9.052  18.877  0.00  0.00    +0.000 A 
ATOM      2  C   UNL     1       1.205   8.777  20.161  0.00  0.00    +0.000 A 
ATOM      3  C   UNL     1       1.373   7.541  20.650  0.00  0.00    +0.000 A 
ATOM      4  N   UNL     1       2.164   6.616  19.976  0.00  0.00    +0.000 N 
ATOM      5  N   UNL     1       2.406   5.330  20.333  0.00  0.00    +0.000 NA
ATOM      6  C   UNL     1       3.185   4.863  19.355  0.00  0.00    +0.000 A 
ATOM      7  C   UNL     1       3.478   5.828  18.377  0.00  0.00    +0.000 A 
ATOM      8  C   UNL     1       2.804   6.963  18.779  0.00  0.00    +0.000 A 
ATOM      9  N   UNL     1       2.669   8.214  18.223  0.00  0.00    +0.000 NA
ENDROOT
BRANCH   7  10
ATOM     10  C   UNL     1       4.308   5.619  17.204  0.00  0.00    +0.000 A 
ATOM     11  C   UNL     1       4.954   6.617  16.447  0.00  0.00    +0.000 A 
ATOM     12  N   UNL     1       5.664   6.108  15.432  0.00  0.00    +0.000 NA
ATOM     13  N   UNL     1       5.463   4.782  15.542  0.00  0.00    +0.000 N 
ATOM     14  C   UNL     1       6.104   3.877  14.622  0.00  0.00    +0.000 C 
ATOM     15  C   UNL     1       4.650   4.436  16.584  0.00  0.00    +0.000 A 
ENDBRANCH   7  10
BRANCH   1  16
ATOM     16  S   UNL     1       1.524  10.601  18.186  0.00  0.00    +0.000 S 
BRANCH  16  21
ATOM     17  C   UNL     1      -2.227  11.663  19.189  0.00  0.00    +0.000 A 
ATOM     18  C   UNL     1      -2.106  12.334  20.398  0.00  0.00    +0.000 A 
ATOM     19  C   UNL     1      -0.860  12.491  20.998  0.00  0.00    +0.000 A 
ATOM     20  C   UNL     1       0.306  12.004  20.385  0.00  0.00    +0.000 A 
ATOM     21  C   UNL     1       0.202  11.314  19.165  0.00  0.00    +0.000 A 
ATOM     22  C   UNL     1      -1.081  11.141  18.589  0.00  0.00    +0.000 A 
BRANCH  17  24
ATOM     23  C   UNL     1      -3.671  11.348  17.321  0.00  0.00    +0.000 C 
ATOM     24  O   UNL     1      -3.504  11.597  18.710  0.00  0.00    +0.000 OA
ENDBRANCH  17  24
BRANCH  20  25
ATOM     25  O   UNL     1       1.538  12.138  20.974  0.00  0.00    +0.000 OA
ATOM     26  C   UNL     1       2.219  13.364  20.710  0.00  0.00    +0.000 C 
ENDBRANCH  20  25
ENDBRANCH  16  21
ENDBRANCH   1  16
TORSDOF 5
ENDMDL
MODEL 8
REMARK VINA RESULT:      -6.9      4.469      9.187
REMARK  Name = 
REMARK  8 active torsions:
REMARK  status: ('A' for Active; 'I' for Inactive)
REMARK    1  A    between atoms: C_1  and  O_2
REMARK    2  A    between atoms: O_2  and  C_3
REMARK    3  A    between atoms: C_6  and  O_7
REMARK    4  A    between atoms: O_7  and  C_8
REMARK    5  A    between atoms: C_9  and  S_10
REMARK    6  A    between atoms: S_10  and  C_11
REMARK    7  A    between atoms: C_17  and  C_18
REMARK    8  A    between atoms: N_21  and  C_22
REMARK                            x       y       z     vdW  Elec       q    Type
REMARK                         _______ _______ _______ _____ _____    ______ ____
ROOT
ATOM      1  C   UNL     1      -2.037  12.398  21.178  0.00  0.00    +0.000 A 
ATOM      2  C   UNL     1      -2.352  12.472  22.636  0.00  0.00    +0.000 A 
ATOM      3  C   UNL     1      -1.668  11.619  23.410  0.00  0.00    +0.000 A 
ATOM      4  N   UNL     1      -0.741  10.746  22.849  0.00  0.00    +0.000 N 
ATOM      5  N   UNL     1       0.004   9.816  23.497  0.00  0.00    +0.000 NA
ATOM      6  C   UNL     1       0.701   9.224  22.525  0.00  0.00    +0.000 A 
ATOM      7  C   UNL     1       0.444   9.767  21.255  0.00  0.00    +0.000 A 
ATOM      8  C   UNL     1      -0.502  10.750  21.469  0.00  0.00    +0.000 A 
ATOM      9  N   UNL     1      -1.174  11.599  20.621  0.00  0.00    +0.000 NA
ENDROOT
BRANCH   7  10
ATOM     10  C   UNL     1       1.059   9.341  20.011  0.00  0.00    +0.000 A 
ATOM     11  C   UNL     1       0.985  10.003  18.769  0.00  0.00    +0.000 A 
ATOM     12  N   UNL     1       1.674   9.371  17.812  0.00  0.00    +0.000 NA
ATOM     13  N   UNL     1       2.184   8.300  18.446  0.00  0.00    +0.000 N 
ATOM     14  C   UNL     1       3.029   7.374  17.735  0.00  0.00    +0.000 C 
ATOM     15  C   UNL     1       1.839   8.230  19.767  0.00  0.00    +0.000 A 
ENDBRANCH   7  10
BRANCH   1  16
ATOM     16  S   UNL     1      -3.077  13.389  20.194  0.00  0.00    +0.000 S 
BRANCH  16  21
ATOM     17  C   UNL     1      -6.588  11.458  19.807  0.00  0.00    +0.000 A 
ATOM     18  C   UNL     1      -6.471  10.719  18.638  0.00  0.00    +0.000 A 
ATOM     19  C   UNL     1      -5.306  10.778  17.877  0.00  0.00    +0.000 A 
ATOM     20  C   UNL     1      -4.213  11.558  18.286  0.00  0.00    +0.000 A 
ATOM     21  C   UNL     1      -4.316  12.320  19.462  0.00  0.00    +0.000 A 
ATOM     22  C   UNL     1      -5.523  12.268  20.203  0.00  0.00    +0.000 A 
BRANCH  17  24
ATOM     23  C   UNL     1      -7.856  11.747  21.803  0.00  0.00    +0.000 C 
ATOM     24  O   UNL     1      -7.776  11.293  20.459  0.00  0.00    +0.000 OA
ENDBRANCH  17  24
BRANCH  20  25
ATOM     25  O   UNL     1      -3.066  11.638  17.536  0.00  0.00    +0.000 OA
ATOM     26  C   UNL     1      -2.537  10.392  17.083  0.00  0.00    +0.000 C 
ENDBRANCH  20  25
ENDBRANCH  16  21
ENDBRANCH   1  16
TORSDOF 5
ENDMDL
MODEL 9
REMARK VINA RESULT:      -6.8      3.775      8.531
REMARK  Name = 
REMARK  8 active torsions:
REMARK  status: ('A' for Active; 'I' for Inactive)
REMARK    1  A    between atoms: C_1  and  O_2
REMARK    2  A    between atoms: O_2  and  C_3
REMARK    3  A    between atoms: C_6  and  O_7
REMARK    4  A    between atoms: O_7  and  C_8
REMARK    5  A    between atoms: C_9  and  S_10
REMARK    6  A    between atoms: S_10  and  C_11
REMARK    7  A    between atoms: C_17  and  C_18
REMARK    8  A    between atoms: N_21  and  C_22
REMARK                            x       y       z     vdW  Elec       q    Type
REMARK                         _______ _______ _______ _____ _____    ______ ____
ROOT
ATOM      1  C   UNL     1       2.264   8.202  18.707  0.00  0.00    +0.000 A 
ATOM      2  C   UNL     1       1.442   8.012  19.939  0.00  0.00    +0.000 A 
ATOM      3  C   UNL     1       1.615   6.840  20.564  0.00  0.00    +0.000 A 
ATOM      4  N   UNL     1       2.509   5.899  20.062  0.00  0.00    +0.000 N 
ATOM      5  N   UNL     1       2.771   4.668  20.568  0.00  0.00    +0.000 NA
ATOM      6  C   UNL     1       3.662   4.152  19.719  0.00  0.00    +0.000 A 
ATOM      7  C   UNL     1       4.007   5.033  18.680  0.00  0.00    +0.000 A 
ATOM      8  C   UNL     1       3.247   6.164  18.902  0.00  0.00    +0.000 A 
ATOM      9  N   UNL     1       3.112   7.347  18.213  0.00  0.00    +0.000 NA
ENDROOT
BRANCH   7  10
ATOM     10  C   UNL     1       4.957   4.758  17.616  0.00  0.00    +0.000 A 
ATOM     11  C   UNL     1       6.360   4.720  17.736  0.00  0.00    +0.000 A 
ATOM     12  N   UNL     1       6.963   4.421  16.579  0.00  0.00    +0.000 NA
ATOM     13  N   UNL     1       5.939   4.274  15.720  0.00  0.00    +0.000 N 
ATOM     14  C   UNL     1       6.193   3.912  14.349  0.00  0.00    +0.000 C 
ATOM     15  C   UNL     1       4.713   4.473  16.290  0.00  0.00    +0.000 A 
ENDBRANCH   7  10
BRANCH   1  16
ATOM     16  S   UNL     1       1.872   9.654  17.830  0.00  0.00    +0.000 S 
BRANCH  16  21
ATOM     17  C   UNL     1       0.673  12.320  20.599  0.00  0.00    +0.000 A 
ATOM     18  C   UNL     1      -0.713  12.251  20.596  0.00  0.00    +0.000 A 
ATOM     19  C   UNL     1      -1.377  11.388  19.728  0.00  0.00    +0.000 A 
ATOM     20  C   UNL     1      -0.664  10.548  18.857  0.00  0.00    +0.000 A 
ATOM     21  C   UNL     1       0.740  10.611  18.839  0.00  0.00    +0.000 A 
ATOM     22  C   UNL     1       1.391  11.519  19.710  0.00  0.00    +0.000 A 
BRANCH  17  24
ATOM     23  C   UNL     1       2.279  14.008  21.096  0.00  0.00    +0.000 C 
ATOM     24  O   UNL     1       1.190  13.196  21.511  0.00  0.00    +0.000 OA
ENDBRANCH  17  24
BRANCH  20  25
ATOM     25  O   UNL     1      -1.306   9.706  17.985  0.00  0.00    +0.000 OA
ATOM     26  C   UNL     1      -2.097  10.342  16.981  0.00  0.00    +0.000 C 
ENDBRANCH  20  25
ENDBRANCH  16  21
ENDBRANCH   1  16
TORSDOF 5
ENDMDL
