MODEL 1
REMARK VINA RESULT:      -7.0      0.000      0.000
REMARK  Name = 
REMARK  4 active torsions:
REMARK  status: ('A' for Active; 'I' for Inactive)
REMARK    1  A    between atoms: C_16  and  C_17
REMARK    2  A    between atoms: C_16  and  C_24
REMARK    3  A    between atoms: C_20  and  O_21
REMARK    4  A    between atoms: C_27  and  O_28
REMARK                            x       y       z     vdW  Elec       q    Type
REMARK                         _______ _______ _______ _____ _____    ______ ____
ROOT
ATOM      1  O   UNL     1       2.251  12.115  18.267  0.00  0.00    +0.000 OA
ATOM      2  C   UNL     1       1.526  11.997  19.249  0.00  0.00    +0.000 C 
ATOM      3  N   UNL     1       1.280  13.025  20.135  0.00  0.00    +0.000 N 
ATOM      4  C   UNL     1       0.317  12.649  21.052  0.00  0.00    +0.000 A 
ATOM      5  C   UNL     1       0.175  11.253  21.082  0.00  0.00    +0.000 A 
ATOM      6  C   UNL     1      -0.755  10.687  21.950  0.00  0.00    +0.000 A 
ATOM      7  C   UNL     1      -1.647  11.547  22.624  0.00  0.00    +0.000 A 
ATOM      8  C   UNL     1      -1.646  12.948  22.399  0.00  0.00    +0.000 A 
ATOM      9  C   UNL     1      -0.650  13.505  21.578  0.00  0.00    +0.000 A 
ATOM     10  C   UNL     1      -0.775  14.907  21.045  0.00  0.00    +0.000 C 
ATOM     11  C   UNL     1       0.091  15.932  21.747  0.00  0.00    +0.000 C 
ATOM     12  C   UNL     1       0.026  16.056  23.274  0.00  0.00    +0.000 C 
ATOM     13  C   UNL     1      -0.973  15.252  24.118  0.00  0.00    +0.000 C 
ATOM     14  C   UNL     1      -2.399  15.162  23.575  0.00  0.00    +0.000 C 
ATOM     15  C   UNL     1      -2.780  13.800  22.950  0.00  0.00    +0.000 C 
ATOM     16  C   UNL     1       0.595  10.781  19.652  0.00  0.00    +0.000 C 
ATOM     17  H   UNL     1       1.605  13.963  19.972  0.00  0.00    +0.000 HD
ENDROOT
BRANCH  16  18
ATOM     18  C   UNL     1      -0.783  10.829  18.885  0.00  0.00    +0.000 A 
ATOM     19  C   UNL     1      -1.607   9.697  18.750  0.00  0.00    +0.000 A 
ATOM     20  C   UNL     1      -2.708   9.724  17.895  0.00  0.00    +0.000 A 
ATOM     21  C   UNL     1      -3.002  10.886  17.191  0.00  0.00    +0.000 A 
ATOM     22  C   UNL     1      -2.224  12.026  17.327  0.00  0.00    +0.000 A 
ATOM     23  C   UNL     1      -1.116  11.997  18.166  0.00  0.00    +0.000 A 
BRANCH  21  24
ATOM     24  O   UNL     1      -4.058  10.940  16.331  0.00  0.00    +0.000 OA
ATOM     25  H   UNL     1      -4.808  10.482  16.744  0.00  0.00    +0.000 HD
ENDBRANCH  21  24
ENDBRANCH  16  18
BRANCH  16  26
ATOM     26  C   UNL     1       1.349   9.495  19.294  0.00  0.00    +0.000 A 
ATOM     27  C   UNL     1       1.452   8.513  20.322  0.00  0.00    +0.000 A 
ATOM     28  C   UNL     1       2.088   7.290  20.143  0.00  0.00    +0.000 A 
ATOM     29  C   UNL     1       2.596   6.990  18.899  0.00  0.00    +0.000 A 
ATOM     30  C   UNL     1       2.462   7.896  17.844  0.00  0.00    +0.000 A 
ATOM     31  C   UNL     1       1.840   9.149  18.034  0.00  0.00    +0.000 A 
BRANCH  29  32
ATOM     32  O   UNL     1       3.222   5.799  18.678  0.00  0.00    +0.000 OA
ATOM     33  H   UNL     1       3.213   5.292  19.508  0.00  0.00    +0.000 HD
ENDBRANCH  29  32
ENDBRANCH  16  26
TORSDOF 4
ENDMDL
MODEL 2
REMARK VINA RESULT:      -6.9      0.836      1.128
REMARK  Name = 
REMARK  4 active torsions:
REMARK  status: ('A' for Active; 'I' for Inactive)
REMARK    1  A    between atoms: C_16  and  C_17
REMARK    2  A    between atoms: C_16  and  C_24
REMARK    3  A    between atoms: C_20  and  O_21
REMARK    4  A    between atoms: C_27  and  O_28
REMARK                            x       y       z     vdW  Elec       q    Type
REMARK                         _______ _______ _______ _____ _____    ______ ____
ROOT
ATOM      1  O   UNL     1       1.871  12.647  18.679  0.00  0.00    +0.000 OA
ATOM      2  C   UNL     1       1.171  12.408  19.657  0.00  0.00    +0.000 C 
ATOM      3  N   UNL     1       0.901  13.339  20.638  0.00  0.00    +0.000 N 
ATOM      4  C   UNL     1      -0.027  12.839  21.533  0.00  0.00    +0.000 A 
ATOM      5  C   UNL     1      -0.111  11.442  21.435  0.00  0.00    +0.000 A 
ATOM      6  C   UNL     1      -1.000  10.759  22.261  0.00  0.00    +0.000 A 
ATOM      7  C   UNL     1      -1.912  11.514  23.026  0.00  0.00    +0.000 A 
ATOM      8  C   UNL     1      -1.973  12.929  22.933  0.00  0.00    +0.000 A 
ATOM      9  C   UNL     1      -1.018  13.601  22.152  0.00  0.00    +0.000 A 
ATOM     10  C   UNL     1      -1.211  15.040  21.753  0.00  0.00    +0.000 C 
ATOM     11  C   UNL     1      -0.374  16.032  22.533  0.00  0.00    +0.000 C 
ATOM     12  C   UNL     1      -0.412  16.011  24.066  0.00  0.00    +0.000 C 
ATOM     13  C   UNL     1      -1.360  15.092  24.848  0.00  0.00    +0.000 C 
ATOM     14  C   UNL     1      -2.792  14.991  24.322  0.00  0.00    +0.000 C 
ATOM     15  C   UNL     1      -3.130  13.677  23.579  0.00  0.00    +0.000 C 
ATOM     16  C   UNL     1       0.298  11.122  19.960  0.00  0.00    +0.000 C 
ATOM     17  H   UNL     1       1.184  14.301  20.559  0.00  0.00    +0.000 HD
ENDROOT
BRANCH  16  18
ATOM     18  C   UNL     1      -1.096  11.182  19.223  0.00  0.00    +0.000 A 
ATOM     19  C   UNL     1      -1.998  12.246  19.409  0.00  0.00    +0.000 A 
ATOM     20  C   UNL     1      -3.296  12.165  18.909  0.00  0.00    +0.000 A 
ATOM     21  C   UNL     1      -3.691  11.035  18.204  0.00  0.00    +0.000 A 
ATOM     22  C   UNL     1      -2.815   9.984  17.981  0.00  0.00    +0.000 A 
ATOM     23  C   UNL     1      -1.524  10.054  18.492  0.00  0.00    +0.000 A 
BRANCH  21  24
ATOM     24  O   UNL     1      -4.959  10.915  17.720  0.00  0.00    +0.000 OA
ATOM     25  H   UNL     1      -5.424  10.249  18.252  0.00  0.00    +0.000 HD
ENDBRANCH  21  24
ENDBRANCH  16  18
BRANCH  16  26
ATOM     26  C   UNL     1       1.097   9.908  19.472  0.00  0.00    +0.000 A 
ATOM     27  C   UNL     1       1.240   8.829  20.394  0.00  0.00    +0.000 A 
ATOM     28  C   UNL     1       1.918   7.655  20.090  0.00  0.00    +0.000 A 
ATOM     29  C   UNL     1       2.432   7.504  18.822  0.00  0.00    +0.000 A 
ATOM     30  C   UNL     1       2.261   8.508  17.865  0.00  0.00    +0.000 A 
ATOM     31  C   UNL     1       1.595   9.711  18.183  0.00  0.00    +0.000 A 
BRANCH  29  32
ATOM     32  O   UNL     1       3.099   6.365  18.480  0.00  0.00    +0.000 OA
ATOM     33  H   UNL     1       3.699   6.573  17.743  0.00  0.00    +0.000 HD
ENDBRANCH  29  32
ENDBRANCH  16  26
TORSDOF 4
ENDMDL
MODEL 3
REMARK VINA RESULT:      -6.8      0.607      1.060
REMARK  Name = 
REMARK  4 active torsions:
REMARK  status: ('A' for Active; 'I' for Inactive)
REMARK    1  A    between atoms: C_16  and  C_17
REMARK    2  A    between atoms: C_16  and  C_24
REMARK    3  A    between atoms: C_20  and  O_21
REMARK    4  A    between atoms: C_27  and  O_28
REMARK                            x       y       z     vdW  Elec       q    Type
REMARK                         _______ _______ _______ _____ _____    ______ ____
ROOT
ATOM      1  O   UNL     1       1.875  12.209  18.575  0.00  0.00    +0.000 OA
ATOM      2  C   UNL     1       1.196  12.051  19.584  0.00  0.00    +0.000 C 
ATOM      3  N   UNL     1       0.968  13.053  20.505  0.00  0.00    +0.000 N 
ATOM      4  C   UNL     1       0.055  12.633  21.454  0.00  0.00    +0.000 A 
ATOM      5  C   UNL     1      -0.056  11.234  21.456  0.00  0.00    +0.000 A 
ATOM      6  C   UNL     1      -0.935  10.627  22.349  0.00  0.00    +0.000 A 
ATOM      7  C   UNL     1      -1.814  11.450  23.082  0.00  0.00    +0.000 A 
ATOM      8  C   UNL     1      -1.853  12.856  22.892  0.00  0.00    +0.000 A 
ATOM      9  C   UNL     1      -0.907  13.454  22.042  0.00  0.00    +0.000 A 
ATOM     10  C   UNL     1      -1.085  14.866  21.550  0.00  0.00    +0.000 C 
ATOM     11  C   UNL     1      -0.212  15.893  22.238  0.00  0.00    +0.000 C 
ATOM     12  C   UNL     1      -0.211  15.979  23.769  0.00  0.00    +0.000 C 
ATOM     13  C   UNL     1      -1.155  15.134  24.636  0.00  0.00    +0.000 C 
ATOM     14  C   UNL     1      -2.601  15.024  24.153  0.00  0.00    +0.000 C 
ATOM     15  C   UNL     1      -2.980  13.669  23.512  0.00  0.00    +0.000 C 
ATOM     16  C   UNL     1       0.310  10.805  19.997  0.00  0.00    +0.000 C 
ATOM     17  H   UNL     1       1.265  14.001  20.352  0.00  0.00    +0.000 HD
ENDROOT
BRANCH  16  18
ATOM     18  C   UNL     1      -1.101  10.841  19.292  0.00  0.00    +0.000 A 
ATOM     19  C   UNL     1      -1.627   9.729  18.609  0.00  0.00    +0.000 A 
ATOM     20  C   UNL     1      -2.773   9.861  17.827  0.00  0.00    +0.000 A 
ATOM     21  C   UNL     1      -3.410  11.093  17.742  0.00  0.00    +0.000 A 
ATOM     22  C   UNL     1      -2.930  12.198  18.429  0.00  0.00    +0.000 A 
ATOM     23  C   UNL     1      -1.778  12.075  19.196  0.00  0.00    +0.000 A 
BRANCH  21  24
ATOM     24  O   UNL     1      -4.520  11.260  16.970  0.00  0.00    +0.000 OA
ATOM     25  H   UNL     1      -4.714  12.210  16.921  0.00  0.00    +0.000 HD
ENDBRANCH  21  24
ENDBRANCH  16  18
BRANCH  16  26
ATOM     26  C   UNL     1       1.075   9.546  19.575  0.00  0.00    +0.000 A 
ATOM     27  C   UNL     1       1.594   9.534  18.247  0.00  0.00    +0.000 A 
ATOM     28  C   UNL     1       2.326   8.473  17.727  0.00  0.00    +0.000 A 
ATOM     29  C   UNL     1       2.608   7.405  18.549  0.00  0.00    +0.000 A 
ATOM     30  C   UNL     1       2.174   7.401  19.877  0.00  0.00    +0.000 A 
ATOM     31  C   UNL     1       1.408   8.467  20.396  0.00  0.00    +0.000 A 
BRANCH  29  32
ATOM     32  O   UNL     1       3.328   6.346  18.081  0.00  0.00    +0.000 OA
ATOM     33  H   UNL     1       3.285   5.632  18.741  0.00  0.00    +0.000 HD
ENDBRANCH  29  32
ENDBRANCH  16  26
TORSDOF 4
ENDMDL
MODEL 4
REMARK VINA RESULT:      -6.8      2.395      3.785
REMARK  Name = 
REMARK  4 active torsions:
REMARK  status: ('A' for Active; 'I' for Inactive)
REMARK    1  A    between atoms: C_16  and  C_17
REMARK    2  A    between atoms: C_16  and  C_24
REMARK    3  A    between atoms: C_20  and  O_21
REMARK    4  A    between atoms: C_27  and  O_28
REMARK                            x       y       z     vdW  Elec       q    Type
REMARK                         _______ _______ _______ _____ _____    ______ ____
ROOT
ATOM      1  O   UNL     1       1.691   9.693  22.500  0.00  0.00    +0.000 OA
ATOM      2  C   UNL     1       0.751  10.126  21.842  0.00  0.00    +0.000 C 
ATOM      3  N   UNL     1      -0.390  10.653  22.413  0.00  0.00    +0.000 N 
ATOM      4  C   UNL     1      -1.208  11.193  21.438  0.00  0.00    +0.000 A 
ATOM      5  C   UNL     1      -0.864  10.702  20.169  0.00  0.00    +0.000 A 
ATOM      6  C   UNL     1      -1.582  11.138  19.059  0.00  0.00    +0.000 A 
ATOM      7  C   UNL     1      -2.498  12.195  19.231  0.00  0.00    +0.000 A 
ATOM      8  C   UNL     1      -2.662  12.845  20.481  0.00  0.00    +0.000 A 
ATOM      9  C   UNL     1      -1.984  12.339  21.604  0.00  0.00    +0.000 A 
ATOM     10  C   UNL     1      -1.856  13.150  22.867  0.00  0.00    +0.000 C 
ATOM     11  C   UNL     1      -2.775  12.722  23.991  0.00  0.00    +0.000 C 
ATOM     12  C   UNL     1      -4.280  12.589  23.727  0.00  0.00    +0.000 C 
ATOM     13  C   UNL     1      -4.913  12.985  22.387  0.00  0.00    +0.000 C 
ATOM     14  C   UNL     1      -4.422  14.294  21.767  0.00  0.00    +0.000 C 
ATOM     15  C   UNL     1      -3.467  14.133  20.561  0.00  0.00    +0.000 C 
ATOM     16  C   UNL     1       0.657  10.353  20.278  0.00  0.00    +0.000 C 
ATOM     17  H   UNL     1      -0.475  10.803  23.403  0.00  0.00    +0.000 HD
ENDROOT
BRANCH  16  18
ATOM     18  C   UNL     1       1.327  11.715  19.849  0.00  0.00    +0.000 A 
ATOM     19  C   UNL     1       1.732  11.969  18.526  0.00  0.00    +0.000 A 
ATOM     20  C   UNL     1       2.503  13.091  18.228  0.00  0.00    +0.000 A 
ATOM     21  C   UNL     1       2.853  13.973  19.243  0.00  0.00    +0.000 A 
ATOM     22  C   UNL     1       2.443  13.763  20.551  0.00  0.00    +0.000 A 
ATOM     23  C   UNL     1       1.688  12.636  20.855  0.00  0.00    +0.000 A 
BRANCH  21  24
ATOM     24  O   UNL     1       3.623  15.068  18.990  0.00  0.00    +0.000 OA
ATOM     25  H   UNL     1       3.036  15.833  18.880  0.00  0.00    +0.000 HD
ENDBRANCH  21  24
ENDBRANCH  16  18
BRANCH  16  26
ATOM     26  C   UNL     1       1.379   9.179  19.607  0.00  0.00    +0.000 A 
ATOM     27  C   UNL     1       1.575   8.014  20.405  0.00  0.00    +0.000 A 
ATOM     28  C   UNL     1       2.194   6.864  19.931  0.00  0.00    +0.000 A 
ATOM     29  C   UNL     1       2.592   6.828  18.614  0.00  0.00    +0.000 A 
ATOM     30  C   UNL     1       2.364   7.923  17.777  0.00  0.00    +0.000 A 
ATOM     31  C   UNL     1       1.759   9.100  18.266  0.00  0.00    +0.000 A 
BRANCH  29  32
ATOM     32  O   UNL     1       3.199   5.717  18.106  0.00  0.00    +0.000 OA
ATOM     33  H   UNL     1       3.036   4.976  18.715  0.00  0.00    +0.000 HD
ENDBRANCH  29  32
ENDBRANCH  16  26
TORSDOF 4
ENDMDL
MODEL 5
REMARK VINA RESULT:      -6.7      2.432      3.968
REMARK  Name = 
REMARK  4 active torsions:
REMARK  status: ('A' for Active; 'I' for Inactive)
REMARK    1  A    between atoms: C_16  and  C_17
REMARK    2  A    between atoms: C_16  and  C_24
REMARK    3  A    between atoms: C_20  and  O_21
REMARK    4  A    between atoms: C_27  and  O_28
REMARK                            x       y       z     vdW  Elec       q    Type
REMARK                         _______ _______ _______ _____ _____    ______ ____
ROOT
ATOM      1  O   UNL     1      -1.309  11.821  17.701  0.00  0.00    +0.000 OA
ATOM      2  C   UNL     1      -0.589  12.518  18.409  0.00  0.00    +0.000 C 
ATOM      3  N   UNL     1      -0.442  13.877  18.229  0.00  0.00    +0.000 N 
ATOM      4  C   UNL     1       0.307  14.419  19.257  0.00  0.00    +0.000 A 
ATOM      5  C   UNL     1       1.026  13.419  19.931  0.00  0.00    +0.000 A 
ATOM      6  C   UNL     1       1.839  13.778  21.003  0.00  0.00    +0.000 A 
ATOM      7  C   UNL     1       1.760  15.100  21.485  0.00  0.00    +0.000 A 
ATOM      8  C   UNL     1       0.848  16.041  20.941  0.00  0.00    +0.000 A 
ATOM      9  C   UNL     1       0.092  15.680  19.812  0.00  0.00    +0.000 A 
ATOM     10  C   UNL     1      -1.104  16.489  19.385  0.00  0.00    +0.000 C 
ATOM     11  C   UNL     1      -0.869  17.382  18.184  0.00  0.00    +0.000 C 
ATOM     12  C   UNL     1       0.317  18.353  18.185  0.00  0.00    +0.000 C 
ATOM     13  C   UNL     1       1.219  18.540  19.413  0.00  0.00    +0.000 C 
ATOM     14  C   UNL     1       0.512  18.631  20.765  0.00  0.00    +0.000 C 
ATOM     15  C   UNL     1       0.620  17.367  21.650  0.00  0.00    +0.000 C 
ATOM     16  C   UNL     1       0.176  12.121  19.738  0.00  0.00    +0.000 C 
ATOM     17  H   UNL     1      -0.994  14.394  17.567  0.00  0.00    +0.000 HD
ENDROOT
BRANCH  16  18
ATOM     18  C   UNL     1      -0.779  12.176  20.993  0.00  0.00    +0.000 A 
ATOM     19  C   UNL     1      -0.451  11.557  22.213  0.00  0.00    +0.000 A 
ATOM     20  C   UNL     1      -1.402  11.449  23.226  0.00  0.00    +0.000 A 
ATOM     21  C   UNL     1      -2.673  11.977  23.035  0.00  0.00    +0.000 A 
ATOM     22  C   UNL     1      -3.014  12.619  21.854  0.00  0.00    +0.000 A 
ATOM     23  C   UNL     1      -2.074  12.713  20.835  0.00  0.00    +0.000 A 
BRANCH  21  24
ATOM     24  O   UNL     1      -3.632  11.870  23.996  0.00  0.00    +0.000 OA
ATOM     25  H   UNL     1      -4.340  11.301  23.655  0.00  0.00    +0.000 HD
ENDBRANCH  21  24
ENDBRANCH  16  18
BRANCH  16  26
ATOM     26  C   UNL     1       0.707  10.696  19.546  0.00  0.00    +0.000 A 
ATOM     27  C   UNL     1       1.478  10.459  18.369  0.00  0.00    +0.000 A 
ATOM     28  C   UNL     1       2.043   9.226  18.067  0.00  0.00    +0.000 A 
ATOM     29  C   UNL     1       1.896   8.198  18.970  0.00  0.00    +0.000 A 
ATOM     30  C   UNL     1       1.203   8.401  20.166  0.00  0.00    +0.000 A 
ATOM     31  C   UNL     1       0.607   9.646  20.460  0.00  0.00    +0.000 A 
BRANCH  29  32
ATOM     32  O   UNL     1       2.440   6.974  18.716  0.00  0.00    +0.000 OA
ATOM     33  H   UNL     1       3.074   7.068  17.984  0.00  0.00    +0.000 HD
ENDBRANCH  29  32
ENDBRANCH  16  26
TORSDOF 4
ENDMDL
MODEL 6
REMARK VINA RESULT:      -6.6      0.400      1.286
REMARK  Name = 
REMARK  4 active torsions:
REMARK  status: ('A' for Active; 'I' for Inactive)
REMARK    1  A    between atoms: C_16  and  C_17
REMARK    2  A    between atoms: C_16  and  C_24
REMARK    3  A    between atoms: C_20  and  O_21
REMARK    4  A    between atoms: C_27  and  O_28
REMARK                            x       y       z     vdW  Elec       q    Type
REMARK                         _______ _______ _______ _____ _____    ______ ____
ROOT
ATOM      1  O   UNL     1       2.305  11.964  18.204  0.00  0.00    +0.000 OA
ATOM      2  C   UNL     1       1.566  11.903  19.181  0.00  0.00    +0.000 C 
ATOM      3  N   UNL     1       1.357  12.964  20.037  0.00  0.00    +0.000 N 
ATOM      4  C   UNL     1       0.370  12.653  20.954  0.00  0.00    +0.000 A 
ATOM      5  C   UNL     1       0.167  11.266  21.018  0.00  0.00    +0.000 A 
ATOM      6  C   UNL     1      -0.795  10.764  21.889  0.00  0.00    +0.000 A 
ATOM      7  C   UNL     1      -1.656  11.678  22.531  0.00  0.00    +0.000 A 
ATOM      8  C   UNL     1      -1.592  13.071  22.271  0.00  0.00    +0.000 A 
ATOM      9  C   UNL     1      -0.565  13.563  21.447  0.00  0.00    +0.000 A 
ATOM     10  C   UNL     1      -0.624  14.955  20.877  0.00  0.00    +0.000 C 
ATOM     11  C   UNL     1       0.279  15.960  21.562  0.00  0.00    +0.000 C 
ATOM     12  C   UNL     1       0.205  16.126  23.085  0.00  0.00    +0.000 C 
ATOM     13  C   UNL     1      -0.836  15.388  23.938  0.00  0.00    +0.000 C 
ATOM     14  C   UNL     1      -2.260  15.346  23.382  0.00  0.00    +0.000 C 
ATOM     15  C   UNL     1      -2.693  13.985  22.788  0.00  0.00    +0.000 C 
ATOM     16  C   UNL     1       0.579  10.739  19.604  0.00  0.00    +0.000 C 
ATOM     17  H   UNL     1       1.723  13.882  19.855  0.00  0.00    +0.000 HD
ENDROOT
BRANCH  16  18
ATOM     18  C   UNL     1      -0.788  10.827  18.821  0.00  0.00    +0.000 A 
ATOM     19  C   UNL     1      -1.454  12.048  18.609  0.00  0.00    +0.000 A 
ATOM     20  C   UNL     1      -2.752  12.064  18.101  0.00  0.00    +0.000 A 
ATOM     21  C   UNL     1      -3.379  10.866  17.781  0.00  0.00    +0.000 A 
ATOM     22  C   UNL     1      -2.735   9.649  17.951  0.00  0.00    +0.000 A 
ATOM     23  C   UNL     1      -1.447   9.629  18.475  0.00  0.00    +0.000 A 
BRANCH  21  24
ATOM     24  O   UNL     1      -4.654  10.845  17.301  0.00  0.00    +0.000 OA
ATOM     25  H   UNL     1      -5.260  10.781  18.057  0.00  0.00    +0.000 HD
ENDBRANCH  21  24
ENDBRANCH  16  18
BRANCH  16  26
ATOM     26  C   UNL     1       1.280   9.414  19.287  0.00  0.00    +0.000 A 
ATOM     27  C   UNL     1       1.825   9.281  17.976  0.00  0.00    +0.000 A 
ATOM     28  C   UNL     1       2.506   8.148  17.547  0.00  0.00    +0.000 A 
ATOM     29  C   UNL     1       2.710   7.126  18.446  0.00  0.00    +0.000 A 
ATOM     30  C   UNL     1       2.249   7.237  19.760  0.00  0.00    +0.000 A 
ATOM     31  C   UNL     1       1.535   8.377  20.187  0.00  0.00    +0.000 A 
BRANCH  29  32
ATOM     32  O   UNL     1       3.379   5.999  18.069  0.00  0.00    +0.000 OA
ATOM     33  H   UNL     1       4.223   6.266  17.665  0.00  0.00    +0.000 HD
ENDBRANCH  29  32
ENDBRANCH  16  26
TORSDOF 4
ENDMDL
MODEL 7
REMARK VINA RESULT:      -6.6      2.378      3.780
REMARK  Name = 
REMARK  4 active torsions:
REMARK  status: ('A' for Active; 'I' for Inactive)
REMARK    1  A    between atoms: C_16  and  C_17
REMARK    2  A    between atoms: C_16  and  C_24
REMARK    3  A    between atoms: C_20  and  O_21
REMARK    4  A    between atoms: C_27  and  O_28
REMARK                            x       y       z     vdW  Elec       q    Type
REMARK                         _______ _______ _______ _____ _____    ______ ____
ROOT
ATOM      1  O   UNL     1       1.571   9.596  22.616  0.00  0.00    +0.000 OA
ATOM      2  C   UNL     1       0.663  10.058  21.934  0.00  0.00    +0.000 C 
ATOM      3  N   UNL     1      -0.474  10.623  22.474  0.00  0.00    +0.000 N 
ATOM      4  C   UNL     1      -1.249  11.187  21.479  0.00  0.00    +0.000 A 
ATOM      5  C   UNL     1      -0.889  10.683  20.219  0.00  0.00    +0.000 A 
ATOM      6  C   UNL     1      -1.563  11.140  19.091  0.00  0.00    +0.000 A 
ATOM      7  C   UNL     1      -2.448  12.228  19.238  0.00  0.00    +0.000 A 
ATOM      8  C   UNL     1      -2.623  12.885  20.483  0.00  0.00    +0.000 A 
ATOM      9  C   UNL     1      -1.991  12.359  21.624  0.00  0.00    +0.000 A 
ATOM     10  C   UNL     1      -1.869  13.167  22.888  0.00  0.00    +0.000 C 
ATOM     11  C   UNL     1      -2.830  12.771  23.990  0.00  0.00    +0.000 C 
ATOM     12  C   UNL     1      -4.331  12.687  23.687  0.00  0.00    +0.000 C 
ATOM     13  C   UNL     1      -4.916  13.102  22.330  0.00  0.00    +0.000 C 
ATOM     14  C   UNL     1      -4.367  14.393  21.722  0.00  0.00    +0.000 C 
ATOM     15  C   UNL     1      -3.387  14.199  20.542  0.00  0.00    +0.000 C 
ATOM     16  C   UNL     1       0.616  10.284  20.367  0.00  0.00    +0.000 C 
ATOM     17  H   UNL     1      -0.580  10.777  23.462  0.00  0.00    +0.000 HD
ENDROOT
BRANCH  16  18
ATOM     18  C   UNL     1       1.342  11.623  19.955  0.00  0.00    +0.000 A 
ATOM     19  C   UNL     1       1.624  12.641  20.885  0.00  0.00    +0.000 A 
ATOM     20  C   UNL     1       2.074  13.887  20.452  0.00  0.00    +0.000 A 
ATOM     21  C   UNL     1       2.264  14.114  19.094  0.00  0.00    +0.000 A 
ATOM     22  C   UNL     1       2.022  13.120  18.158  0.00  0.00    +0.000 A 
ATOM     23  C   UNL     1       1.557  11.882  18.585  0.00  0.00    +0.000 A 
BRANCH  21  24
ATOM     24  O   UNL     1       2.683  15.327  18.635  0.00  0.00    +0.000 OA
ATOM     25  H   UNL     1       2.317  16.013  19.217  0.00  0.00    +0.000 HD
ENDBRANCH  21  24
ENDBRANCH  16  18
BRANCH  16  26
ATOM     26  C   UNL     1       1.317   9.087  19.716  0.00  0.00    +0.000 A 
ATOM     27  C   UNL     1       1.712   9.246  18.355  0.00  0.00    +0.000 A 
ATOM     28  C   UNL     1       2.374   8.258  17.636  0.00  0.00    +0.000 A 
ATOM     29  C   UNL     1       2.711   7.090  18.283  0.00  0.00    +0.000 A 
ATOM     30  C   UNL     1       2.400   6.915  19.633  0.00  0.00    +0.000 A 
ATOM     31  C   UNL     1       1.704   7.908  20.355  0.00  0.00    +0.000 A 
BRANCH  29  32
ATOM     32  O   UNL     1       3.366   6.097  17.616  0.00  0.00    +0.000 OA
ATOM     33  H   UNL     1       4.086   6.499  17.100  0.00  0.00    +0.000 HD
ENDBRANCH  29  32
ENDBRANCH  16  26
TORSDOF 4
ENDMDL
MODEL 8
REMARK VINA RESULT:      -6.6      2.836      6.239
REMARK  Name = 
REMARK  4 active torsions:
REMARK  status: ('A' for Active; 'I' for Inactive)
REMARK    1  A    between atoms: C_16  and  C_17
REMARK    2  A    between atoms: C_16  and  C_24
REMARK    3  A    between atoms: C_20  and  O_21
REMARK    4  A    between atoms: C_27  and  O_28
REMARK                            x       y       z     vdW  Elec       q    Type
REMARK                         _______ _______ _______ _____ _____    ______ ____
ROOT
ATOM      1  O   UNL     1       2.269  12.404  18.309  0.00  0.00    +0.000 OA
ATOM      2  C   UNL     1       1.107  12.644  18.619  0.00  0.00    +0.000 C 
ATOM      3  N   UNL     1       0.028  12.284  17.839  0.00  0.00    +0.000 N 
ATOM      4  C   UNL     1      -1.155  12.549  18.503  0.00  0.00    +0.000 A 
ATOM      5  C   UNL     1      -0.944  13.453  19.556  0.00  0.00    +0.000 A 
ATOM      6  C   UNL     1      -2.026  13.838  20.343  0.00  0.00    +0.000 A 
ATOM      7  C   UNL     1      -3.250  13.161  20.170  0.00  0.00    +0.000 A 
ATOM      8  C   UNL     1      -3.383  12.080  19.260  0.00  0.00    +0.000 A 
ATOM      9  C   UNL     1      -2.301  11.759  18.423  0.00  0.00    +0.000 A 
ATOM     10  C   UNL     1      -2.254  10.451  17.678  0.00  0.00    +0.000 C 
ATOM     11  C   UNL     1      -2.575  10.549  16.202  0.00  0.00    +0.000 C 
ATOM     12  C   UNL     1      -3.869  11.241  15.755  0.00  0.00    +0.000 C 
ATOM     13  C   UNL     1      -4.916  11.743  16.759  0.00  0.00    +0.000 C 
ATOM     14  C   UNL     1      -5.240  10.807  17.924  0.00  0.00    +0.000 C 
ATOM     15  C   UNL     1      -4.639  11.222  19.288  0.00  0.00    +0.000 C 
ATOM     16  C   UNL     1       0.545  13.228  19.980  0.00  0.00    +0.000 C 
ATOM     17  H   UNL     1       0.126  11.716  17.015  0.00  0.00    +0.000 HD
ENDROOT
BRANCH  16  18
ATOM     18  C   UNL     1       0.397  12.103  21.075  0.00  0.00    +0.000 A 
ATOM     19  C   UNL     1       0.989  10.834  20.933  0.00  0.00    +0.000 A 
ATOM     20  C   UNL     1       0.668   9.804  21.814  0.00  0.00    +0.000 A 
ATOM     21  C   UNL     1      -0.226  10.041  22.851  0.00  0.00    +0.000 A 
ATOM     22  C   UNL     1      -0.802  11.289  23.033  0.00  0.00    +0.000 A 
ATOM     23  C   UNL     1      -0.497  12.314  22.146  0.00  0.00    +0.000 A 
BRANCH  21  24
ATOM     24  O   UNL     1      -0.578   9.050  23.717  0.00  0.00    +0.000 OA
ATOM     25  H   UNL     1      -1.462   9.251  24.065  0.00  0.00    +0.000 HD
ENDBRANCH  21  24
ENDBRANCH  16  18
BRANCH  16  26
ATOM     26  C   UNL     1       1.535  14.297  20.456  0.00  0.00    +0.000 A 
ATOM     27  C   UNL     1       1.242  15.643  20.087  0.00  0.00    +0.000 A 
ATOM     28  C   UNL     1       2.033  16.722  20.461  0.00  0.00    +0.000 A 
ATOM     29  C   UNL     1       3.123  16.488  21.270  0.00  0.00    +0.000 A 
ATOM     30  C   UNL     1       3.413  15.194  21.708  0.00  0.00    +0.000 A 
ATOM     31  C   UNL     1       2.624  14.095  21.306  0.00  0.00    +0.000 A 
BRANCH  29  32
ATOM     32  O   UNL     1       3.923  17.520  21.665  0.00  0.00    +0.000 OA
ATOM     33  H   UNL     1       3.570  18.342  21.285  0.00  0.00    +0.000 HD
ENDBRANCH  29  32
ENDBRANCH  16  26
TORSDOF 4
ENDMDL
MODEL 9
REMARK VINA RESULT:      -6.4      3.129      5.551
REMARK  Name = 
REMARK  4 active torsions:
REMARK  status: ('A' for Active; 'I' for Inactive)
REMARK    1  A    between atoms: C_16  and  C_17
REMARK    2  A    between atoms: C_16  and  C_24
REMARK    3  A    between atoms: C_20  and  O_21
REMARK    4  A    between atoms: C_27  and  O_28
REMARK                            x       y       z     vdW  Elec       q    Type
REMARK                         _______ _______ _______ _____ _____    ______ ____
ROOT
ATOM      1  O   UNL     1      -1.460  10.899  17.401  0.00  0.00    +0.000 OA
ATOM      2  C   UNL     1      -1.962  11.663  18.218  0.00  0.00    +0.000 C 
ATOM      3  N   UNL     1      -3.320  11.888  18.306  0.00  0.00    +0.000 N 
ATOM      4  C   UNL     1      -3.607  12.676  19.405  0.00  0.00    +0.000 A 
ATOM      5  C   UNL     1      -2.456  13.340  19.856  0.00  0.00    +0.000 A 
ATOM      6  C   UNL     1      -2.550  14.181  20.962  0.00  0.00    +0.000 A 
ATOM      7  C   UNL     1      -3.754  14.184  21.696  0.00  0.00    +0.000 A 
ATOM      8  C   UNL     1      -4.832  13.323  21.364  0.00  0.00    +0.000 A 
ATOM      9  C   UNL     1      -4.744  12.539  20.201  0.00  0.00    +0.000 A 
ATOM     10  C   UNL     1      -5.686  11.389  19.963  0.00  0.00    +0.000 C 
ATOM     11  C   UNL     1      -6.784  11.666  18.957  0.00  0.00    +0.000 C 
ATOM     12  C   UNL     1      -7.668  12.907  19.126  0.00  0.00    +0.000 C 
ATOM     13  C   UNL     1      -7.559  13.828  20.349  0.00  0.00    +0.000 C 
ATOM     14  C   UNL     1      -7.421  13.137  21.706  0.00  0.00    +0.000 C 
ATOM     15  C   UNL     1      -6.004  13.178  22.324  0.00  0.00    +0.000 C 
ATOM     16  C   UNL     1      -1.270  12.414  19.428  0.00  0.00    +0.000 C 
ATOM     17  H   UNL     1      -3.988  11.363  17.768  0.00  0.00    +0.000 HD
ENDROOT
BRANCH  16  18
ATOM     18  C   UNL     1      -1.130  11.475  20.688  0.00  0.00    +0.000 A 
ATOM     19  C   UNL     1      -1.264  11.957  22.003  0.00  0.00    +0.000 A 
ATOM     20  C   UNL     1      -0.930  11.148  23.087  0.00  0.00    +0.000 A 
ATOM     21  C   UNL     1      -0.485   9.850  22.865  0.00  0.00    +0.000 A 
ATOM     22  C   UNL     1      -0.371   9.339  21.581  0.00  0.00    +0.000 A 
ATOM     23  C   UNL     1      -0.687  10.149  20.497  0.00  0.00    +0.000 A 
BRANCH  21  24
ATOM     24  O   UNL     1      -0.131   9.041  23.902  0.00  0.00    +0.000 OA
ATOM     25  H   UNL     1      -0.143   9.569  24.717  0.00  0.00    +0.000 HD
ENDBRANCH  21  24
ENDBRANCH  16  18
BRANCH  16  26
ATOM     26  C   UNL     1       0.116  12.860  18.950  0.00  0.00    +0.000 A 
ATOM     27  C   UNL     1       0.344  14.267  18.885  0.00  0.00    +0.000 A 
ATOM     28  C   UNL     1       1.554  14.823  18.491  0.00  0.00    +0.000 A 
ATOM     29  C   UNL     1       2.601  13.978  18.199  0.00  0.00    +0.000 A 
ATOM     30  C   UNL     1       2.444  12.594  18.309  0.00  0.00    +0.000 A 
ATOM     31  C   UNL     1       1.206  12.029  18.684  0.00  0.00    +0.000 A 
BRANCH  29  32
ATOM     32  O   UNL     1       3.808  14.482  17.814  0.00  0.00    +0.000 OA
ATOM     33  H   UNL     1       4.318  13.766  17.397  0.00  0.00    +0.000 HD
ENDBRANCH  29  32
ENDBRANCH  16  26
TORSDOF 4
ENDMDL
