MODEL 1
REMARK VINA RESULT:      -6.5      0.000      0.000
REMARK  Name = 
REMARK  1 active torsions:
REMARK  status: ('A' for Active; 'I' for Inactive)
REMARK    1  A    between atoms: C_4  and  C_5
REMARK                            x       y       z     vdW  Elec       q    Type
REMARK                         _______ _______ _______ _____ _____    ______ ____
ROOT
ATOM      1  C   UNL     1       3.730   4.728  18.599  0.00  0.00    +0.000 A 
ATOM      2  C   UNL     1       3.825   5.555  17.382  0.00  0.00    +0.000 A 
ATOM      3  C   UNL     1       4.966   6.199  17.086  0.00  0.00    +0.000 A 
ATOM      4  N   UNL     1       6.049   6.079  17.946  0.00  0.00    +0.000 N 
ATOM      5  C   UNL     1       7.303   6.625  17.853  0.00  0.00    +0.000 A 
ATOM      6  C   UNL     1       7.976   6.182  18.967  0.00  0.00    +0.000 A 
ATOM      7  N   UNL     1       7.175   5.382  19.743  0.00  0.00    +0.000 NA
ATOM      8  C   UNL     1       6.019   5.328  19.113  0.00  0.00    +0.000 A 
ATOM      9  C   UNL     1       4.807   4.644  19.421  0.00  0.00    +0.000 A 
ENDROOT
BRANCH   1  13
ATOM     10  C   UNL     1       0.695   3.158  19.996  0.00  0.00    +0.000 A 
ATOM     11  C   UNL     1       0.886   2.517  18.800  0.00  0.00    +0.000 A 
ATOM     12  O   UNL     1       1.985   2.999  18.176  0.00  0.00    +0.000 OA
ATOM     13  C   UNL     1       2.550   3.988  18.962  0.00  0.00    +0.000 A 
ATOM     14  C   UNL     1       1.751   4.093  20.101  0.00  0.00    +0.000 A 
ENDBRANCH   1  13
TORSDOF 1
ENDMDL
MODEL 2
REMARK VINA RESULT:      -6.4      2.849      5.240
REMARK  Name = 
REMARK  1 active torsions:
REMARK  status: ('A' for Active; 'I' for Inactive)
REMARK    1  A    between atoms: C_4  and  C_5
REMARK                            x       y       z     vdW  Elec       q    Type
REMARK                         _______ _______ _______ _____ _____    ______ ____
ROOT
ATOM      1  C   UNL     1       3.997   3.853  18.012  0.00  0.00    +0.000 A 
ATOM      2  C   UNL     1       2.614   4.058  17.545  0.00  0.00    +0.000 A 
ATOM      3  C   UNL     1       1.578   3.808  18.362  0.00  0.00    +0.000 A 
ATOM      4  N   UNL     1       1.830   3.348  19.647  0.00  0.00    +0.000 N 
ATOM      5  C   UNL     1       0.950   3.039  20.652  0.00  0.00    +0.000 A 
ATOM      6  C   UNL     1       1.733   2.638  21.709  0.00  0.00    +0.000 A 
ATOM      7  N   UNL     1       3.066   2.689  21.386  0.00  0.00    +0.000 NA
ATOM      8  C   UNL     1       3.106   3.123  20.142  0.00  0.00    +0.000 A 
ATOM      9  C   UNL     1       4.203   3.392  19.271  0.00  0.00    +0.000 A 
ENDROOT
BRANCH   1  13
ATOM     10  C   UNL     1       6.615   4.495  15.490  0.00  0.00    +0.000 A 
ATOM     11  C   UNL     1       7.262   4.636  16.689  0.00  0.00    +0.000 A 
ATOM     12  O   UNL     1       6.407   4.419  17.715  0.00  0.00    +0.000 OA
ATOM     13  C   UNL     1       5.155   4.127  17.201  0.00  0.00    +0.000 A 
ATOM     14  C   UNL     1       5.277   4.172  15.812  0.00  0.00    +0.000 A 
ENDBRANCH   1  13
TORSDOF 1
ENDMDL
MODEL 3
REMARK VINA RESULT:      -6.4      0.754      1.012
REMARK  Name = 
REMARK  1 active torsions:
REMARK  status: ('A' for Active; 'I' for Inactive)
REMARK    1  A    between atoms: C_4  and  C_5
REMARK                            x       y       z     vdW  Elec       q    Type
REMARK                         _______ _______ _______ _____ _____    ______ ____
ROOT
ATOM      1  C   UNL     1       3.834   4.431  18.480  0.00  0.00    +0.000 A 
ATOM      2  C   UNL     1       3.998   5.077  17.165  0.00  0.00    +0.000 A 
ATOM      3  C   UNL     1       5.132   5.734  16.869  0.00  0.00    +0.000 A 
ATOM      4  N   UNL     1       6.140   5.798  17.820  0.00  0.00    +0.000 N 
ATOM      5  C   UNL     1       7.373   6.393  17.746  0.00  0.00    +0.000 A 
ATOM      6  C   UNL     1       7.967   6.152  18.963  0.00  0.00    +0.000 A 
ATOM      7  N   UNL     1       7.137   5.430  19.784  0.00  0.00    +0.000 NA
ATOM      8  C   UNL     1       6.043   5.223  19.078  0.00  0.00    +0.000 A 
ATOM      9  C   UNL     1       4.838   4.525  19.388  0.00  0.00    +0.000 A 
ENDROOT
BRANCH   1  13
ATOM     10  C   UNL     1       0.753   2.438  18.883  0.00  0.00    +0.000 A 
ATOM     11  C   UNL     1       1.131   2.735  20.165  0.00  0.00    +0.000 A 
ATOM     12  O   UNL     1       2.263   3.478  20.164  0.00  0.00    +0.000 OA
ATOM     13  C   UNL     1       2.659   3.687  18.855  0.00  0.00    +0.000 A 
ATOM     14  C   UNL     1       1.721   3.041  18.048  0.00  0.00    +0.000 A 
ENDBRANCH   1  13
TORSDOF 1
ENDMDL
MODEL 4
REMARK VINA RESULT:      -6.3      3.728      5.913
REMARK  Name = 
REMARK  1 active torsions:
REMARK  status: ('A' for Active; 'I' for Inactive)
REMARK    1  A    between atoms: C_4  and  C_5
REMARK                            x       y       z     vdW  Elec       q    Type
REMARK                         _______ _______ _______ _____ _____    ______ ____
ROOT
ATOM      1  C   UNL     1       6.276   4.504  15.712  0.00  0.00    +0.000 A 
ATOM      2  C   UNL     1       7.128   4.748  16.890  0.00  0.00    +0.000 A 
ATOM      3  C   UNL     1       6.621   4.635  18.129  0.00  0.00    +0.000 A 
ATOM      4  N   UNL     1       5.285   4.291  18.280  0.00  0.00    +0.000 N 
ATOM      5  C   UNL     1       4.556   4.108  19.426  0.00  0.00    +0.000 A 
ATOM      6  C   UNL     1       3.290   3.776  19.003  0.00  0.00    +0.000 A 
ATOM      7  N   UNL     1       3.218   3.752  17.632  0.00  0.00    +0.000 NA
ATOM      8  C   UNL     1       4.428   4.061  17.213  0.00  0.00    +0.000 A 
ATOM      9  C   UNL     1       4.972   4.181  15.900  0.00  0.00    +0.000 A 
ENDROOT
BRANCH   1  13
ATOM     10  C   UNL     1       7.131   4.292  12.127  0.00  0.00    +0.000 A 
ATOM     11  C   UNL     1       7.947   5.281  12.609  0.00  0.00    +0.000 A 
ATOM     12  O   UNL     1       7.738   5.461  13.934  0.00  0.00    +0.000 OA
ATOM     13  C   UNL     1       6.759   4.579  14.357  0.00  0.00    +0.000 A 
ATOM     14  C   UNL     1       6.375   3.845  13.235  0.00  0.00    +0.000 A 
ENDBRANCH   1  13
TORSDOF 1
ENDMDL
MODEL 5
REMARK VINA RESULT:      -6.2      3.545      5.518
REMARK  Name = 
REMARK  1 active torsions:
REMARK  status: ('A' for Active; 'I' for Inactive)
REMARK    1  A    between atoms: C_4  and  C_5
REMARK                            x       y       z     vdW  Elec       q    Type
REMARK                         _______ _______ _______ _____ _____    ______ ____
ROOT
ATOM      1  C   UNL     1       5.534   4.980  15.562  0.00  0.00    +0.000 A 
ATOM      2  C   UNL     1       5.211   6.348  16.006  0.00  0.00    +0.000 A 
ATOM      3  C   UNL     1       4.627   6.555  17.198  0.00  0.00    +0.000 A 
ATOM      4  N   UNL     1       4.330   5.463  18.000  0.00  0.00    +0.000 N 
ATOM      5  C   UNL     1       3.754   5.424  19.243  0.00  0.00    +0.000 A 
ATOM      6  C   UNL     1       3.696   4.091  19.576  0.00  0.00    +0.000 A 
ATOM      7  N   UNL     1       4.216   3.309  18.575  0.00  0.00    +0.000 NA
ATOM      8  C   UNL     1       4.596   4.151  17.635  0.00  0.00    +0.000 A 
ATOM      9  C   UNL     1       5.217   3.936  16.370  0.00  0.00    +0.000 A 
ENDROOT
BRANCH   1  13
ATOM     10  C   UNL     1       6.789   3.840  12.284  0.00  0.00    +0.000 A 
ATOM     11  C   UNL     1       7.647   4.845  12.641  0.00  0.00    +0.000 A 
ATOM     12  O   UNL     1       7.300   5.357  13.845  0.00  0.00    +0.000 OA
ATOM     13  C   UNL     1       6.184   4.686  14.311  0.00  0.00    +0.000 A 
ATOM     14  C   UNL     1       5.858   3.737  13.342  0.00  0.00    +0.000 A 
ENDBRANCH   1  13
TORSDOF 1
ENDMDL
MODEL 6
REMARK VINA RESULT:      -6.2      1.833      2.577
REMARK  Name = 
REMARK  1 active torsions:
REMARK  status: ('A' for Active; 'I' for Inactive)
REMARK    1  A    between atoms: C_4  and  C_5
REMARK                            x       y       z     vdW  Elec       q    Type
REMARK                         _______ _______ _______ _____ _____    ______ ____
ROOT
ATOM      1  C   UNL     1       3.998   3.992  18.296  0.00  0.00    +0.000 A 
ATOM      2  C   UNL     1       5.246   4.384  18.975  0.00  0.00    +0.000 A 
ATOM      3  C   UNL     1       6.349   4.661  18.261  0.00  0.00    +0.000 A 
ATOM      4  N   UNL     1       6.296   4.567  16.877  0.00  0.00    +0.000 N 
ATOM      5  C   UNL     1       7.274   4.808  15.947  0.00  0.00    +0.000 A 
ATOM      6  C   UNL     1       6.684   4.567  14.729  0.00  0.00    +0.000 A 
ATOM      7  N   UNL     1       5.375   4.183  14.880  0.00  0.00    +0.000 NA
ATOM      8  C   UNL     1       5.157   4.192  16.180  0.00  0.00    +0.000 A 
ATOM      9  C   UNL     1       3.988   3.901  16.943  0.00  0.00    +0.000 A 
ENDROOT
BRANCH   1  13
ATOM     10  C   UNL     1       1.044   3.634  20.481  0.00  0.00    +0.000 A 
ATOM     11  C   UNL     1       0.772   2.822  19.411  0.00  0.00    +0.000 A 
ATOM     12  O   UNL     1       1.791   2.855  18.522  0.00  0.00    +0.000 OA
ATOM     13  C   UNL     1       2.772   3.709  18.997  0.00  0.00    +0.000 A 
ATOM     14  C   UNL     1       2.313   4.198  20.220  0.00  0.00    +0.000 A 
ENDBRANCH   1  13
TORSDOF 1
ENDMDL
MODEL 7
REMARK VINA RESULT:      -6.2      2.577      5.398
REMARK  Name = 
REMARK  1 active torsions:
REMARK  status: ('A' for Active; 'I' for Inactive)
REMARK    1  A    between atoms: C_4  and  C_5
REMARK                            x       y       z     vdW  Elec       q    Type
REMARK                         _______ _______ _______ _____ _____    ______ ____
ROOT
ATOM      1  C   UNL     1       4.672   4.662  18.454  0.00  0.00    +0.000 A 
ATOM      2  C   UNL     1       4.201   3.820  17.339  0.00  0.00    +0.000 A 
ATOM      3  C   UNL     1       3.026   3.176  17.423  0.00  0.00    +0.000 A 
ATOM      4  N   UNL     1       2.267   3.311  18.577  0.00  0.00    +0.000 N 
ATOM      5  C   UNL     1       1.047   2.768  18.888  0.00  0.00    +0.000 A 
ATOM      6  C   UNL     1       0.755   3.228  20.151  0.00  0.00    +0.000 A 
ATOM      7  N   UNL     1       1.758   4.035  20.627  0.00  0.00    +0.000 NA
ATOM      8  C   UNL     1       2.659   4.076  19.666  0.00  0.00    +0.000 A 
ATOM      9  C   UNL     1       3.907   4.760  19.570  0.00  0.00    +0.000 A 
ENDROOT
BRANCH   1  13
ATOM     10  C   UNL     1       7.608   6.836  17.927  0.00  0.00    +0.000 A 
ATOM     11  C   UNL     1       7.943   6.078  19.017  0.00  0.00    +0.000 A 
ATOM     12  O   UNL     1       6.941   5.219  19.321  0.00  0.00    +0.000 OA
ATOM     13  C   UNL     1       5.907   5.402  18.420  0.00  0.00    +0.000 A 
ATOM     14  C   UNL     1       6.315   6.410  17.546  0.00  0.00    +0.000 A 
ENDBRANCH   1  13
TORSDOF 1
ENDMDL
MODEL 8
REMARK VINA RESULT:      -6.1      2.604      5.494
REMARK  Name = 
REMARK  1 active torsions:
REMARK  status: ('A' for Active; 'I' for Inactive)
REMARK    1  A    between atoms: C_4  and  C_5
REMARK                            x       y       z     vdW  Elec       q    Type
REMARK                         _______ _______ _______ _____ _____    ______ ____
ROOT
ATOM      1  C   UNL     1       4.416   4.995  19.060  0.00  0.00    +0.000 A 
ATOM      2  C   UNL     1       3.394   5.745  19.811  0.00  0.00    +0.000 A 
ATOM      3  C   UNL     1       2.165   5.231  19.985  0.00  0.00    +0.000 A 
ATOM      4  N   UNL     1       1.874   3.987  19.442  0.00  0.00    +0.000 N 
ATOM      5  C   UNL     1       0.712   3.262  19.496  0.00  0.00    +0.000 A 
ATOM      6  C   UNL     1       0.972   2.106  18.798  0.00  0.00    +0.000 A 
ATOM      7  N   UNL     1       2.257   2.098  18.316  0.00  0.00    +0.000 NA
ATOM      8  C   UNL     1       2.787   3.237  18.715  0.00  0.00    +0.000 A 
ATOM      9  C   UNL     1       4.090   3.787  18.535  0.00  0.00    +0.000 A 
ENDROOT
BRANCH   1  13
ATOM     10  C   UNL     1       7.658   6.457  18.071  0.00  0.00    +0.000 A 
ATOM     11  C   UNL     1       7.919   5.838  19.265  0.00  0.00    +0.000 A 
ATOM     12  O   UNL     1       6.800   5.247  19.744  0.00  0.00    +0.000 OA
ATOM     13  C   UNL     1       5.760   5.472  18.859  0.00  0.00    +0.000 A 
ATOM     14  C   UNL     1       6.287   6.227  17.811  0.00  0.00    +0.000 A 
ENDBRANCH   1  13
TORSDOF 1
ENDMDL
MODEL 9
REMARK VINA RESULT:      -6.1      2.264      2.546
REMARK  Name = 
REMARK  1 active torsions:
REMARK  status: ('A' for Active; 'I' for Inactive)
REMARK    1  A    between atoms: C_4  and  C_5
REMARK                            x       y       z     vdW  Elec       q    Type
REMARK                         _______ _______ _______ _____ _____    ______ ____
ROOT
ATOM      1  C   UNL     1       3.444   4.483  18.574  0.00  0.00    +0.000 A 
ATOM      2  C   UNL     1       3.441   5.939  18.342  0.00  0.00    +0.000 A 
ATOM      3  C   UNL     1       4.129   6.464  17.315  0.00  0.00    +0.000 A 
ATOM      4  N   UNL     1       4.845   5.616  16.481  0.00  0.00    +0.000 N 
ATOM      5  C   UNL     1       5.602   5.912  15.378  0.00  0.00    +0.000 A 
ATOM      6  C   UNL     1       6.082   4.703  14.931  0.00  0.00    +0.000 A 
ATOM      7  N   UNL     1       5.645   3.673  15.726  0.00  0.00    +0.000 NA
ATOM      8  C   UNL     1       4.898   4.241  16.653  0.00  0.00    +0.000 A 
ATOM      9  C   UNL     1       4.165   3.688  17.744  0.00  0.00    +0.000 A 
ENDROOT
BRANCH   1  13
ATOM     10  C   UNL     1       1.093   3.056  21.036  0.00  0.00    +0.000 A 
ATOM     11  C   UNL     1       2.326   2.653  21.475  0.00  0.00    +0.000 A 
ATOM     12  O   UNL     1       3.296   3.118  20.654  0.00  0.00    +0.000 OA
ATOM     13  C   UNL     1       2.708   3.850  19.637  0.00  0.00    +0.000 A 
ATOM     14  C   UNL     1       1.332   3.817  19.868  0.00  0.00    +0.000 A 
ENDBRANCH   1  13
TORSDOF 1
ENDMDL
