MODEL 1
REMARK VINA RESULT:      -6.5      0.000      0.000
REMARK  Name = 
REMARK  9 active torsions:
REMARK  status: ('A' for Active; 'I' for Inactive)
REMARK    1  A    between atoms: C_1  and  O_2
REMARK    2  A    between atoms: O_2  and  C_3
REMARK    3  A    between atoms: C_7  and  C_8
REMARK    4  A    between atoms: N_13  and  C_14
REMARK    5  A    between atoms: C_14  and  C_15
REMARK    6  A    between atoms: C_15  and  C_16
REMARK    7  A    between atoms: C_16  and  N_17
REMARK    8  A    between atoms: N_17  and  C_18
REMARK    9  A    between atoms: N_17  and  C_19
REMARK                            x       y       z     vdW  Elec       q    Type
REMARK                         _______ _______ _______ _____ _____    ______ ____
ROOT
ATOM      1  C   UNL     1       3.294   4.684  18.100  0.00  0.00    +0.000 C 
ATOM      2  S   UNL     1       1.973   3.417  18.058  0.00  0.00    +0.000 S 
ATOM      3  C   UNL     1       2.949   2.234  19.034  0.00  0.00    +0.000 C 
ATOM      4  C   UNL     1       4.205   2.929  19.400  0.00  0.00    +0.000 C 
ATOM      5  O   UNL     1       5.037   2.382  20.110  0.00  0.00    +0.000 OA
ATOM      6  N   UNL     1       4.383   4.180  18.914  0.00  0.00    +0.000 N 
ENDROOT
BRANCH   1  11
ATOM      7  C   UNL     1       2.169   8.346  18.369  0.00  0.00    +0.000 A 
ATOM      8  C   UNL     1       1.705   8.375  19.689  0.00  0.00    +0.000 A 
ATOM      9  C   UNL     1       1.760   7.231  20.486  0.00  0.00    +0.000 A 
ATOM     10  C   UNL     1       2.275   6.041  19.969  0.00  0.00    +0.000 A 
ATOM     11  C   UNL     1       2.752   5.986  18.648  0.00  0.00    +0.000 A 
ATOM     12  C   UNL     1       2.704   7.145  17.853  0.00  0.00    +0.000 A 
BRANCH   7  14
ATOM     13  C   UNL     1       1.830  10.743  18.126  0.00  0.00    +0.000 C 
ATOM     14  O   UNL     1       2.072   9.480  17.628  0.00  0.00    +0.000 OA
ENDBRANCH   7  14
ENDBRANCH   1  11
BRANCH   6  15
ATOM     15  C   UNL     1       5.584   4.967  19.186  0.00  0.00    +0.000 C 
BRANCH  15  16
ATOM     16  C   UNL     1       6.663   4.722  18.115  0.00  0.00    +0.000 C 
BRANCH  16  17
ATOM     17  C   UNL     1       6.921   5.962  17.235  0.00  0.00    +0.000 C 
BRANCH  17  18
ATOM     18  N   UNL     1       6.653   5.736  15.793  0.00  0.00    +0.000 NA
ATOM     19  C   UNL     1       6.726   4.315  15.416  0.00  0.00    +0.000 C 
ATOM     20  C   UNL     1       5.313   6.251  15.460  0.00  0.00    +0.000 C 
ENDBRANCH  17  18
ENDBRANCH  16  17
ENDBRANCH  15  16
ENDBRANCH   6  15
TORSDOF 6
ENDMDL
MODEL 2
REMARK VINA RESULT:      -6.5      2.363      4.359
REMARK  Name = 
REMARK  9 active torsions:
REMARK  status: ('A' for Active; 'I' for Inactive)
REMARK    1  A    between atoms: C_1  and  O_2
REMARK    2  A    between atoms: O_2  and  C_3
REMARK    3  A    between atoms: C_7  and  C_8
REMARK    4  A    between atoms: N_13  and  C_14
REMARK    5  A    between atoms: C_14  and  C_15
REMARK    6  A    between atoms: C_15  and  C_16
REMARK    7  A    between atoms: C_16  and  N_17
REMARK    8  A    between atoms: N_17  and  C_18
REMARK    9  A    between atoms: N_17  and  C_19
REMARK                            x       y       z     vdW  Elec       q    Type
REMARK                         _______ _______ _______ _____ _____    ______ ____
ROOT
ATOM      1  C   UNL     1       5.102   4.877  18.446  0.00  0.00    +0.000 C 
ATOM      2  S   UNL     1       6.785   5.601  18.457  0.00  0.00    +0.000 S 
ATOM      3  C   UNL     1       7.242   4.794  16.894  0.00  0.00    +0.000 C 
ATOM      4  C   UNL     1       6.032   4.081  16.420  0.00  0.00    +0.000 C 
ATOM      5  O   UNL     1       6.037   3.486  15.352  0.00  0.00    +0.000 OA
ATOM      6  N   UNL     1       4.942   4.118  17.221  0.00  0.00    +0.000 N 
ENDROOT
BRANCH   1  11
ATOM      7  C   UNL     1       2.255   7.085  19.773  0.00  0.00    +0.000 A 
ATOM      8  C   UNL     1       2.170   8.037  18.751  0.00  0.00    +0.000 A 
ATOM      9  C   UNL     1       3.016   7.964  17.643  0.00  0.00    +0.000 A 
ATOM     10  C   UNL     1       3.961   6.942  17.548  0.00  0.00    +0.000 A 
ATOM     11  C   UNL     1       4.063   5.971  18.559  0.00  0.00    +0.000 A 
ATOM     12  C   UNL     1       3.201   6.042  19.668  0.00  0.00    +0.000 A 
BRANCH   7  14
ATOM     13  C   UNL     1       0.882   8.397  21.294  0.00  0.00    +0.000 C 
ATOM     14  O   UNL     1       1.425   7.213  20.841  0.00  0.00    +0.000 OA
ENDBRANCH   7  14
ENDBRANCH   1  11
BRANCH   6  15
ATOM     15  C   UNL     1       3.691   3.443  16.879  0.00  0.00    +0.000 C 
BRANCH  15  16
ATOM     16  C   UNL     1       3.347   2.354  17.912  0.00  0.00    +0.000 C 
BRANCH  16  17
ATOM     17  C   UNL     1       1.944   2.537  18.526  0.00  0.00    +0.000 C 
BRANCH  17  18
ATOM     18  N   UNL     1       1.909   2.355  19.998  0.00  0.00    +0.000 NA
ATOM     19  C   UNL     1       3.227   2.537  20.627  0.00  0.00    +0.000 C 
ATOM     20  C   UNL     1       0.961   3.317  20.586  0.00  0.00    +0.000 C 
ENDBRANCH  17  18
ENDBRANCH  16  17
ENDBRANCH  15  16
ENDBRANCH   6  15
TORSDOF 6
ENDMDL
MODEL 3
REMARK VINA RESULT:      -6.3      0.870      1.185
REMARK  Name = 
REMARK  9 active torsions:
REMARK  status: ('A' for Active; 'I' for Inactive)
REMARK    1  A    between atoms: C_1  and  O_2
REMARK    2  A    between atoms: O_2  and  C_3
REMARK    3  A    between atoms: C_7  and  C_8
REMARK    4  A    between atoms: N_13  and  C_14
REMARK    5  A    between atoms: C_14  and  C_15
REMARK    6  A    between atoms: C_15  and  C_16
REMARK    7  A    between atoms: C_16  and  N_17
REMARK    8  A    between atoms: N_17  and  C_18
REMARK    9  A    between atoms: N_17  and  C_19
REMARK                            x       y       z     vdW  Elec       q    Type
REMARK                         _______ _______ _______ _____ _____    ______ ____
ROOT
ATOM      1  C   UNL     1       2.960   4.229  18.270  0.00  0.00    +0.000 C 
ATOM      2  S   UNL     1       1.596   3.017  18.427  0.00  0.00    +0.000 S 
ATOM      3  C   UNL     1       2.654   1.795  19.257  0.00  0.00    +0.000 C 
ATOM      4  C   UNL     1       3.977   2.437  19.434  0.00  0.00    +0.000 C 
ATOM      5  O   UNL     1       4.881   1.855  20.017  0.00  0.00    +0.000 OA
ATOM      6  N   UNL     1       4.134   3.679  18.920  0.00  0.00    +0.000 N 
ENDROOT
BRANCH   1  11
ATOM      7  C   UNL     1       2.250   7.974  18.733  0.00  0.00    +0.000 A 
ATOM      8  C   UNL     1       1.764   7.983  20.045  0.00  0.00    +0.000 A 
ATOM      9  C   UNL     1       1.674   6.797  20.776  0.00  0.00    +0.000 A 
ATOM     10  C   UNL     1       2.062   5.587  20.199  0.00  0.00    +0.000 A 
ATOM     11  C   UNL     1       2.556   5.552  18.884  0.00  0.00    +0.000 A 
ATOM     12  C   UNL     1       2.657   6.751  18.156  0.00  0.00    +0.000 A 
BRANCH   7  14
ATOM     13  C   UNL     1       1.370  10.168  18.155  0.00  0.00    +0.000 C 
ATOM     14  O   UNL     1       2.296   9.151  18.057  0.00  0.00    +0.000 OA
ENDBRANCH   7  14
ENDBRANCH   1  11
BRANCH   6  15
ATOM     15  C   UNL     1       5.393   4.416  19.011  0.00  0.00    +0.000 C 
BRANCH  15  16
ATOM     16  C   UNL     1       6.114   4.453  17.651  0.00  0.00    +0.000 C 
BRANCH  16  17
ATOM     17  C   UNL     1       7.381   5.334  17.673  0.00  0.00    +0.000 C 
BRANCH  17  18
ATOM     18  N   UNL     1       7.277   6.549  16.828  0.00  0.00    +0.000 NA
ATOM     19  C   UNL     1       5.926   6.746  16.276  0.00  0.00    +0.000 C 
ATOM     20  C   UNL     1       7.644   7.731  17.627  0.00  0.00    +0.000 C 
ENDBRANCH  17  18
ENDBRANCH  16  17
ENDBRANCH  15  16
ENDBRANCH   6  15
TORSDOF 6
ENDMDL
MODEL 4
REMARK VINA RESULT:      -6.2      2.536      5.169
REMARK  Name = 
REMARK  9 active torsions:
REMARK  status: ('A' for Active; 'I' for Inactive)
REMARK    1  A    between atoms: C_1  and  O_2
REMARK    2  A    between atoms: O_2  and  C_3
REMARK    3  A    between atoms: C_7  and  C_8
REMARK    4  A    between atoms: N_13  and  C_14
REMARK    5  A    between atoms: C_14  and  C_15
REMARK    6  A    between atoms: C_15  and  C_16
REMARK    7  A    between atoms: C_16  and  N_17
REMARK    8  A    between atoms: N_17  and  C_18
REMARK    9  A    between atoms: N_17  and  C_19
REMARK                            x       y       z     vdW  Elec       q    Type
REMARK                         _______ _______ _______ _____ _____    ______ ____
ROOT
ATOM      1  C   UNL     1       4.152   4.369  18.844  0.00  0.00    +0.000 C 
ATOM      2  S   UNL     1       4.407   2.665  19.465  0.00  0.00    +0.000 S 
ATOM      3  C   UNL     1       2.659   2.222  19.239  0.00  0.00    +0.000 C 
ATOM      4  C   UNL     1       2.005   3.398  18.619  0.00  0.00    +0.000 C 
ATOM      5  O   UNL     1       0.823   3.361  18.304  0.00  0.00    +0.000 OA
ATOM      6  N   UNL     1       2.769   4.498  18.425  0.00  0.00    +0.000 N 
ENDROOT
BRANCH   1  11
ATOM      7  C   UNL     1       6.873   6.004  16.684  0.00  0.00    +0.000 A 
ATOM      8  C   UNL     1       6.881   5.139  15.583  0.00  0.00    +0.000 A 
ATOM      9  C   UNL     1       6.014   4.046  15.534  0.00  0.00    +0.000 A 
ATOM     10  C   UNL     1       5.134   3.801  16.589  0.00  0.00    +0.000 A 
ATOM     11  C   UNL     1       5.103   4.657  17.703  0.00  0.00    +0.000 A 
ATOM     12  C   UNL     1       5.970   5.764  17.742  0.00  0.00    +0.000 A 
BRANCH   7  14
ATOM     13  C   UNL     1       7.778   8.057  17.623  0.00  0.00    +0.000 C 
ATOM     14  O   UNL     1       7.751   7.040  16.694  0.00  0.00    +0.000 OA
ENDBRANCH   7  14
ENDBRANCH   1  11
BRANCH   6  15
ATOM     15  C   UNL     1       2.242   5.729  17.839  0.00  0.00    +0.000 C 
BRANCH  15  16
ATOM     16  C   UNL     1       2.506   6.938  18.756  0.00  0.00    +0.000 C 
BRANCH  16  17
ATOM     17  C   UNL     1       2.253   8.286  18.050  0.00  0.00    +0.000 C 
BRANCH  17  18
ATOM     18  N   UNL     1       1.272   9.152  18.751  0.00  0.00    +0.000 NA
ATOM     19  C   UNL     1       1.218   8.894  20.199  0.00  0.00    +0.000 C 
ATOM     20  C   UNL     1       1.623  10.565  18.529  0.00  0.00    +0.000 C 
ENDBRANCH  17  18
ENDBRANCH  16  17
ENDBRANCH  15  16
ENDBRANCH   6  15
TORSDOF 6
ENDMDL
MODEL 5
REMARK VINA RESULT:      -6.2      2.586      5.357
REMARK  Name = 
REMARK  9 active torsions:
REMARK  status: ('A' for Active; 'I' for Inactive)
REMARK    1  A    between atoms: C_1  and  O_2
REMARK    2  A    between atoms: O_2  and  C_3
REMARK    3  A    between atoms: C_7  and  C_8
REMARK    4  A    between atoms: N_13  and  C_14
REMARK    5  A    between atoms: C_14  and  C_15
REMARK    6  A    between atoms: C_15  and  C_16
REMARK    7  A    between atoms: C_16  and  N_17
REMARK    8  A    between atoms: N_17  and  C_18
REMARK    9  A    between atoms: N_17  and  C_19
REMARK                            x       y       z     vdW  Elec       q    Type
REMARK                         _______ _______ _______ _____ _____    ______ ____
ROOT
ATOM      1  C   UNL     1       4.176   4.411  19.111  0.00  0.00    +0.000 C 
ATOM      2  S   UNL     1       4.374   2.673  19.655  0.00  0.00    +0.000 S 
ATOM      3  C   UNL     1       2.586   2.352  19.587  0.00  0.00    +0.000 C 
ATOM      4  C   UNL     1       1.957   3.588  19.066  0.00  0.00    +0.000 C 
ATOM      5  O   UNL     1       0.752   3.638  18.866  0.00  0.00    +0.000 OA
ATOM      6  N   UNL     1       2.772   4.643  18.831  0.00  0.00    +0.000 N 
ENDROOT
BRANCH   1  11
ATOM      7  C   UNL     1       6.762   5.963  16.734  0.00  0.00    +0.000 A 
ATOM      8  C   UNL     1       6.632   5.117  15.626  0.00  0.00    +0.000 A 
ATOM      9  C   UNL     1       5.717   4.064  15.641  0.00  0.00    +0.000 A 
ATOM     10  C   UNL     1       4.925   3.839  16.769  0.00  0.00    +0.000 A 
ATOM     11  C   UNL     1       5.033   4.676  17.892  0.00  0.00    +0.000 A 
ATOM     12  C   UNL     1       5.948   5.744  17.867  0.00  0.00    +0.000 A 
BRANCH   7  14
ATOM     13  C   UNL     1       7.780   8.010  17.563  0.00  0.00    +0.000 C 
ATOM     14  O   UNL     1       7.683   6.959  16.677  0.00  0.00    +0.000 OA
ENDBRANCH   7  14
ENDBRANCH   1  11
BRANCH   6  15
ATOM     15  C   UNL     1       2.276   5.925  18.334  0.00  0.00    +0.000 C 
BRANCH  15  16
ATOM     16  C   UNL     1       2.582   7.062  19.326  0.00  0.00    +0.000 C 
BRANCH  16  17
ATOM     17  C   UNL     1       1.670   7.028  20.569  0.00  0.00    +0.000 C 
BRANCH  17  18
ATOM     18  N   UNL     1       0.943   8.300  20.810  0.00  0.00    +0.000 NA
ATOM     19  C   UNL     1       1.344   8.956  22.066  0.00  0.00    +0.000 C 
ATOM     20  C   UNL     1       1.190   9.222  19.688  0.00  0.00    +0.000 C 
ENDBRANCH  17  18
ENDBRANCH  16  17
ENDBRANCH  15  16
ENDBRANCH   6  15
TORSDOF 6
ENDMDL
MODEL 6
REMARK VINA RESULT:      -6.1      2.470      5.482
REMARK  Name = 
REMARK  9 active torsions:
REMARK  status: ('A' for Active; 'I' for Inactive)
REMARK    1  A    between atoms: C_1  and  O_2
REMARK    2  A    between atoms: O_2  and  C_3
REMARK    3  A    between atoms: C_7  and  C_8
REMARK    4  A    between atoms: N_13  and  C_14
REMARK    5  A    between atoms: C_14  and  C_15
REMARK    6  A    between atoms: C_15  and  C_16
REMARK    7  A    between atoms: C_16  and  N_17
REMARK    8  A    between atoms: N_17  and  C_18
REMARK    9  A    between atoms: N_17  and  C_19
REMARK                            x       y       z     vdW  Elec       q    Type
REMARK                         _______ _______ _______ _____ _____    ______ ____
ROOT
ATOM      1  C   UNL     1       3.970   4.138  19.363  0.00  0.00    +0.000 C 
ATOM      2  S   UNL     1       4.006   2.316  19.547  0.00  0.00    +0.000 S 
ATOM      3  C   UNL     1       2.408   2.107  18.707  0.00  0.00    +0.000 C 
ATOM      4  C   UNL     1       1.988   3.456  18.263  0.00  0.00    +0.000 C 
ATOM      5  O   UNL     1       0.960   3.609  17.618  0.00  0.00    +0.000 OA
ATOM      6  N   UNL     1       2.784   4.495  18.608  0.00  0.00    +0.000 N 
ENDROOT
BRANCH   1  11
ATOM      7  C   UNL     1       6.644   4.795  16.688  0.00  0.00    +0.000 A 
ATOM      8  C   UNL     1       7.559   5.559  17.421  0.00  0.00    +0.000 A 
ATOM      9  C   UNL     1       7.320   5.853  18.765  0.00  0.00    +0.000 A 
ATOM     10  C   UNL     1       6.160   5.392  19.388  0.00  0.00    +0.000 A 
ATOM     11  C   UNL     1       5.228   4.618  18.675  0.00  0.00    +0.000 A 
ATOM     12  C   UNL     1       5.479   4.315  17.325  0.00  0.00    +0.000 A 
BRANCH   7  14
ATOM     13  C   UNL     1       6.098   3.859  14.509  0.00  0.00    +0.000 C 
ATOM     14  O   UNL     1       6.911   4.555  15.378  0.00  0.00    +0.000 OA
ENDBRANCH   7  14
ENDBRANCH   1  11
BRANCH   6  15
ATOM     15  C   UNL     1       2.474   5.878  18.249  0.00  0.00    +0.000 C 
BRANCH  15  16
ATOM     16  C   UNL     1       2.419   6.777  19.497  0.00  0.00    +0.000 C 
BRANCH  16  17
ATOM     17  C   UNL     1       2.028   8.232  19.166  0.00  0.00    +0.000 C 
BRANCH  17  18
ATOM     18  N   UNL     1       0.986   8.789  20.064  0.00  0.00    +0.000 NA
ATOM     19  C   UNL     1       1.270   8.544  21.487  0.00  0.00    +0.000 C 
ATOM     20  C   UNL     1       0.875  10.241  19.841  0.00  0.00    +0.000 C 
ENDBRANCH  17  18
ENDBRANCH  16  17
ENDBRANCH  15  16
ENDBRANCH   6  15
TORSDOF 6
ENDMDL
MODEL 7
REMARK VINA RESULT:      -6.1      1.234      1.885
REMARK  Name = 
REMARK  9 active torsions:
REMARK  status: ('A' for Active; 'I' for Inactive)
REMARK    1  A    between atoms: C_1  and  O_2
REMARK    2  A    between atoms: O_2  and  C_3
REMARK    3  A    between atoms: C_7  and  C_8
REMARK    4  A    between atoms: N_13  and  C_14
REMARK    5  A    between atoms: C_14  and  C_15
REMARK    6  A    between atoms: C_15  and  C_16
REMARK    7  A    between atoms: C_16  and  N_17
REMARK    8  A    between atoms: N_17  and  C_18
REMARK    9  A    between atoms: N_17  and  C_19
REMARK                            x       y       z     vdW  Elec       q    Type
REMARK                         _______ _______ _______ _____ _____    ______ ____
ROOT
ATOM      1  C   UNL     1       3.233   4.761  18.019  0.00  0.00    +0.000 C 
ATOM      2  S   UNL     1       1.880   3.538  18.176  0.00  0.00    +0.000 S 
ATOM      3  C   UNL     1       2.880   2.426  19.208  0.00  0.00    +0.000 C 
ATOM      4  C   UNL     1       4.173   3.113  19.435  0.00  0.00    +0.000 C 
ATOM      5  O   UNL     1       5.031   2.611  20.147  0.00  0.00    +0.000 OA
ATOM      6  N   UNL     1       4.354   4.304  18.818  0.00  0.00    +0.000 N 
ENDROOT
BRANCH   1  11
ATOM      7  C   UNL     1       1.817   7.612  20.167  0.00  0.00    +0.000 A 
ATOM      8  C   UNL     1       1.918   8.683  19.272  0.00  0.00    +0.000 A 
ATOM      9  C   UNL     1       2.430   8.487  17.987  0.00  0.00    +0.000 A 
ATOM     10  C   UNL     1       2.853   7.219  17.587  0.00  0.00    +0.000 A 
ATOM     11  C   UNL     1       2.758   6.127  18.466  0.00  0.00    +0.000 A 
ATOM     12  C   UNL     1       2.231   6.327  19.754  0.00  0.00    +0.000 A 
BRANCH   7  14
ATOM     13  C   UNL     1       1.151   9.108  21.966  0.00  0.00    +0.000 C 
ATOM     14  O   UNL     1       1.334   7.859  21.412  0.00  0.00    +0.000 OA
ENDBRANCH   7  14
ENDBRANCH   1  11
BRANCH   6  15
ATOM     15  C   UNL     1       5.589   5.076  18.944  0.00  0.00    +0.000 C 
BRANCH  15  16
ATOM     16  C   UNL     1       6.580   4.727  17.818  0.00  0.00    +0.000 C 
BRANCH  16  17
ATOM     17  C   UNL     1       6.483   5.692  16.619  0.00  0.00    +0.000 C 
BRANCH  17  18
ATOM     18  N   UNL     1       6.129   5.024  15.342  0.00  0.00    +0.000 NA
ATOM     19  C   UNL     1       7.212   5.085  14.348  0.00  0.00    +0.000 C 
ATOM     20  C   UNL     1       5.800   3.613  15.606  0.00  0.00    +0.000 C 
ENDBRANCH  17  18
ENDBRANCH  16  17
ENDBRANCH  15  16
ENDBRANCH   6  15
TORSDOF 6
ENDMDL
MODEL 8
REMARK VINA RESULT:      -6.1      2.803      4.750
REMARK  Name = 
REMARK  9 active torsions:
REMARK  status: ('A' for Active; 'I' for Inactive)
REMARK    1  A    between atoms: C_1  and  O_2
REMARK    2  A    between atoms: O_2  and  C_3
REMARK    3  A    between atoms: C_7  and  C_8
REMARK    4  A    between atoms: N_13  and  C_14
REMARK    5  A    between atoms: C_14  and  C_15
REMARK    6  A    between atoms: C_15  and  C_16
REMARK    7  A    between atoms: C_16  and  N_17
REMARK    8  A    between atoms: N_17  and  C_18
REMARK    9  A    between atoms: N_17  and  C_19
REMARK                            x       y       z     vdW  Elec       q    Type
REMARK                         _______ _______ _______ _____ _____    ______ ____
ROOT
ATOM      1  C   UNL     1       5.965   4.729  17.760  0.00  0.00    +0.000 C 
ATOM      2  S   UNL     1       6.719   5.062  19.397  0.00  0.00    +0.000 S 
ATOM      3  C   UNL     1       7.761   6.401  18.748  0.00  0.00    +0.000 C 
ATOM      4  C   UNL     1       7.398   6.561  17.320  0.00  0.00    +0.000 C 
ATOM      5  O   UNL     1       7.913   7.437  16.640  0.00  0.00    +0.000 OA
ATOM      6  N   UNL     1       6.485   5.699  16.815  0.00  0.00    +0.000 N 
ENDROOT
BRANCH   1  11
ATOM      7  C   UNL     1       2.261   3.728  17.882  0.00  0.00    +0.000 A 
ATOM      8  C   UNL     1       1.662   4.979  18.071  0.00  0.00    +0.000 A 
ATOM      9  C   UNL     1       2.443   6.133  18.151  0.00  0.00    +0.000 A 
ATOM     10  C   UNL     1       3.832   6.048  18.050  0.00  0.00    +0.000 A 
ATOM     11  C   UNL     1       4.457   4.805  17.855  0.00  0.00    +0.000 A 
ATOM     12  C   UNL     1       3.665   3.646  17.763  0.00  0.00    +0.000 A 
BRANCH   7  14
ATOM     13  C   UNL     1       0.677   2.166  18.869  0.00  0.00    +0.000 C 
ATOM     14  O   UNL     1       1.459   2.633  17.834  0.00  0.00    +0.000 OA
ENDBRANCH   7  14
ENDBRANCH   1  11
BRANCH   6  15
ATOM     15  C   UNL     1       6.053   5.738  15.419  0.00  0.00    +0.000 C 
BRANCH  15  16
ATOM     16  C   UNL     1       6.835   4.721  14.567  0.00  0.00    +0.000 C 
BRANCH  16  17
ATOM     17  C   UNL     1       5.914   3.702  13.863  0.00  0.00    +0.000 C 
BRANCH  17  18
ATOM     18  N   UNL     1       5.984   3.759  12.382  0.00  0.00    +0.000 NA
ATOM     19  C   UNL     1       7.292   4.223  11.891  0.00  0.00    +0.000 C 
ATOM     20  C   UNL     1       5.713   2.420  11.830  0.00  0.00    +0.000 C 
ENDBRANCH  17  18
ENDBRANCH  16  17
ENDBRANCH  15  16
ENDBRANCH   6  15
TORSDOF 6
ENDMDL
MODEL 9
REMARK VINA RESULT:      -6.1      1.363      2.047
REMARK  Name = 
REMARK  9 active torsions:
REMARK  status: ('A' for Active; 'I' for Inactive)
REMARK    1  A    between atoms: C_1  and  O_2
REMARK    2  A    between atoms: O_2  and  C_3
REMARK    3  A    between atoms: C_7  and  C_8
REMARK    4  A    between atoms: N_13  and  C_14
REMARK    5  A    between atoms: C_14  and  C_15
REMARK    6  A    between atoms: C_15  and  C_16
REMARK    7  A    between atoms: C_16  and  N_17
REMARK    8  A    between atoms: N_17  and  C_18
REMARK    9  A    between atoms: N_17  and  C_19
REMARK                            x       y       z     vdW  Elec       q    Type
REMARK                         _______ _______ _______ _____ _____    ______ ____
ROOT
ATOM      1  C   UNL     1       2.756   4.337  18.428  0.00  0.00    +0.000 C 
ATOM      2  S   UNL     1       1.347   3.303  18.977  0.00  0.00    +0.000 S 
ATOM      3  C   UNL     1       2.406   2.242  20.004  0.00  0.00    +0.000 C 
ATOM      4  C   UNL     1       3.772   2.808  19.922  0.00  0.00    +0.000 C 
ATOM      5  O   UNL     1       4.690   2.318  20.565  0.00  0.00    +0.000 OA
ATOM      6  N   UNL     1       3.951   3.874  19.108  0.00  0.00    +0.000 N 
ENDROOT
BRANCH   1  11
ATOM      7  C   UNL     1       1.777   7.569  20.255  0.00  0.00    +0.000 A 
ATOM      8  C   UNL     1       2.018   8.514  19.251  0.00  0.00    +0.000 A 
ATOM      9  C   UNL     1       2.482   8.114  17.997  0.00  0.00    +0.000 A 
ATOM     10  C   UNL     1       2.719   6.764  17.736  0.00  0.00    +0.000 A 
ATOM     11  C   UNL     1       2.481   5.795  18.725  0.00  0.00    +0.000 A 
ATOM     12  C   UNL     1       2.002   6.202  19.983  0.00  0.00    +0.000 A 
BRANCH   7  14
ATOM     13  C   UNL     1       0.179   8.706  21.694  0.00  0.00    +0.000 C 
ATOM     14  O   UNL     1       1.348   8.012  21.465  0.00  0.00    +0.000 OA
ENDBRANCH   7  14
ENDBRANCH   1  11
BRANCH   6  15
ATOM     15  C   UNL     1       5.252   4.515  18.923  0.00  0.00    +0.000 C 
BRANCH  15  16
ATOM     16  C   UNL     1       5.794   4.272  17.503  0.00  0.00    +0.000 C 
BRANCH  16  17
ATOM     17  C   UNL     1       7.199   4.873  17.292  0.00  0.00    +0.000 C 
BRANCH  17  18
ATOM     18  N   UNL     1       7.195   6.143  16.524  0.00  0.00    +0.000 NA
ATOM     19  C   UNL     1       5.913   6.395  15.846  0.00  0.00    +0.000 C 
ATOM     20  C   UNL     1       7.484   7.265  17.434  0.00  0.00    +0.000 C 
ENDBRANCH  17  18
ENDBRANCH  16  17
ENDBRANCH  15  16
ENDBRANCH   6  15
TORSDOF 6
ENDMDL
