MODEL 1
REMARK VINA RESULT:      -7.2      0.000      0.000
REMARK  Name = 
REMARK  6 active torsions:
REMARK  status: ('A' for Active; 'I' for Inactive)
REMARK    1  A    between atoms: C_1  and  O_2
REMARK    2  A    between atoms: O_2  and  C_3
REMARK    3  A    between atoms: C_5  and  C_6
REMARK    4  A    between atoms: C_13  and  O_14
REMARK    5  A    between atoms: O_14  and  C_15
REMARK    6  A    between atoms: C_16  and  O_17
REMARK                            x       y       z     vdW  Elec       q    Type
REMARK                         _______ _______ _______ _____ _____    ______ ____
ROOT
ATOM      1  C   UNL     1       3.039   3.365  19.868  0.00  0.00    +0.000 A 
ATOM      2  C   UNL     1       2.438   4.630  19.762  0.00  0.00    +0.000 A 
ATOM      3  C   UNL     1       3.146   5.776  19.358  0.00  0.00    +0.000 A 
ATOM      4  C   UNL     1       4.509   5.605  19.063  0.00  0.00    +0.000 A 
ATOM      5  C   UNL     1       5.132   4.349  19.140  0.00  0.00    +0.000 A 
ATOM      6  C   UNL     1       4.396   3.233  19.554  0.00  0.00    +0.000 A 
ENDROOT
BRANCH   3   7
ATOM      7  C   UNL     1       2.474   7.094  19.247  0.00  0.00    +0.000 A 
ATOM      8  C   UNL     1       1.800   7.677  20.344  0.00  0.00    +0.000 A 
ATOM      9  C   UNL     1       1.125   8.894  20.224  0.00  0.00    +0.000 A 
ATOM     10  C   UNL     1       1.115   9.571  19.010  0.00  0.00    +0.000 A 
ATOM     11  C   UNL     1       1.782   9.030  17.916  0.00  0.00    +0.000 A 
ATOM     12  C   UNL     1       2.450   7.806  18.032  0.00  0.00    +0.000 A 
ENDBRANCH   3   7
BRANCH   1  14
ATOM     13  C   UNL     1       1.412   2.682  21.493  0.00  0.00    +0.000 C 
ATOM     14  O   UNL     1       2.169   2.411  20.323  0.00  0.00    +0.000 OA
ENDBRANCH   1  14
BRANCH   5  15
ATOM     15  O   UNL     1       6.485   4.356  18.907  0.00  0.00    +0.000 OA
ATOM     16  C   UNL     1       6.889   4.627  17.566  0.00  0.00    +0.000 C 
ENDBRANCH   5  15
BRANCH   6  17
ATOM     17  O   UNL     1       5.026   2.028  19.723  0.00  0.00    +0.000 OA
ATOM     18  H   UNL     1       5.892   2.124  19.293  0.00  0.00    +0.000 HD
ENDBRANCH   6  17
TORSDOF 4
ENDMDL
MODEL 2
REMARK VINA RESULT:      -7.1      0.122      3.162
REMARK  Name = 
REMARK  6 active torsions:
REMARK  status: ('A' for Active; 'I' for Inactive)
REMARK    1  A    between atoms: C_1  and  O_2
REMARK    2  A    between atoms: O_2  and  C_3
REMARK    3  A    between atoms: C_5  and  C_6
REMARK    4  A    between atoms: C_13  and  O_14
REMARK    5  A    between atoms: O_14  and  C_15
REMARK    6  A    between atoms: C_16  and  O_17
REMARK                            x       y       z     vdW  Elec       q    Type
REMARK                         _______ _______ _______ _____ _____    ______ ____
ROOT
ATOM      1  C   UNL     1       5.159   4.386  19.157  0.00  0.00    +0.000 A 
ATOM      2  C   UNL     1       4.508   5.624  19.022  0.00  0.00    +0.000 A 
ATOM      3  C   UNL     1       3.150   5.807  19.338  0.00  0.00    +0.000 A 
ATOM      4  C   UNL     1       2.452   4.677  19.801  0.00  0.00    +0.000 A 
ATOM      5  C   UNL     1       3.081   3.434  19.966  0.00  0.00    +0.000 A 
ATOM      6  C   UNL     1       4.432   3.288  19.631  0.00  0.00    +0.000 A 
ENDROOT
BRANCH   3   7
ATOM      7  C   UNL     1       2.500   7.132  19.194  0.00  0.00    +0.000 A 
ATOM      8  C   UNL     1       1.814   7.741  20.270  0.00  0.00    +0.000 A 
ATOM      9  C   UNL     1       1.159   8.966  20.118  0.00  0.00    +0.000 A 
ATOM     10  C   UNL     1       1.181   9.624  18.894  0.00  0.00    +0.000 A 
ATOM     11  C   UNL     1       1.859   9.056  17.821  0.00  0.00    +0.000 A 
ATOM     12  C   UNL     1       2.508   7.825  17.968  0.00  0.00    +0.000 A 
ENDBRANCH   3   7
BRANCH   1  14
ATOM     13  C   UNL     1       6.736   4.612  17.364  0.00  0.00    +0.000 C 
ATOM     14  O   UNL     1       6.464   4.436  18.746  0.00  0.00    +0.000 OA
ENDBRANCH   1  14
BRANCH   5  15
ATOM     15  O   UNL     1       2.250   2.407  20.341  0.00  0.00    +0.000 OA
ATOM     16  C   UNL     1       1.547   2.586  21.569  0.00  0.00    +0.000 C 
ENDBRANCH   5  15
BRANCH   6  17
ATOM     17  O   UNL     1       5.021   2.053  19.699  0.00  0.00    +0.000 OA
ATOM     18  H   UNL     1       5.396   1.894  18.817  0.00  0.00    +0.000 HD
ENDBRANCH   6  17
TORSDOF 4
ENDMDL
MODEL 3
REMARK VINA RESULT:      -7.1      3.912      5.738
REMARK  Name = 
REMARK  6 active torsions:
REMARK  status: ('A' for Active; 'I' for Inactive)
REMARK    1  A    between atoms: C_1  and  O_2
REMARK    2  A    between atoms: O_2  and  C_3
REMARK    3  A    between atoms: C_5  and  C_6
REMARK    4  A    between atoms: C_13  and  O_14
REMARK    5  A    between atoms: O_14  and  C_15
REMARK    6  A    between atoms: C_16  and  O_17
REMARK                            x       y       z     vdW  Elec       q    Type
REMARK                         _______ _______ _______ _____ _____    ______ ____
ROOT
ATOM      1  C   UNL     1       6.186   4.110  14.441  0.00  0.00    +0.000 A 
ATOM      2  C   UNL     1       5.124   3.662  15.244  0.00  0.00    +0.000 A 
ATOM      3  C   UNL     1       4.844   4.210  16.508  0.00  0.00    +0.000 A 
ATOM      4  C   UNL     1       5.688   5.244  16.950  0.00  0.00    +0.000 A 
ATOM      5  C   UNL     1       6.744   5.726  16.160  0.00  0.00    +0.000 A 
ATOM      6  C   UNL     1       6.998   5.148  14.911  0.00  0.00    +0.000 A 
ENDROOT
BRANCH   3   7
ATOM      7  C   UNL     1       3.706   3.719  17.323  0.00  0.00    +0.000 A 
ATOM      8  C   UNL     1       3.679   2.404  17.841  0.00  0.00    +0.000 A 
ATOM      9  C   UNL     1       2.585   1.926  18.565  0.00  0.00    +0.000 A 
ATOM     10  C   UNL     1       1.492   2.751  18.806  0.00  0.00    +0.000 A 
ATOM     11  C   UNL     1       1.496   4.055  18.323  0.00  0.00    +0.000 A 
ATOM     12  C   UNL     1       2.587   4.532  17.588  0.00  0.00    +0.000 A 
ENDBRANCH   3   7
BRANCH   1  14
ATOM     13  C   UNL     1       5.270   3.526  12.302  0.00  0.00    +0.000 C 
ATOM     14  O   UNL     1       6.295   3.399  13.276  0.00  0.00    +0.000 OA
ENDBRANCH   1  14
BRANCH   5  15
ATOM     15  O   UNL     1       7.533   6.675  16.762  0.00  0.00    +0.000 OA
ATOM     16  C   UNL     1       7.642   6.592  18.181  0.00  0.00    +0.000 C 
ENDBRANCH   5  15
BRANCH   6  17
ATOM     17  O   UNL     1       8.086   5.552  14.183  0.00  0.00    +0.000 OA
ATOM     18  H   UNL     1       8.577   4.740  13.974  0.00  0.00    +0.000 HD
ENDBRANCH   6  17
TORSDOF 4
ENDMDL
MODEL 4
REMARK VINA RESULT:      -7.0      3.900      5.833
REMARK  Name = 
REMARK  6 active torsions:
REMARK  status: ('A' for Active; 'I' for Inactive)
REMARK    1  A    between atoms: C_1  and  O_2
REMARK    2  A    between atoms: O_2  and  C_3
REMARK    3  A    between atoms: C_5  and  C_6
REMARK    4  A    between atoms: C_13  and  O_14
REMARK    5  A    between atoms: O_14  and  C_15
REMARK    6  A    between atoms: C_16  and  O_17
REMARK                            x       y       z     vdW  Elec       q    Type
REMARK                         _______ _______ _______ _____ _____    ______ ____
ROOT
ATOM      1  C   UNL     1       6.879   5.619  16.133  0.00  0.00    +0.000 A 
ATOM      2  C   UNL     1       5.773   5.160  16.868  0.00  0.00    +0.000 A 
ATOM      3  C   UNL     1       4.895   4.174  16.383  0.00  0.00    +0.000 A 
ATOM      4  C   UNL     1       5.170   3.656  15.105  0.00  0.00    +0.000 A 
ATOM      5  C   UNL     1       6.279   4.080  14.357  0.00  0.00    +0.000 A 
ATOM      6  C   UNL     1       7.126   5.071  14.869  0.00  0.00    +0.000 A 
ENDROOT
BRANCH   3   7
ATOM      7  C   UNL     1       3.744   3.706  17.193  0.00  0.00    +0.000 A 
ATOM      8  C   UNL     1       2.664   4.562  17.509  0.00  0.00    +0.000 A 
ATOM      9  C   UNL     1       1.605   4.135  18.313  0.00  0.00    +0.000 A 
ATOM     10  C   UNL     1       1.585   2.838  18.814  0.00  0.00    +0.000 A 
ATOM     11  C   UNL     1       2.626   1.968  18.508  0.00  0.00    +0.000 A 
ATOM     12  C   UNL     1       3.692   2.397  17.710  0.00  0.00    +0.000 A 
ENDBRANCH   3   7
BRANCH   1  14
ATOM     13  C   UNL     1       7.639   6.570  18.200  0.00  0.00    +0.000 C 
ATOM     14  O   UNL     1       7.561   6.612  16.783  0.00  0.00    +0.000 OA
ENDBRANCH   1  14
BRANCH   5  15
ATOM     15  O   UNL     1       6.366   3.549  13.094  0.00  0.00    +0.000 OA
ATOM     16  C   UNL     1       5.148   3.482  12.356  0.00  0.00    +0.000 C 
ENDBRANCH   5  15
BRANCH   6  17
ATOM     17  O   UNL     1       8.151   5.554  14.099  0.00  0.00    +0.000 OA
ATOM     18  H   UNL     1       8.564   4.773  13.695  0.00  0.00    +0.000 HD
ENDBRANCH   6  17
TORSDOF 4
ENDMDL
MODEL 5
REMARK VINA RESULT:      -7.0      3.377      4.872
REMARK  Name = 
REMARK  6 active torsions:
REMARK  status: ('A' for Active; 'I' for Inactive)
REMARK    1  A    between atoms: C_1  and  O_2
REMARK    2  A    between atoms: O_2  and  C_3
REMARK    3  A    between atoms: C_5  and  C_6
REMARK    4  A    between atoms: C_13  and  O_14
REMARK    5  A    between atoms: O_14  and  C_15
REMARK    6  A    between atoms: C_16  and  O_17
REMARK                            x       y       z     vdW  Elec       q    Type
REMARK                         _______ _______ _______ _____ _____    ______ ____
ROOT
ATOM      1  C   UNL     1       5.883   4.361  15.575  0.00  0.00    +0.000 A 
ATOM      2  C   UNL     1       4.787   4.108  16.417  0.00  0.00    +0.000 A 
ATOM      3  C   UNL     1       4.423   4.967  17.469  0.00  0.00    +0.000 A 
ATOM      4  C   UNL     1       5.217   6.112  17.654  0.00  0.00    +0.000 A 
ATOM      5  C   UNL     1       6.305   6.401  16.816  0.00  0.00    +0.000 A 
ATOM      6  C   UNL     1       6.643   5.517  15.784  0.00  0.00    +0.000 A 
ENDROOT
BRANCH   3   7
ATOM      7  C   UNL     1       3.252   4.672  18.330  0.00  0.00    +0.000 A 
ATOM      8  C   UNL     1       3.118   5.240  19.618  0.00  0.00    +0.000 A 
ATOM      9  C   UNL     1       2.040   4.922  20.448  0.00  0.00    +0.000 A 
ATOM     10  C   UNL     1       1.057   4.041  20.012  0.00  0.00    +0.000 A 
ATOM     11  C   UNL     1       1.153   3.479  18.744  0.00  0.00    +0.000 A 
ATOM     12  C   UNL     1       2.237   3.788  17.915  0.00  0.00    +0.000 A 
ENDBRANCH   3   7
BRANCH   1  14
ATOM     13  C   UNL     1       5.972   3.684  13.276  0.00  0.00    +0.000 C 
ATOM     14  O   UNL     1       6.074   3.366  14.655  0.00  0.00    +0.000 OA
ENDBRANCH   1  14
BRANCH   5  15
ATOM     15  O   UNL     1       7.037   7.506  17.174  0.00  0.00    +0.000 OA
ATOM     16  C   UNL     1       7.971   7.323  18.236  0.00  0.00    +0.000 C 
ENDBRANCH   5  15
BRANCH   6  17
ATOM     17  O   UNL     1       7.762   5.749  15.029  0.00  0.00    +0.000 OA
ATOM     18  H   UNL     1       8.463   5.207  15.427  0.00  0.00    +0.000 HD
ENDBRANCH   6  17
TORSDOF 4
ENDMDL
MODEL 6
REMARK VINA RESULT:      -7.0      3.282      4.878
REMARK  Name = 
REMARK  6 active torsions:
REMARK  status: ('A' for Active; 'I' for Inactive)
REMARK    1  A    between atoms: C_1  and  O_2
REMARK    2  A    between atoms: O_2  and  C_3
REMARK    3  A    between atoms: C_5  and  C_6
REMARK    4  A    between atoms: C_13  and  O_14
REMARK    5  A    between atoms: O_14  and  C_15
REMARK    6  A    between atoms: C_16  and  O_17
REMARK                            x       y       z     vdW  Elec       q    Type
REMARK                         _______ _______ _______ _____ _____    ______ ____
ROOT
ATOM      1  C   UNL     1       6.701   4.488  17.723  0.00  0.00    +0.000 A 
ATOM      2  C   UNL     1       5.512   4.229  18.424  0.00  0.00    +0.000 A 
ATOM      3  C   UNL     1       4.271   4.068  17.783  0.00  0.00    +0.000 A 
ATOM      4  C   UNL     1       4.264   4.185  16.382  0.00  0.00    +0.000 A 
ATOM      5  C   UNL     1       5.440   4.423  15.653  0.00  0.00    +0.000 A 
ATOM      6  C   UNL     1       6.655   4.587  16.328  0.00  0.00    +0.000 A 
ENDROOT
BRANCH   3   7
ATOM      7  C   UNL     1       3.038   3.783  18.557  0.00  0.00    +0.000 A 
ATOM      8  C   UNL     1       2.772   4.423  19.788  0.00  0.00    +0.000 A 
ATOM      9  C   UNL     1       1.635   4.117  20.540  0.00  0.00    +0.000 A 
ATOM     10  C   UNL     1       0.725   3.173  20.079  0.00  0.00    +0.000 A 
ATOM     11  C   UNL     1       0.952   2.537  18.863  0.00  0.00    +0.000 A 
ATOM     12  C   UNL     1       2.095   2.836  18.114  0.00  0.00    +0.000 A 
ENDBRANCH   3   7
BRANCH   1  14
ATOM     13  C   UNL     1       7.887   5.865  19.289  0.00  0.00    +0.000 C 
ATOM     14  O   UNL     1       7.773   4.654  18.558  0.00  0.00    +0.000 OA
ENDBRANCH   1  14
BRANCH   5  15
ATOM     15  O   UNL     1       5.261   4.599  14.303  0.00  0.00    +0.000 OA
ATOM     16  C   UNL     1       5.921   3.661  13.455  0.00  0.00    +0.000 C 
ENDBRANCH   5  15
BRANCH   6  17
ATOM     17  O   UNL     1       7.784   4.916  15.625  0.00  0.00    +0.000 OA
ATOM     18  H   UNL     1       7.896   4.210  14.966  0.00  0.00    +0.000 HD
ENDBRANCH   6  17
TORSDOF 4
ENDMDL
MODEL 7
REMARK VINA RESULT:      -7.0      3.247      4.874
REMARK  Name = 
REMARK  6 active torsions:
REMARK  status: ('A' for Active; 'I' for Inactive)
REMARK    1  A    between atoms: C_1  and  O_2
REMARK    2  A    between atoms: O_2  and  C_3
REMARK    3  A    between atoms: C_5  and  C_6
REMARK    4  A    between atoms: C_13  and  O_14
REMARK    5  A    between atoms: O_14  and  C_15
REMARK    6  A    between atoms: C_16  and  O_17
REMARK                            x       y       z     vdW  Elec       q    Type
REMARK                         _______ _______ _______ _____ _____    ______ ____
ROOT
ATOM      1  C   UNL     1       5.415   4.517  15.682  0.00  0.00    +0.000 A 
ATOM      2  C   UNL     1       4.249   4.217  16.406  0.00  0.00    +0.000 A 
ATOM      3  C   UNL     1       4.237   4.085  17.806  0.00  0.00    +0.000 A 
ATOM      4  C   UNL     1       5.464   4.265  18.468  0.00  0.00    +0.000 A 
ATOM      5  C   UNL     1       6.641   4.586  17.773  0.00  0.00    +0.000 A 
ATOM      6  C   UNL     1       6.615   4.700  16.378  0.00  0.00    +0.000 A 
ENDROOT
BRANCH   3   7
ATOM      7  C   UNL     1       2.984   3.779  18.538  0.00  0.00    +0.000 A 
ATOM      8  C   UNL     1       2.629   4.468  19.720  0.00  0.00    +0.000 A 
ATOM      9  C   UNL     1       1.474   4.145  20.436  0.00  0.00    +0.000 A 
ATOM     10  C   UNL     1       0.633   3.134  19.987  0.00  0.00    +0.000 A 
ATOM     11  C   UNL     1       0.948   2.447  18.819  0.00  0.00    +0.000 A 
ATOM     12  C   UNL     1       2.109   2.764  18.106  0.00  0.00    +0.000 A 
ENDBRANCH   3   7
BRANCH   1  14
ATOM     13  C   UNL     1       5.953   3.686  13.497  0.00  0.00    +0.000 C 
ATOM     14  O   UNL     1       5.195   4.549  14.331  0.00  0.00    +0.000 OA
ENDBRANCH   1  14
BRANCH   5  15
ATOM     15  O   UNL     1       7.775   4.644  18.544  0.00  0.00    +0.000 OA
ATOM     16  C   UNL     1       7.925   5.810  19.352  0.00  0.00    +0.000 C 
ENDBRANCH   5  15
BRANCH   6  17
ATOM     17  O   UNL     1       7.780   4.917  15.691  0.00  0.00    +0.000 OA
ATOM     18  H   UNL     1       8.396   5.303  16.337  0.00  0.00    +0.000 HD
ENDBRANCH   6  17
TORSDOF 4
ENDMDL
MODEL 8
REMARK VINA RESULT:      -7.0      3.295      4.964
REMARK  Name = 
REMARK  6 active torsions:
REMARK  status: ('A' for Active; 'I' for Inactive)
REMARK    1  A    between atoms: C_1  and  O_2
REMARK    2  A    between atoms: O_2  and  C_3
REMARK    3  A    between atoms: C_5  and  C_6
REMARK    4  A    between atoms: C_13  and  O_14
REMARK    5  A    between atoms: O_14  and  C_15
REMARK    6  A    between atoms: C_16  and  O_17
REMARK                            x       y       z     vdW  Elec       q    Type
REMARK                         _______ _______ _______ _____ _____    ______ ____
ROOT
ATOM      1  C   UNL     1       6.682   4.501  17.791  0.00  0.00    +0.000 A 
ATOM      2  C   UNL     1       5.496   4.204  18.482  0.00  0.00    +0.000 A 
ATOM      3  C   UNL     1       4.263   4.019  17.832  0.00  0.00    +0.000 A 
ATOM      4  C   UNL     1       4.261   4.149  16.432  0.00  0.00    +0.000 A 
ATOM      5  C   UNL     1       5.435   4.424  15.713  0.00  0.00    +0.000 A 
ATOM      6  C   UNL     1       6.642   4.611  16.396  0.00  0.00    +0.000 A 
ENDROOT
BRANCH   3   7
ATOM      7  C   UNL     1       3.033   3.696  18.595  0.00  0.00    +0.000 A 
ATOM      8  C   UNL     1       2.112   2.725  18.139  0.00  0.00    +0.000 A 
ATOM      9  C   UNL     1       0.929   2.457  18.832  0.00  0.00    +0.000 A 
ATOM     10  C   UNL     1       0.638   3.140  20.008  0.00  0.00    +0.000 A 
ATOM     11  C   UNL     1       1.532   4.090  20.490  0.00  0.00    +0.000 A 
ATOM     12  C   UNL     1       2.712   4.366  19.792  0.00  0.00    +0.000 A 
ENDBRANCH   3   7
BRANCH   1  14
ATOM     13  C   UNL     1       7.938   5.964  19.217  0.00  0.00    +0.000 C 
ATOM     14  O   UNL     1       7.745   4.685  18.634  0.00  0.00    +0.000 OA
ENDBRANCH   1  14
BRANCH   5  15
ATOM     15  O   UNL     1       5.260   4.608  14.363  0.00  0.00    +0.000 OA
ATOM     16  C   UNL     1       5.930   3.681  13.511  0.00  0.00    +0.000 C 
ENDBRANCH   5  15
BRANCH   6  17
ATOM     17  O   UNL     1       7.766   4.975  15.703  0.00  0.00    +0.000 OA
ATOM     18  H   UNL     1       8.132   5.737  16.182  0.00  0.00    +0.000 HD
ENDBRANCH   6  17
TORSDOF 4
ENDMDL
MODEL 9
REMARK VINA RESULT:      -7.0      0.690      1.360
REMARK  Name = 
REMARK  6 active torsions:
REMARK  status: ('A' for Active; 'I' for Inactive)
REMARK    1  A    between atoms: C_1  and  O_2
REMARK    2  A    between atoms: O_2  and  C_3
REMARK    3  A    between atoms: C_5  and  C_6
REMARK    4  A    between atoms: C_13  and  O_14
REMARK    5  A    between atoms: O_14  and  C_15
REMARK    6  A    between atoms: C_16  and  O_17
REMARK                            x       y       z     vdW  Elec       q    Type
REMARK                         _______ _______ _______ _____ _____    ______ ____
ROOT
ATOM      1  C   UNL     1       3.014   3.454  19.540  0.00  0.00    +0.000 A 
ATOM      2  C   UNL     1       2.395   4.711  19.451  0.00  0.00    +0.000 A 
ATOM      3  C   UNL     1       3.115   5.900  19.239  0.00  0.00    +0.000 A 
ATOM      4  C   UNL     1       4.511   5.781  19.120  0.00  0.00    +0.000 A 
ATOM      5  C   UNL     1       5.155   4.535  19.184  0.00  0.00    +0.000 A 
ATOM      6  C   UNL     1       4.405   3.375  19.406  0.00  0.00    +0.000 A 
ENDROOT
BRANCH   3   7
ATOM      7  C   UNL     1       2.425   7.209  19.139  0.00  0.00    +0.000 A 
ATOM      8  C   UNL     1       2.428   7.958  17.940  0.00  0.00    +0.000 A 
ATOM      9  C   UNL     1       1.820   9.214  17.862  0.00  0.00    +0.000 A 
ATOM     10  C   UNL     1       1.180   9.752  18.973  0.00  0.00    +0.000 A 
ATOM     11  C   UNL     1       1.148   9.031  20.162  0.00  0.00    +0.000 A 
ATOM     12  C   UNL     1       1.764   7.778  20.245  0.00  0.00    +0.000 A 
ENDBRANCH   3   7
BRANCH   1  14
ATOM     13  C   UNL     1       1.072   2.216  18.868  0.00  0.00    +0.000 C 
ATOM     14  O   UNL     1       2.120   2.449  19.797  0.00  0.00    +0.000 OA
ENDBRANCH   1  14
BRANCH   5  15
ATOM     15  O   UNL     1       6.526   4.587  19.140  0.00  0.00    +0.000 OA
ATOM     16  C   UNL     1       7.107   4.751  17.847  0.00  0.00    +0.000 C 
ENDBRANCH   5  15
BRANCH   6  17
ATOM     17  O   UNL     1       5.043   2.173  19.565  0.00  0.00    +0.000 OA
ATOM     18  H   UNL     1       5.363   2.167  20.483  0.00  0.00    +0.000 HD
ENDBRANCH   6  17
TORSDOF 4
ENDMDL
