MODEL 1
REMARK VINA RESULT:      -8.5      0.000      0.000
REMARK  Name = 
REMARK  7 active torsions:
REMARK  status: ('A' for Active; 'I' for Inactive)
REMARK    1  A    between atoms: C_2  and  OXT_3
REMARK    2  A    between atoms: C_2  and  CA_4
REMARK    3  A    between atoms: C_11  and  C_12
REMARK    4  A    between atoms: C_12  and  C_13
REMARK    5  A    between atoms: C_13  and  C_14
REMARK    6  A    between atoms: C_17  and  O_18
REMARK    7  A    between atoms: O_18  and  C_19
REMARK                            x       y       z     vdW  Elec       q    Type
REMARK                         _______ _______ _______ _____ _____    ______ ____
ROOT
ATOM      1  CA  UNL     1       1.729   3.696  19.016  0.00  0.00    +0.000 A 
ATOM      2  N   UNL     1       1.499   2.951  20.179  0.00  0.00    +0.000 N 
ATOM      3  C   UNL     1       1.857   3.359  21.419  0.00  0.00    +0.000 A 
ATOM      4  O   UNL     1       1.815   2.594  22.375  0.00  0.00    +0.000 OA
ATOM      5  N   UNL     1       2.244   4.646  21.510  0.00  0.00    +0.000 N 
ATOM      6  C   UNL     1       1.884   5.530  20.544  0.00  0.00    +0.000 A 
ATOM      7  O   UNL     1       1.553   6.674  20.835  0.00  0.00    +0.000 OA
ATOM      8  C   UNL     1       1.975   5.052  19.102  0.00  0.00    +0.000 A 
ATOM      9  H   UNL     1       1.435   1.933  20.122  0.00  0.00    +0.000 HD
ATOM     10  H   UNL     1       2.284   4.995  22.454  0.00  0.00    +0.000 HD
ENDROOT
BRANCH   1  12
ATOM     11  O   UNL     1       2.104   2.909  16.770  0.00  0.00    +0.000 OA
ATOM     12  C   UNL     1       1.845   2.648  17.928  0.00  0.00    +0.000 C 
BRANCH  12  13
ATOM     13  OXT UNL     1       2.198   1.424  18.419  0.00  0.00    +0.000 OA
ATOM     14  HXT UNL     1       2.841   0.935  17.872  0.00  0.00    +0.000 HD
ENDBRANCH  12  13
ENDBRANCH   1  12
BRANCH   8  15
ATOM     15  C   UNL     1       2.588   6.276  18.257  0.00  0.00    +0.000 C 
BRANCH  15  16
ATOM     16  C   UNL     1       4.076   6.675  17.921  0.00  0.00    +0.000 C 
BRANCH  16  17
ATOM     17  C   UNL     1       4.772   5.829  16.800  0.00  0.00    +0.000 A 
ATOM     18  C   UNL     1       4.949   4.441  16.915  0.00  0.00    +0.000 A 
ATOM     19  C   UNL     1       5.498   3.663  15.868  0.00  0.00    +0.000 A 
ATOM     20  C   UNL     1       5.875   4.232  14.649  0.00  0.00    +0.000 A 
ATOM     21  C   UNL     1       5.754   5.611  14.524  0.00  0.00    +0.000 A 
ATOM     22  C   UNL     1       5.199   6.393  15.577  0.00  0.00    +0.000 A 
BRANCH  20  23
ATOM     23  O   UNL     1       6.410   3.365  13.743  0.00  0.00    +0.000 OA
BRANCH  23  24
ATOM     24  C   UNL     1       5.968   3.353  12.388  0.00  0.00    +0.000 C 
ATOM     25  F   UNL     1       4.685   3.727  12.215  0.00  0.00    +0.000 F 
ATOM     26  F   UNL     1       6.756   4.174  11.656  0.00  0.00    +0.000 F 
ATOM     27  F   UNL     1       6.110   2.101  11.890  0.00  0.00    +0.000 F 
ENDBRANCH  23  24
ENDBRANCH  20  23
ENDBRANCH  16  17
ENDBRANCH  15  16
ENDBRANCH   8  15
TORSDOF 7
ENDMDL
MODEL 2
REMARK VINA RESULT:      -7.9      5.941      8.318
REMARK  Name = 
REMARK  7 active torsions:
REMARK  status: ('A' for Active; 'I' for Inactive)
REMARK    1  A    between atoms: C_2  and  OXT_3
REMARK    2  A    between atoms: C_2  and  CA_4
REMARK    3  A    between atoms: C_11  and  C_12
REMARK    4  A    between atoms: C_12  and  C_13
REMARK    5  A    between atoms: C_13  and  C_14
REMARK    6  A    between atoms: C_17  and  O_18
REMARK    7  A    between atoms: O_18  and  C_19
REMARK                            x       y       z     vdW  Elec       q    Type
REMARK                         _______ _______ _______ _____ _____    ______ ____
ROOT
ATOM      1  CA  UNL     1       5.318   4.928  18.482  0.00  0.00    +0.000 A 
ATOM      2  N   UNL     1       6.566   4.296  18.491  0.00  0.00    +0.000 N 
ATOM      3  C   UNL     1       7.584   4.622  17.659  0.00  0.00    +0.000 A 
ATOM      4  O   UNL     1       8.580   3.916  17.570  0.00  0.00    +0.000 OA
ATOM      5  N   UNL     1       7.413   5.764  16.964  0.00  0.00    +0.000 N 
ATOM      6  C   UNL     1       6.518   6.690  17.396  0.00  0.00    +0.000 A 
ATOM      7  O   UNL     1       6.774   7.887  17.326  0.00  0.00    +0.000 OA
ATOM      8  C   UNL     1       5.179   6.173  17.900  0.00  0.00    +0.000 A 
ATOM      9  H   UNL     1       6.641   3.330  18.815  0.00  0.00    +0.000 HD
ATOM     10  H   UNL     1       8.255   6.110  16.535  0.00  0.00    +0.000 HD
ENDROOT
BRANCH   1  12
ATOM     11  O   UNL     1       3.349   3.542  18.403  0.00  0.00    +0.000 OA
ATOM     12  C   UNL     1       4.365   3.864  18.986  0.00  0.00    +0.000 C 
BRANCH  12  13
ATOM     13  OXT UNL     1       4.987   2.942  19.778  0.00  0.00    +0.000 OA
ATOM     14  HXT UNL     1       5.370   3.302  20.599  0.00  0.00    +0.000 HD
ENDBRANCH  12  13
ENDBRANCH   1  12
BRANCH   8  15
ATOM     15  C   UNL     1       4.061   7.174  17.321  0.00  0.00    +0.000 C 
BRANCH  15  16
ATOM     16  C   UNL     1       2.501   7.241  17.538  0.00  0.00    +0.000 C 
BRANCH  16  17
ATOM     17  C   UNL     1       2.023   8.041  18.798  0.00  0.00    +0.000 A 
ATOM     18  C   UNL     1       1.481   9.333  18.701  0.00  0.00    +0.000 A 
ATOM     19  C   UNL     1       0.969  10.021  19.827  0.00  0.00    +0.000 A 
ATOM     20  C   UNL     1       0.955   9.443  21.098  0.00  0.00    +0.000 A 
ATOM     21  C   UNL     1       1.527   8.183  21.233  0.00  0.00    +0.000 A 
ATOM     22  C   UNL     1       2.039   7.490  20.099  0.00  0.00    +0.000 A 
BRANCH  20  23
ATOM     23  O   UNL     1       0.453  10.232  22.090  0.00  0.00    +0.000 OA
BRANCH  23  24
ATOM     24  C   UNL     1      -0.447   9.707  23.063  0.00  0.00    +0.000 C 
ATOM     25  F   UNL     1      -1.088   8.584  22.683  0.00  0.00    +0.000 F 
ATOM     26  F   UNL     1       0.234   9.447  24.204  0.00  0.00    +0.000 F 
ATOM     27  F   UNL     1      -1.381  10.645  23.351  0.00  0.00    +0.000 F 
ENDBRANCH  23  24
ENDBRANCH  20  23
ENDBRANCH  16  17
ENDBRANCH  15  16
ENDBRANCH   8  15
TORSDOF 7
ENDMDL
MODEL 3
REMARK VINA RESULT:      -7.8      5.063      7.561
REMARK  Name = 
REMARK  7 active torsions:
REMARK  status: ('A' for Active; 'I' for Inactive)
REMARK    1  A    between atoms: C_2  and  OXT_3
REMARK    2  A    between atoms: C_2  and  CA_4
REMARK    3  A    between atoms: C_11  and  C_12
REMARK    4  A    between atoms: C_12  and  C_13
REMARK    5  A    between atoms: C_13  and  C_14
REMARK    6  A    between atoms: C_17  and  O_18
REMARK    7  A    between atoms: O_18  and  C_19
REMARK                            x       y       z     vdW  Elec       q    Type
REMARK                         _______ _______ _______ _____ _____    ______ ____
ROOT
ATOM      1  CA  UNL     1       6.348   4.889  15.990  0.00  0.00    +0.000 A 
ATOM      2  N   UNL     1       7.217   5.974  16.156  0.00  0.00    +0.000 N 
ATOM      3  C   UNL     1       7.127   6.864  17.173  0.00  0.00    +0.000 A 
ATOM      4  O   UNL     1       7.778   7.901  17.167  0.00  0.00    +0.000 OA
ATOM      5  N   UNL     1       6.287   6.515  18.167  0.00  0.00    +0.000 N 
ATOM      6  C   UNL     1       5.925   5.215  18.322  0.00  0.00    +0.000 A 
ATOM      7  O   UNL     1       5.821   4.724  19.440  0.00  0.00    +0.000 OA
ATOM      8  C   UNL     1       5.599   4.435  17.056  0.00  0.00    +0.000 A 
ATOM      9  H   UNL     1       7.679   6.381  15.341  0.00  0.00    +0.000 HD
ATOM     10  H   UNL     1       6.401   7.058  19.007  0.00  0.00    +0.000 HD
ENDROOT
BRANCH   1  12
ATOM     11  O   UNL     1       5.377   4.259  13.878  0.00  0.00    +0.000 OA
ATOM     12  C   UNL     1       6.348   4.647  14.494  0.00  0.00    +0.000 C 
BRANCH  12  13
ATOM     13  OXT UNL     1       7.278   5.408  13.843  0.00  0.00    +0.000 OA
ATOM     14  HXT UNL     1       6.906   6.079  13.242  0.00  0.00    +0.000 HD
ENDBRANCH  12  13
ENDBRANCH   1  12
BRANCH   8  15
ATOM     15  C   UNL     1       4.302   3.545  17.396  0.00  0.00    +0.000 C 
BRANCH  15  16
ATOM     16  C   UNL     1       2.771   3.912  17.468  0.00  0.00    +0.000 C 
BRANCH  16  17
ATOM     17  C   UNL     1       2.405   5.133  18.380  0.00  0.00    +0.000 A 
ATOM     18  C   UNL     1       2.039   4.977  19.726  0.00  0.00    +0.000 A 
ATOM     19  C   UNL     1       1.794   6.084  20.573  0.00  0.00    +0.000 A 
ATOM     20  C   UNL     1       1.922   7.399  20.120  0.00  0.00    +0.000 A 
ATOM     21  C   UNL     1       2.239   7.584  18.779  0.00  0.00    +0.000 A 
ATOM     22  C   UNL     1       2.489   6.470  17.928  0.00  0.00    +0.000 A 
BRANCH  20  23
ATOM     23  O   UNL     1       1.632   8.363  21.040  0.00  0.00    +0.000 OA
BRANCH  23  24
ATOM     24  C   UNL     1       0.286   8.627  21.427  0.00  0.00    +0.000 C 
ATOM     25  F   UNL     1      -0.269   9.699  20.827  0.00  0.00    +0.000 F 
ATOM     26  F   UNL     1      -0.476   7.542  21.155  0.00  0.00    +0.000 F 
ATOM     27  F   UNL     1       0.244   8.829  22.766  0.00  0.00    +0.000 F 
ENDBRANCH  23  24
ENDBRANCH  20  23
ENDBRANCH  16  17
ENDBRANCH  15  16
ENDBRANCH   8  15
TORSDOF 7
ENDMDL
MODEL 4
REMARK VINA RESULT:      -7.8      0.817      1.260
REMARK  Name = 
REMARK  7 active torsions:
REMARK  status: ('A' for Active; 'I' for Inactive)
REMARK    1  A    between atoms: C_2  and  OXT_3
REMARK    2  A    between atoms: C_2  and  CA_4
REMARK    3  A    between atoms: C_11  and  C_12
REMARK    4  A    between atoms: C_12  and  C_13
REMARK    5  A    between atoms: C_13  and  C_14
REMARK    6  A    between atoms: C_17  and  O_18
REMARK    7  A    between atoms: O_18  and  C_19
REMARK                            x       y       z     vdW  Elec       q    Type
REMARK                         _______ _______ _______ _____ _____    ______ ____
ROOT
ATOM      1  CA  UNL     1       2.525   3.090  19.405  0.00  0.00    +0.000 A 
ATOM      2  N   UNL     1       1.787   2.359  20.343  0.00  0.00    +0.000 N 
ATOM      3  C   UNL     1       1.665   2.709  21.646  0.00  0.00    +0.000 A 
ATOM      4  O   UNL     1       1.180   1.940  22.466  0.00  0.00    +0.000 OA
ATOM      5  N   UNL     1       2.106   3.945  21.951  0.00  0.00    +0.000 N 
ATOM      6  C   UNL     1       2.240   4.876  20.971  0.00  0.00    +0.000 A 
ATOM      7  O   UNL     1       1.932   6.045  21.172  0.00  0.00    +0.000 OA
ATOM      8  C   UNL     1       2.845   4.409  19.654  0.00  0.00    +0.000 A 
ATOM      9  H   UNL     1       1.654   1.355  20.210  0.00  0.00    +0.000 HD
ATOM     10  H   UNL     1       1.805   4.275  22.853  0.00  0.00    +0.000 HD
ENDROOT
BRANCH   1  12
ATOM     11  O   UNL     1       3.743   1.157  18.641  0.00  0.00    +0.000 OA
ATOM     12  C   UNL     1       2.959   2.051  18.392  0.00  0.00    +0.000 C 
BRANCH  12  13
ATOM     13  OXT UNL     1       2.021   1.848  17.419  0.00  0.00    +0.000 OA
ATOM     14  HXT UNL     1       1.605   2.662  17.079  0.00  0.00    +0.000 HD
ENDBRANCH  12  13
ENDBRANCH   1  12
BRANCH   8  15
ATOM     15  C   UNL     1       3.854   5.571  19.183  0.00  0.00    +0.000 C 
BRANCH  15  16
ATOM     16  C   UNL     1       3.992   6.348  17.819  0.00  0.00    +0.000 C 
BRANCH  16  17
ATOM     17  C   UNL     1       4.783   5.605  16.689  0.00  0.00    +0.000 A 
ATOM     18  C   UNL     1       5.070   4.233  16.758  0.00  0.00    +0.000 A 
ATOM     19  C   UNL     1       5.707   3.543  15.698  0.00  0.00    +0.000 A 
ATOM     20  C   UNL     1       6.066   4.186  14.513  0.00  0.00    +0.000 A 
ATOM     21  C   UNL     1       5.835   5.555  14.434  0.00  0.00    +0.000 A 
ATOM     22  C   UNL     1       5.192   6.248  15.499  0.00  0.00    +0.000 A 
BRANCH  20  23
ATOM     23  O   UNL     1       6.692   3.401  13.590  0.00  0.00    +0.000 OA
BRANCH  23  24
ATOM     24  C   UNL     1       6.276   3.393  12.227  0.00  0.00    +0.000 C 
ATOM     25  F   UNL     1       6.500   2.232  11.581  0.00  0.00    +0.000 F 
ATOM     26  F   UNL     1       4.952   3.670  12.166  0.00  0.00    +0.000 F 
ATOM     27  F   UNL     1       6.929   4.376  11.562  0.00  0.00    +0.000 F 
ENDBRANCH  23  24
ENDBRANCH  20  23
ENDBRANCH  16  17
ENDBRANCH  15  16
ENDBRANCH   8  15
TORSDOF 7
ENDMDL
MODEL 5
REMARK VINA RESULT:      -7.8      4.818      7.264
REMARK  Name = 
REMARK  7 active torsions:
REMARK  status: ('A' for Active; 'I' for Inactive)
REMARK    1  A    between atoms: C_2  and  OXT_3
REMARK    2  A    between atoms: C_2  and  CA_4
REMARK    3  A    between atoms: C_11  and  C_12
REMARK    4  A    between atoms: C_12  and  C_13
REMARK    5  A    between atoms: C_13  and  C_14
REMARK    6  A    between atoms: C_17  and  O_18
REMARK    7  A    between atoms: O_18  and  C_19
REMARK                            x       y       z     vdW  Elec       q    Type
REMARK                         _______ _______ _______ _____ _____    ______ ____
ROOT
ATOM      1  CA  UNL     1       6.442   4.431  16.617  0.00  0.00    +0.000 A 
ATOM      2  N   UNL     1       7.471   5.061  17.327  0.00  0.00    +0.000 N 
ATOM      3  C   UNL     1       7.334   5.540  18.586  0.00  0.00    +0.000 A 
ATOM      4  O   UNL     1       8.193   6.254  19.089  0.00  0.00    +0.000 OA
ATOM      5  N   UNL     1       6.207   5.168  19.223  0.00  0.00    +0.000 N 
ATOM      6  C   UNL     1       5.517   4.078  18.795  0.00  0.00    +0.000 A 
ATOM      7  O   UNL     1       5.011   3.303  19.598  0.00  0.00    +0.000 OA
ATOM      8  C   UNL     1       5.355   3.912  17.291  0.00  0.00    +0.000 A 
ATOM      9  H   UNL     1       8.212   5.546  16.819  0.00  0.00    +0.000 HD
ATOM     10  H   UNL     1       6.224   5.333  20.216  0.00  0.00    +0.000 HD
ENDROOT
BRANCH   1  12
ATOM     11  O   UNL     1       7.646   5.483  14.815  0.00  0.00    +0.000 OA
ATOM     12  C   UNL     1       6.773   4.715  15.166  0.00  0.00    +0.000 C 
BRANCH  12  13
ATOM     13  OXT UNL     1       6.446   3.674  14.344  0.00  0.00    +0.000 OA
ATOM     14  HXT UNL     1       7.209   3.192  13.974  0.00  0.00    +0.000 HD
ENDBRANCH  12  13
ENDBRANCH   1  12
BRANCH   8  15
ATOM     15  C   UNL     1       3.841   3.424  17.051  0.00  0.00    +0.000 C 
BRANCH  15  16
ATOM     16  C   UNL     1       2.559   3.501  17.964  0.00  0.00    +0.000 C 
BRANCH  16  17
ATOM     17  C   UNL     1       2.299   4.882  18.659  0.00  0.00    +0.000 A 
ATOM     18  C   UNL     1       1.903   4.978  20.002  0.00  0.00    +0.000 A 
ATOM     19  C   UNL     1       1.753   6.225  20.655  0.00  0.00    +0.000 A 
ATOM     20  C   UNL     1       2.012   7.433  20.002  0.00  0.00    +0.000 A 
ATOM     21  C   UNL     1       2.362   7.370  18.658  0.00  0.00    +0.000 A 
ATOM     22  C   UNL     1       2.515   6.114  18.003  0.00  0.00    +0.000 A 
BRANCH  20  23
ATOM     23  O   UNL     1       1.803   8.554  20.748  0.00  0.00    +0.000 OA
BRANCH  23  24
ATOM     24  C   UNL     1       0.559   9.249  20.698  0.00  0.00    +0.000 C 
ATOM     25  F   UNL     1       0.102   9.488  19.453  0.00  0.00    +0.000 F 
ATOM     26  F   UNL     1      -0.376   8.537  21.369  0.00  0.00    +0.000 F 
ATOM     27  F   UNL     1       0.695  10.440  21.329  0.00  0.00    +0.000 F 
ENDBRANCH  23  24
ENDBRANCH  20  23
ENDBRANCH  16  17
ENDBRANCH  15  16
ENDBRANCH   8  15
TORSDOF 7
ENDMDL
MODEL 6
REMARK VINA RESULT:      -7.7      5.614      7.534
REMARK  Name = 
REMARK  7 active torsions:
REMARK  status: ('A' for Active; 'I' for Inactive)
REMARK    1  A    between atoms: C_2  and  OXT_3
REMARK    2  A    between atoms: C_2  and  CA_4
REMARK    3  A    between atoms: C_11  and  C_12
REMARK    4  A    between atoms: C_12  and  C_13
REMARK    5  A    between atoms: C_13  and  C_14
REMARK    6  A    between atoms: C_17  and  O_18
REMARK    7  A    between atoms: O_18  and  C_19
REMARK                            x       y       z     vdW  Elec       q    Type
REMARK                         _______ _______ _______ _____ _____    ______ ____
ROOT
ATOM      1  CA  UNL     1       2.647   3.725  19.416  0.00  0.00    +0.000 A 
ATOM      2  N   UNL     1       3.319   2.777  20.197  0.00  0.00    +0.000 N 
ATOM      3  C   UNL     1       4.639   2.499  20.076  0.00  0.00    +0.000 A 
ATOM      4  O   UNL     1       5.137   1.532  20.638  0.00  0.00    +0.000 OA
ATOM      5  N   UNL     1       5.339   3.361  19.312  0.00  0.00    +0.000 N 
ATOM      6  C   UNL     1       4.846   4.602  19.068  0.00  0.00    +0.000 A 
ATOM      7  O   UNL     1       5.587   5.578  19.053  0.00  0.00    +0.000 OA
ATOM      8  C   UNL     1       3.360   4.705  18.754  0.00  0.00    +0.000 A 
ATOM      9  H   UNL     1       2.804   1.987  20.588  0.00  0.00    +0.000 HD
ATOM     10  H   UNL     1       6.337   3.281  19.416  0.00  0.00    +0.000 HD
ENDROOT
BRANCH   1  12
ATOM     11  O   UNL     1       0.900   2.163  18.860  0.00  0.00    +0.000 OA
ATOM     12  C   UNL     1       1.221   3.216  19.372  0.00  0.00    +0.000 C 
BRANCH  12  13
ATOM     13  OXT UNL     1       0.462   3.706  20.397  0.00  0.00    +0.000 OA
ATOM     14  HXT UNL     1       0.966   4.162  21.096  0.00  0.00    +0.000 HD
ENDBRANCH  12  13
ENDBRANCH   1  12
BRANCH   8  15
ATOM     15  C   UNL     1       3.223   5.765  17.552  0.00  0.00    +0.000 C 
BRANCH  15  16
ATOM     16  C   UNL     1       3.298   7.339  17.531  0.00  0.00    +0.000 C 
BRANCH  16  17
ATOM     17  C   UNL     1       2.424   8.077  18.603  0.00  0.00    +0.000 A 
ATOM     18  C   UNL     1       1.760   9.282  18.323  0.00  0.00    +0.000 A 
ATOM     19  C   UNL     1       0.901   9.903  19.261  0.00  0.00    +0.000 A 
ATOM     20  C   UNL     1       0.650   9.340  20.514  0.00  0.00    +0.000 A 
ATOM     21  C   UNL     1       1.329   8.170  20.836  0.00  0.00    +0.000 A 
ATOM     22  C   UNL     1       2.191   7.544  19.890  0.00  0.00    +0.000 A 
BRANCH  20  23
ATOM     23  O   UNL     1      -0.179  10.061  21.321  0.00  0.00    +0.000 OA
BRANCH  23  24
ATOM     24  C   UNL     1      -0.516   9.601  22.627  0.00  0.00    +0.000 C 
ATOM     25  F   UNL     1      -1.029   8.356  22.667  0.00  0.00    +0.000 F 
ATOM     26  F   UNL     1       0.589   9.635  23.409  0.00  0.00    +0.000 F 
ATOM     27  F   UNL     1      -1.425  10.446  23.171  0.00  0.00    +0.000 F 
ENDBRANCH  23  24
ENDBRANCH  20  23
ENDBRANCH  16  17
ENDBRANCH  15  16
ENDBRANCH   8  15
TORSDOF 7
ENDMDL
MODEL 7
REMARK VINA RESULT:      -7.6      6.054      8.365
REMARK  Name = 
REMARK  7 active torsions:
REMARK  status: ('A' for Active; 'I' for Inactive)
REMARK    1  A    between atoms: C_2  and  OXT_3
REMARK    2  A    between atoms: C_2  and  CA_4
REMARK    3  A    between atoms: C_11  and  C_12
REMARK    4  A    between atoms: C_12  and  C_13
REMARK    5  A    between atoms: C_13  and  C_14
REMARK    6  A    between atoms: C_17  and  O_18
REMARK    7  A    between atoms: O_18  and  C_19
REMARK                            x       y       z     vdW  Elec       q    Type
REMARK                         _______ _______ _______ _____ _____    ______ ____
ROOT
ATOM      1  CA  UNL     1       5.388   4.970  18.658  0.00  0.00    +0.000 A 
ATOM      2  N   UNL     1       6.640   4.358  18.529  0.00  0.00    +0.000 N 
ATOM      3  C   UNL     1       7.531   4.658  17.554  0.00  0.00    +0.000 A 
ATOM      4  O   UNL     1       8.521   3.964  17.365  0.00  0.00    +0.000 OA
ATOM      5  N   UNL     1       7.244   5.762  16.837  0.00  0.00    +0.000 N 
ATOM      6  C   UNL     1       6.395   6.695  17.341  0.00  0.00    +0.000 A 
ATOM      7  O   UNL     1       6.613   7.890  17.182  0.00  0.00    +0.000 OA
ATOM      8  C   UNL     1       5.146   6.182  18.044  0.00  0.00    +0.000 A 
ATOM      9  H   UNL     1       6.778   3.410  18.884  0.00  0.00    +0.000 HD
ATOM     10  H   UNL     1       8.013   6.100  16.282  0.00  0.00    +0.000 HD
ENDROOT
BRANCH   1  12
ATOM     11  O   UNL     1       3.320   3.934  19.330  0.00  0.00    +0.000 OA
ATOM     12  C   UNL     1       4.534   3.917  19.334  0.00  0.00    +0.000 C 
BRANCH  12  13
ATOM     13  OXT UNL     1       5.173   2.713  19.433  0.00  0.00    +0.000 OA
ATOM     14  HXT UNL     1       5.794   2.521  18.706  0.00  0.00    +0.000 HD
ENDBRANCH  12  13
ENDBRANCH   1  12
BRANCH   8  15
ATOM     15  C   UNL     1       3.939   7.136  17.573  0.00  0.00    +0.000 C 
BRANCH  15  16
ATOM     16  C   UNL     1       2.389   7.079  17.852  0.00  0.00    +0.000 C 
BRANCH  16  17
ATOM     17  C   UNL     1       1.853   8.084  18.930  0.00  0.00    +0.000 A 
ATOM     18  C   UNL     1       1.776   7.747  20.290  0.00  0.00    +0.000 A 
ATOM     19  C   UNL     1       1.375   8.682  21.275  0.00  0.00    +0.000 A 
ATOM     20  C   UNL     1       1.052  10.001  20.949  0.00  0.00    +0.000 A 
ATOM     21  C   UNL     1       1.076  10.350  19.603  0.00  0.00    +0.000 A 
ATOM     22  C   UNL     1       1.482   9.410  18.613  0.00  0.00    +0.000 A 
BRANCH  20  23
ATOM     23  O   UNL     1       0.661  10.781  21.996  0.00  0.00    +0.000 OA
BRANCH  23  24
ATOM     24  C   UNL     1      -0.699  10.817  22.418  0.00  0.00    +0.000 C 
ATOM     25  F   UNL     1      -1.105   9.724  23.095  0.00  0.00    +0.000 F 
ATOM     26  F   UNL     1      -0.893  11.903  23.203  0.00  0.00    +0.000 F 
ATOM     27  F   UNL     1      -1.495  10.954  21.330  0.00  0.00    +0.000 F 
ENDBRANCH  23  24
ENDBRANCH  20  23
ENDBRANCH  16  17
ENDBRANCH  15  16
ENDBRANCH   8  15
TORSDOF 7
ENDMDL
MODEL 8
REMARK VINA RESULT:      -7.6      4.881      7.363
REMARK  Name = 
REMARK  7 active torsions:
REMARK  status: ('A' for Active; 'I' for Inactive)
REMARK    1  A    between atoms: C_2  and  OXT_3
REMARK    2  A    between atoms: C_2  and  CA_4
REMARK    3  A    between atoms: C_11  and  C_12
REMARK    4  A    between atoms: C_12  and  C_13
REMARK    5  A    between atoms: C_13  and  C_14
REMARK    6  A    between atoms: C_17  and  O_18
REMARK    7  A    between atoms: O_18  and  C_19
REMARK                            x       y       z     vdW  Elec       q    Type
REMARK                         _______ _______ _______ _____ _____    ______ ____
ROOT
ATOM      1  CA  UNL     1       6.431   4.434  16.588  0.00  0.00    +0.000 A 
ATOM      2  N   UNL     1       7.504   4.943  17.328  0.00  0.00    +0.000 N 
ATOM      3  C   UNL     1       7.403   5.368  18.610  0.00  0.00    +0.000 A 
ATOM      4  O   UNL     1       8.315   5.985  19.147  0.00  0.00    +0.000 OA
ATOM      5  N   UNL     1       6.247   5.056  19.228  0.00  0.00    +0.000 N 
ATOM      6  C   UNL     1       5.474   4.049  18.747  0.00  0.00    +0.000 A 
ATOM      7  O   UNL     1       4.905   3.277  19.511  0.00  0.00    +0.000 OA
ATOM      8  C   UNL     1       5.303   3.971  17.237  0.00  0.00    +0.000 A 
ATOM      9  H   UNL     1       8.284   5.392  16.844  0.00  0.00    +0.000 HD
ATOM     10  H   UNL     1       6.275   5.170  20.228  0.00  0.00    +0.000 HD
ENDROOT
BRANCH   1  12
ATOM     11  O   UNL     1       7.645   5.564  14.842  0.00  0.00    +0.000 OA
ATOM     12  C   UNL     1       6.788   4.763  15.153  0.00  0.00    +0.000 C 
BRANCH  12  13
ATOM     13  OXT UNL     1       6.511   3.733  14.299  0.00  0.00    +0.000 OA
ATOM     14  HXT UNL     1       5.780   3.905  13.677  0.00  0.00    +0.000 HD
ENDBRANCH  12  13
ENDBRANCH   1  12
BRANCH   8  15
ATOM     15  C   UNL     1       3.756   3.619  16.974  0.00  0.00    +0.000 C 
BRANCH  15  16
ATOM     16  C   UNL     1       2.483   3.740  17.896  0.00  0.00    +0.000 C 
BRANCH  16  17
ATOM     17  C   UNL     1       2.335   5.090  18.680  0.00  0.00    +0.000 A 
ATOM     18  C   UNL     1       2.571   6.334  18.073  0.00  0.00    +0.000 A 
ATOM     19  C   UNL     1       2.354   7.556  18.754  0.00  0.00    +0.000 A 
ATOM     20  C   UNL     1       1.871   7.593  20.064  0.00  0.00    +0.000 A 
ATOM     21  C   UNL     1       1.673   6.375  20.705  0.00  0.00    +0.000 A 
ATOM     22  C   UNL     1       1.888   5.146  20.019  0.00  0.00    +0.000 A 
BRANCH  20  23
ATOM     23  O   UNL     1       1.734   8.839  20.599  0.00  0.00    +0.000 OA
BRANCH  23  24
ATOM     24  C   UNL     1       0.450   9.442  20.737  0.00  0.00    +0.000 C 
ATOM     25  F   UNL     1       0.467  10.680  21.269  0.00  0.00    +0.000 F 
ATOM     26  F   UNL     1      -0.144   9.506  19.522  0.00  0.00    +0.000 F 
ATOM     27  F   UNL     1      -0.323   8.658  21.527  0.00  0.00    +0.000 F 
ENDBRANCH  23  24
ENDBRANCH  20  23
ENDBRANCH  16  17
ENDBRANCH  15  16
ENDBRANCH   8  15
TORSDOF 7
ENDMDL
MODEL 9
REMARK VINA RESULT:      -7.5      5.779      7.986
REMARK  Name = 
REMARK  7 active torsions:
REMARK  status: ('A' for Active; 'I' for Inactive)
REMARK    1  A    between atoms: C_2  and  OXT_3
REMARK    2  A    between atoms: C_2  and  CA_4
REMARK    3  A    between atoms: C_11  and  C_12
REMARK    4  A    between atoms: C_12  and  C_13
REMARK    5  A    between atoms: C_13  and  C_14
REMARK    6  A    between atoms: C_17  and  O_18
REMARK    7  A    between atoms: O_18  and  C_19
REMARK                            x       y       z     vdW  Elec       q    Type
REMARK                         _______ _______ _______ _____ _____    ______ ____
ROOT
ATOM      1  CA  UNL     1       5.472   4.832  18.680  0.00  0.00    +0.000 A 
ATOM      2  N   UNL     1       5.590   3.620  19.370  0.00  0.00    +0.000 N 
ATOM      3  C   UNL     1       4.535   2.852  19.733  0.00  0.00    +0.000 A 
ATOM      4  O   UNL     1       4.673   1.909  20.501  0.00  0.00    +0.000 OA
ATOM      5  N   UNL     1       3.356   3.202  19.183  0.00  0.00    +0.000 N 
ATOM      6  C   UNL     1       3.333   3.960  18.056  0.00  0.00    +0.000 A 
ATOM      7  O   UNL     1       2.518   3.736  17.168  0.00  0.00    +0.000 OA
ATOM      8  C   UNL     1       4.313   5.122  17.987  0.00  0.00    +0.000 A 
ATOM      9  H   UNL     1       6.397   3.460  19.975  0.00  0.00    +0.000 HD
ATOM     10  H   UNL     1       2.639   2.500  19.274  0.00  0.00    +0.000 HD
ENDROOT
BRANCH   1  12
ATOM     11  O   UNL     1       7.436   5.267  20.004  0.00  0.00    +0.000 OA
ATOM     12  C   UNL     1       6.693   5.618  19.110  0.00  0.00    +0.000 C 
BRANCH  12  13
ATOM     13  OXT UNL     1       7.198   6.388  18.101  0.00  0.00    +0.000 OA
ATOM     14  HXT UNL     1       8.170   6.466  18.096  0.00  0.00    +0.000 HD
ENDBRANCH  12  13
ENDBRANCH   1  12
BRANCH   8  15
ATOM     15  C   UNL     1       3.506   6.356  17.345  0.00  0.00    +0.000 C 
BRANCH  15  16
ATOM     16  C   UNL     1       3.385   7.867  17.777  0.00  0.00    +0.000 C 
BRANCH  16  17
ATOM     17  C   UNL     1       2.248   8.192  18.806  0.00  0.00    +0.000 A 
ATOM     18  C   UNL     1       2.088   7.464  19.996  0.00  0.00    +0.000 A 
ATOM     19  C   UNL     1       1.118   7.812  20.966  0.00  0.00    +0.000 A 
ATOM     20  C   UNL     1       0.277   8.915  20.803  0.00  0.00    +0.000 A 
ATOM     21  C   UNL     1       0.382   9.627  19.614  0.00  0.00    +0.000 A 
ATOM     22  C   UNL     1       1.361   9.279  18.639  0.00  0.00    +0.000 A 
BRANCH  20  23
ATOM     23  O   UNL     1      -0.623   9.114  21.808  0.00  0.00    +0.000 OA
BRANCH  23  24
ATOM     24  C   UNL     1      -0.340  10.005  22.883  0.00  0.00    +0.000 C 
ATOM     25  F   UNL     1       0.566   9.544  23.768  0.00  0.00    +0.000 F 
ATOM     26  F   UNL     1       0.112  11.178  22.380  0.00  0.00    +0.000 F 
ATOM     27  F   UNL     1      -1.487  10.264  23.555  0.00  0.00    +0.000 F 
ENDBRANCH  23  24
ENDBRANCH  20  23
ENDBRANCH  16  17
ENDBRANCH  15  16
ENDBRANCH   8  15
TORSDOF 7
ENDMDL
