MODEL 1
REMARK VINA RESULT:      -7.1      0.000      0.000
REMARK  Name = 
REMARK  15 active torsions:
REMARK  status: ('A' for Active; 'I' for Inactive)
REMARK    1  A    between atoms: C_1  and  C_2
REMARK    2  A    between atoms: C_2  and  C_3
REMARK    3  A    between atoms: C_3  and  C_4
REMARK    4  A    between atoms: C_4  and  C_5
REMARK    5  A    between atoms: C_5  and  C_6
REMARK    6  A    between atoms: C_7  and  C_8
REMARK    7  A    between atoms: C_9  and  C_10
REMARK    8  A    between atoms: C_10  and  O_11
REMARK    9  A    between atoms: C_15  and  O_16
REMARK   10  A    between atoms: C_15  and  C_17
REMARK   11  A    between atoms: C_17  and  C_18
REMARK   12  A    between atoms: C_19  and  C_20
REMARK   13  A    between atoms: C_19  and  C_21
REMARK   14  A    between atoms: C_21  and  O_23
REMARK   15  A    between atoms: C_24  and  O_25
REMARK                            x       y       z     vdW  Elec       q    Type
REMARK                         _______ _______ _______ _____ _____    ______ ____
ROOT
ATOM      1  C   UNL     1       3.667   4.795  17.271  0.00  0.00    +0.000 C 
ATOM      2  C   UNL     1       4.039   6.073  17.485  0.00  0.00    +0.000 C 
ATOM      3  C   UNL     1       5.345   6.563  16.969  0.00  0.00    +0.000 C 
ATOM      4  O   UNL     1       5.673   7.729  17.200  0.00  0.00    +0.000 OA
ATOM      5  C   UNL     1       6.289   5.646  16.231  0.00  0.00    +0.000 C 
ATOM      6  C   UNL     1       5.701   4.349  15.667  0.00  0.00    +0.000 C 
ATOM      7  C   UNL     1       4.520   3.791  16.520  0.00  0.00    +0.000 C 
ENDROOT
BRANCH   1   9
ATOM      8  C   UNL     1       2.047   3.020  17.929  0.00  0.00    +0.000 C 
ATOM      9  C   UNL     1       2.373   4.311  17.757  0.00  0.00    +0.000 C 
BRANCH   8  10
ATOM     10  C   UNL     1       0.739   2.550  18.503  0.00  0.00    +0.000 C 
BRANCH  10  11
ATOM     11  C   UNL     1       0.565   3.052  19.940  0.00  0.00    +0.000 C 
BRANCH  11  12
ATOM     12  C   UNL     1       1.602   2.436  20.881  0.00  0.00    +0.000 C 
BRANCH  12  14
ATOM     13  C   UNL     1       2.198   4.869  21.170  0.00  0.00    +0.000 C 
ATOM     14  C   UNL     1       2.203   3.491  21.810  0.00  0.00    +0.000 C 
ENDBRANCH  12  14
ENDBRANCH  11  12
ENDBRANCH  10  11
ENDBRANCH   8  10
ENDBRANCH   1   9
BRANCH   6  15
ATOM     15  O   UNL     1       6.772   3.361  15.733  0.00  0.00    +0.000 OA
ATOM     16  H   UNL     1       7.604   3.884  15.735  0.00  0.00    +0.000 HD
ENDBRANCH   6  15
BRANCH   7  17
ATOM     17  O   UNL     1       5.118   2.883  17.471  0.00  0.00    +0.000 OA
ATOM     18  H   UNL     1       5.182   2.008  17.055  0.00  0.00    +0.000 HD
ENDBRANCH   7  17
BRANCH   2  19
ATOM     19  C   UNL     1       3.291   7.081  18.325  0.00  0.00    +0.000 C 
BRANCH  19  20
ATOM     20  O   UNL     1       2.772   8.116  17.505  0.00  0.00    +0.000 OA
ATOM     21  H   UNL     1       2.334   8.741  18.121  0.00  0.00    +0.000 HD
ENDBRANCH  19  20
ENDBRANCH   2  19
BRANCH   6  22
ATOM     22  C   UNL     1       5.304   4.465  14.168  0.00  0.00    +0.000 C 
BRANCH  22  23
ATOM     23  C   UNL     1       6.034   3.486  13.269  0.00  0.00    +0.000 C 
ATOM     24  C   UNL     1       5.583   2.952  12.112  0.00  0.00    +0.000 C 
ATOM     25  C   UNL     1       4.273   3.286  11.459  0.00  0.00    +0.000 C 
BRANCH  24  26
ATOM     26  C   UNL     1       6.488   1.961  11.455  0.00  0.00    +0.000 C 
ATOM     27  O   UNL     1       7.604   2.233  11.042  0.00  0.00    +0.000 OA
BRANCH  26  28
ATOM     28  O   UNL     1       5.973   0.719  11.350  0.00  0.00    +0.000 OA
ATOM     29  H   UNL     1       6.608  -0.010  11.449  0.00  0.00    +0.000 HD
ENDBRANCH  26  28
ENDBRANCH  24  26
ENDBRANCH  22  23
ENDBRANCH   6  22
TORSDOF 13
ENDMDL
MODEL 2
REMARK VINA RESULT:      -7.0      3.233      7.674
REMARK  Name = 
REMARK  15 active torsions:
REMARK  status: ('A' for Active; 'I' for Inactive)
REMARK    1  A    between atoms: C_1  and  C_2
REMARK    2  A    between atoms: C_2  and  C_3
REMARK    3  A    between atoms: C_3  and  C_4
REMARK    4  A    between atoms: C_4  and  C_5
REMARK    5  A    between atoms: C_5  and  C_6
REMARK    6  A    between atoms: C_7  and  C_8
REMARK    7  A    between atoms: C_9  and  C_10
REMARK    8  A    between atoms: C_10  and  O_11
REMARK    9  A    between atoms: C_15  and  O_16
REMARK   10  A    between atoms: C_15  and  C_17
REMARK   11  A    between atoms: C_17  and  C_18
REMARK   12  A    between atoms: C_19  and  C_20
REMARK   13  A    between atoms: C_19  and  C_21
REMARK   14  A    between atoms: C_21  and  O_23
REMARK   15  A    between atoms: C_24  and  O_25
REMARK                            x       y       z     vdW  Elec       q    Type
REMARK                         _______ _______ _______ _____ _____    ______ ____
ROOT
ATOM      1  C   UNL     1       6.283   4.547  16.434  0.00  0.00    +0.000 C 
ATOM      2  C   UNL     1       5.060   4.672  16.988  0.00  0.00    +0.000 C 
ATOM      3  C   UNL     1       4.900   5.385  18.283  0.00  0.00    +0.000 C 
ATOM      4  O   UNL     1       3.774   5.464  18.781  0.00  0.00    +0.000 OA
ATOM      5  C   UNL     1       6.091   5.950  19.017  0.00  0.00    +0.000 C 
ATOM      6  C   UNL     1       7.379   6.143  18.211  0.00  0.00    +0.000 C 
ATOM      7  C   UNL     1       7.546   5.097  17.067  0.00  0.00    +0.000 C 
ENDROOT
BRANCH   1   9
ATOM      8  C   UNL     1       6.520   4.478  13.955  0.00  0.00    +0.000 C 
ATOM      9  C   UNL     1       6.445   3.866  15.147  0.00  0.00    +0.000 C 
BRANCH   8  10
ATOM     10  C   UNL     1       6.763   3.763  12.654  0.00  0.00    +0.000 C 
BRANCH  10  11
ATOM     11  C   UNL     1       5.546   2.920  12.262  0.00  0.00    +0.000 C 
BRANCH  11  12
ATOM     12  C   UNL     1       4.385   3.795  11.784  0.00  0.00    +0.000 C 
BRANCH  12  14
ATOM     13  C   UNL     1       3.046   4.062   9.664  0.00  0.00    +0.000 C 
ATOM     14  C   UNL     1       3.565   3.086  10.706  0.00  0.00    +0.000 C 
ENDBRANCH  12  14
ENDBRANCH  11  12
ENDBRANCH  10  11
ENDBRANCH   8  10
ENDBRANCH   1   9
BRANCH   6  15
ATOM     15  O   UNL     1       8.475   5.922  19.148  0.00  0.00    +0.000 OA
ATOM     16  H   UNL     1       8.047   5.615  19.977  0.00  0.00    +0.000 HD
ENDBRANCH   6  15
BRANCH   7  17
ATOM     17  O   UNL     1       8.294   4.003  17.641  0.00  0.00    +0.000 OA
ATOM     18  H   UNL     1       8.165   4.021  18.604  0.00  0.00    +0.000 HD
ENDBRANCH   7  17
BRANCH   2  19
ATOM     19  C   UNL     1       3.788   4.045  16.469  0.00  0.00    +0.000 C 
BRANCH  19  20
ATOM     20  O   UNL     1       3.314   3.066  17.381  0.00  0.00    +0.000 OA
ATOM     21  H   UNL     1       3.722   2.223  17.093  0.00  0.00    +0.000 HD
ENDBRANCH  19  20
ENDBRANCH   2  19
BRANCH   6  22
ATOM     22  C   UNL     1       7.546   7.593  17.676  0.00  0.00    +0.000 C 
BRANCH  22  23
ATOM     23  C   UNL     1       8.404   8.473  18.564  0.00  0.00    +0.000 C 
ATOM     24  C   UNL     1       8.596   9.806  18.447  0.00  0.00    +0.000 C 
ATOM     25  C   UNL     1       7.930  10.689  17.432  0.00  0.00    +0.000 C 
BRANCH  24  26
ATOM     26  C   UNL     1       9.545  10.417  19.426  0.00  0.00    +0.000 C 
ATOM     27  O   UNL     1       9.325  10.497  20.624  0.00  0.00    +0.000 OA
BRANCH  26  28
ATOM     28  O   UNL     1      10.688  10.881  18.880  0.00  0.00    +0.000 OA
ATOM     29  H   UNL     1      10.891  10.557  17.987  0.00  0.00    +0.000 HD
ENDBRANCH  26  28
ENDBRANCH  24  26
ENDBRANCH  22  23
ENDBRANCH   6  22
TORSDOF 13
ENDMDL
MODEL 3
REMARK VINA RESULT:      -6.9      1.319      1.786
REMARK  Name = 
REMARK  15 active torsions:
REMARK  status: ('A' for Active; 'I' for Inactive)
REMARK    1  A    between atoms: C_1  and  C_2
REMARK    2  A    between atoms: C_2  and  C_3
REMARK    3  A    between atoms: C_3  and  C_4
REMARK    4  A    between atoms: C_4  and  C_5
REMARK    5  A    between atoms: C_5  and  C_6
REMARK    6  A    between atoms: C_7  and  C_8
REMARK    7  A    between atoms: C_9  and  C_10
REMARK    8  A    between atoms: C_10  and  O_11
REMARK    9  A    between atoms: C_15  and  O_16
REMARK   10  A    between atoms: C_15  and  C_17
REMARK   11  A    between atoms: C_17  and  C_18
REMARK   12  A    between atoms: C_19  and  C_20
REMARK   13  A    between atoms: C_19  and  C_21
REMARK   14  A    between atoms: C_21  and  O_23
REMARK   15  A    between atoms: C_24  and  O_25
REMARK                            x       y       z     vdW  Elec       q    Type
REMARK                         _______ _______ _______ _____ _____    ______ ____
ROOT
ATOM      1  C   UNL     1       4.536   4.450  17.421  0.00  0.00    +0.000 C 
ATOM      2  C   UNL     1       3.957   5.664  17.516  0.00  0.00    +0.000 C 
ATOM      3  C   UNL     1       4.380   6.762  16.606  0.00  0.00    +0.000 C 
ATOM      4  O   UNL     1       3.852   7.869  16.730  0.00  0.00    +0.000 OA
ATOM      5  C   UNL     1       5.477   6.558  15.591  0.00  0.00    +0.000 C 
ATOM      6  C   UNL     1       5.838   5.112  15.236  0.00  0.00    +0.000 C 
ATOM      7  C   UNL     1       5.629   4.121  16.422  0.00  0.00    +0.000 C 
ENDROOT
BRANCH   1   9
ATOM      8  C   UNL     1       4.526   3.175  19.561  0.00  0.00    +0.000 C 
ATOM      9  C   UNL     1       4.109   3.357  18.299  0.00  0.00    +0.000 C 
BRANCH   8  10
ATOM     10  C   UNL     1       4.016   2.090  20.470  0.00  0.00    +0.000 C 
BRANCH  10  11
ATOM     11  C   UNL     1       2.988   2.650  21.458  0.00  0.00    +0.000 C 
BRANCH  11  12
ATOM     12  C   UNL     1       1.556   2.322  21.027  0.00  0.00    +0.000 C 
BRANCH  12  14
ATOM     13  C   UNL     1       0.611   3.036  18.800  0.00  0.00    +0.000 C 
ATOM     14  C   UNL     1       0.945   3.467  20.219  0.00  0.00    +0.000 C 
ENDBRANCH  12  14
ENDBRANCH  11  12
ENDBRANCH  10  11
ENDBRANCH   8  10
ENDBRANCH   1   9
BRANCH   6  15
ATOM     15  O   UNL     1       7.266   5.117  14.938  0.00  0.00    +0.000 OA
ATOM     16  H   UNL     1       7.711   5.047  15.812  0.00  0.00    +0.000 HD
ENDBRANCH   6  15
BRANCH   7  17
ATOM     17  O   UNL     1       6.893   4.066  17.117  0.00  0.00    +0.000 OA
ATOM     18  H   UNL     1       6.724   4.192  18.065  0.00  0.00    +0.000 HD
ENDBRANCH   7  17
BRANCH   2  19
ATOM     19  C   UNL     1       2.954   6.083  18.564  0.00  0.00    +0.000 C 
BRANCH  19  20
ATOM     20  O   UNL     1       3.623   6.545  19.728  0.00  0.00    +0.000 OA
ATOM     21  H   UNL     1       4.522   6.797  19.429  0.00  0.00    +0.000 HD
ENDBRANCH  19  20
ENDBRANCH   2  19
BRANCH   6  22
ATOM     22  C   UNL     1       5.124   4.607  13.951  0.00  0.00    +0.000 C 
BRANCH  22  23
ATOM     23  C   UNL     1       5.930   3.587  13.170  0.00  0.00    +0.000 C 
ATOM     24  C   UNL     1       5.560   2.955  12.034  0.00  0.00    +0.000 C 
ATOM     25  C   UNL     1       4.281   3.198  11.287  0.00  0.00    +0.000 C 
BRANCH  24  26
ATOM     26  C   UNL     1       6.527   1.946  11.504  0.00  0.00    +0.000 C 
ATOM     27  O   UNL     1       7.660   2.219  11.141  0.00  0.00    +0.000 OA
BRANCH  26  28
ATOM     28  O   UNL     1       6.049   0.686  11.458  0.00  0.00    +0.000 OA
ATOM     29  H   UNL     1       6.289   0.172  10.668  0.00  0.00    +0.000 HD
ENDBRANCH  26  28
ENDBRANCH  24  26
ENDBRANCH  22  23
ENDBRANCH   6  22
TORSDOF 13
ENDMDL
MODEL 4
REMARK VINA RESULT:      -6.9      1.118      1.529
REMARK  Name = 
REMARK  15 active torsions:
REMARK  status: ('A' for Active; 'I' for Inactive)
REMARK    1  A    between atoms: C_1  and  C_2
REMARK    2  A    between atoms: C_2  and  C_3
REMARK    3  A    between atoms: C_3  and  C_4
REMARK    4  A    between atoms: C_4  and  C_5
REMARK    5  A    between atoms: C_5  and  C_6
REMARK    6  A    between atoms: C_7  and  C_8
REMARK    7  A    between atoms: C_9  and  C_10
REMARK    8  A    between atoms: C_10  and  O_11
REMARK    9  A    between atoms: C_15  and  O_16
REMARK   10  A    between atoms: C_15  and  C_17
REMARK   11  A    between atoms: C_17  and  C_18
REMARK   12  A    between atoms: C_19  and  C_20
REMARK   13  A    between atoms: C_19  and  C_21
REMARK   14  A    between atoms: C_21  and  O_23
REMARK   15  A    between atoms: C_24  and  O_25
REMARK                            x       y       z     vdW  Elec       q    Type
REMARK                         _______ _______ _______ _____ _____    ______ ____
ROOT
ATOM      1  C   UNL     1       4.824   4.416  17.321  0.00  0.00    +0.000 C 
ATOM      2  C   UNL     1       4.301   5.645  17.509  0.00  0.00    +0.000 C 
ATOM      3  C   UNL     1       4.754   6.782  16.665  0.00  0.00    +0.000 C 
ATOM      4  O   UNL     1       4.277   7.901  16.873  0.00  0.00    +0.000 OA
ATOM      5  C   UNL     1       5.821   6.601  15.614  0.00  0.00    +0.000 C 
ATOM      6  C   UNL     1       6.111   5.168  15.156  0.00  0.00    +0.000 C 
ATOM      7  C   UNL     1       5.882   4.109  16.279  0.00  0.00    +0.000 C 
ENDROOT
BRANCH   1   9
ATOM      8  C   UNL     1       3.276   2.547  17.880  0.00  0.00    +0.000 C 
ATOM      9  C   UNL     1       4.366   3.287  18.134  0.00  0.00    +0.000 C 
BRANCH   8  10
ATOM     10  C   UNL     1       2.868   1.343  18.684  0.00  0.00    +0.000 C 
BRANCH  10  11
ATOM     11  C   UNL     1       1.880   1.737  19.787  0.00  0.00    +0.000 C 
BRANCH  11  12
ATOM     12  C   UNL     1       0.963   2.877  19.339  0.00  0.00    +0.000 C 
BRANCH  12  14
ATOM     13  C   UNL     1       2.066   3.860  21.384  0.00  0.00    +0.000 C 
ATOM     14  C   UNL     1       0.947   4.010  20.366  0.00  0.00    +0.000 C 
ENDBRANCH  12  14
ENDBRANCH  11  12
ENDBRANCH  10  11
ENDBRANCH   8  10
ENDBRANCH   1   9
BRANCH   6  15
ATOM     15  O   UNL     1       7.532   5.132  14.828  0.00  0.00    +0.000 OA
ATOM     16  H   UNL     1       7.573   5.247  13.853  0.00  0.00    +0.000 HD
ENDBRANCH   6  15
BRANCH   7  17
ATOM     17  O   UNL     1       7.156   3.955  16.939  0.00  0.00    +0.000 OA
ATOM     18  H   UNL     1       7.093   3.199  17.547  0.00  0.00    +0.000 HD
ENDBRANCH   7  17
BRANCH   2  19
ATOM     19  C   UNL     1       3.338   6.036  18.605  0.00  0.00    +0.000 C 
BRANCH  19  20
ATOM     20  O   UNL     1       2.102   6.455  18.048  0.00  0.00    +0.000 OA
ATOM     21  H   UNL     1       2.175   7.429  17.956  0.00  0.00    +0.000 HD
ENDBRANCH  19  20
ENDBRANCH   2  19
BRANCH   6  22
ATOM     22  C   UNL     1       5.351   4.781  13.857  0.00  0.00    +0.000 C 
BRANCH  22  23
ATOM     23  C   UNL     1       5.999   3.646  13.089  0.00  0.00    +0.000 C 
ATOM     24  C   UNL     1       5.482   2.976  12.035  0.00  0.00    +0.000 C 
ATOM     25  C   UNL     1       4.168   3.283  11.377  0.00  0.00    +0.000 C 
BRANCH  24  26
ATOM     26  C   UNL     1       6.313   1.854  11.503  0.00  0.00    +0.000 C 
ATOM     27  O   UNL     1       5.861   0.763  11.194  0.00  0.00    +0.000 OA
BRANCH  26  28
ATOM     28  O   UNL     1       7.627   2.140  11.385  0.00  0.00    +0.000 OA
ATOM     29  H   UNL     1       7.988   2.097  10.483  0.00  0.00    +0.000 HD
ENDBRANCH  26  28
ENDBRANCH  24  26
ENDBRANCH  22  23
ENDBRANCH   6  22
TORSDOF 13
ENDMDL
MODEL 5
REMARK VINA RESULT:      -6.8      3.736      7.697
REMARK  Name = 
REMARK  15 active torsions:
REMARK  status: ('A' for Active; 'I' for Inactive)
REMARK    1  A    between atoms: C_1  and  C_2
REMARK    2  A    between atoms: C_2  and  C_3
REMARK    3  A    between atoms: C_3  and  C_4
REMARK    4  A    between atoms: C_4  and  C_5
REMARK    5  A    between atoms: C_5  and  C_6
REMARK    6  A    between atoms: C_7  and  C_8
REMARK    7  A    between atoms: C_9  and  C_10
REMARK    8  A    between atoms: C_10  and  O_11
REMARK    9  A    between atoms: C_15  and  O_16
REMARK   10  A    between atoms: C_15  and  C_17
REMARK   11  A    between atoms: C_17  and  C_18
REMARK   12  A    between atoms: C_19  and  C_20
REMARK   13  A    between atoms: C_19  and  C_21
REMARK   14  A    between atoms: C_21  and  O_23
REMARK   15  A    between atoms: C_24  and  O_25
REMARK                            x       y       z     vdW  Elec       q    Type
REMARK                         _______ _______ _______ _____ _____    ______ ____
ROOT
ATOM      1  C   UNL     1       6.875   6.162  17.321  0.00  0.00    +0.000 C 
ATOM      2  C   UNL     1       6.392   5.653  16.169  0.00  0.00    +0.000 C 
ATOM      3  C   UNL     1       5.479   4.479  16.200  0.00  0.00    +0.000 C 
ATOM      4  O   UNL     1       5.071   4.018  15.132  0.00  0.00    +0.000 OA
ATOM      5  C   UNL     1       5.102   3.816  17.502  0.00  0.00    +0.000 C 
ATOM      6  C   UNL     1       5.330   4.620  18.785  0.00  0.00    +0.000 C 
ATOM      7  C   UNL     1       6.544   5.596  18.687  0.00  0.00    +0.000 C 
ENDROOT
BRANCH   1   9
ATOM      8  C   UNL     1       7.479   8.516  17.865  0.00  0.00    +0.000 C 
ATOM      9  C   UNL     1       7.757   7.331  17.299  0.00  0.00    +0.000 C 
BRANCH   8  10
ATOM     10  C   UNL     1       8.432   9.680  17.896  0.00  0.00    +0.000 C 
BRANCH  10  11
ATOM     11  C   UNL     1       9.070   9.821  19.282  0.00  0.00    +0.000 C 
BRANCH  11  12
ATOM     12  C   UNL     1      10.039  11.003  19.338  0.00  0.00    +0.000 C 
BRANCH  12  14
ATOM     13  C   UNL     1      11.712  12.092  17.795  0.00  0.00    +0.000 C 
ATOM     14  C   UNL     1      10.288  11.582  17.945  0.00  0.00    +0.000 C 
ENDBRANCH  12  14
ENDBRANCH  11  12
ENDBRANCH  10  11
ENDBRANCH   8  10
ENDBRANCH   1   9
BRANCH   6  15
ATOM     15  O   UNL     1       5.658   3.643  19.818  0.00  0.00    +0.000 OA
ATOM     16  H   UNL     1       6.519   3.939  20.188  0.00  0.00    +0.000 HD
ENDBRANCH   6  15
BRANCH   7  17
ATOM     17  O   UNL     1       7.684   4.855  19.174  0.00  0.00    +0.000 OA
ATOM     18  H   UNL     1       8.453   5.089  18.628  0.00  0.00    +0.000 HD
ENDBRANCH   7  17
BRANCH   2  19
ATOM     19  C   UNL     1       6.779   6.096  14.778  0.00  0.00    +0.000 C 
BRANCH  19  20
ATOM     20  O   UNL     1       7.741   5.207  14.228  0.00  0.00    +0.000 OA
ATOM     21  H   UNL     1       7.264   4.362  14.089  0.00  0.00    +0.000 HD
ENDBRANCH  19  20
ENDBRANCH   2  19
BRANCH   6  22
ATOM     22  C   UNL     1       4.053   5.360  19.272  0.00  0.00    +0.000 C 
BRANCH  22  23
ATOM     23  C   UNL     1       2.939   4.427  19.706  0.00  0.00    +0.000 C 
ATOM     24  C   UNL     1       1.867   4.045  18.976  0.00  0.00    +0.000 C 
ATOM     25  C   UNL     1       1.611   4.434  17.549  0.00  0.00    +0.000 C 
BRANCH  24  26
ATOM     26  C   UNL     1       0.886   3.161  19.673  0.00  0.00    +0.000 C 
ATOM     27  O   UNL     1       0.155   2.371  19.096  0.00  0.00    +0.000 OA
BRANCH  26  28
ATOM     28  O   UNL     1       0.865   3.298  21.015  0.00  0.00    +0.000 OA
ATOM     29  H   UNL     1       0.485   2.553  21.509  0.00  0.00    +0.000 HD
ENDBRANCH  26  28
ENDBRANCH  24  26
ENDBRANCH  22  23
ENDBRANCH   6  22
TORSDOF 13
ENDMDL
MODEL 6
REMARK VINA RESULT:      -6.8      2.962      7.861
REMARK  Name = 
REMARK  15 active torsions:
REMARK  status: ('A' for Active; 'I' for Inactive)
REMARK    1  A    between atoms: C_1  and  C_2
REMARK    2  A    between atoms: C_2  and  C_3
REMARK    3  A    between atoms: C_3  and  C_4
REMARK    4  A    between atoms: C_4  and  C_5
REMARK    5  A    between atoms: C_5  and  C_6
REMARK    6  A    between atoms: C_7  and  C_8
REMARK    7  A    between atoms: C_9  and  C_10
REMARK    8  A    between atoms: C_10  and  O_11
REMARK    9  A    between atoms: C_15  and  O_16
REMARK   10  A    between atoms: C_15  and  C_17
REMARK   11  A    between atoms: C_17  and  C_18
REMARK   12  A    between atoms: C_19  and  C_20
REMARK   13  A    between atoms: C_19  and  C_21
REMARK   14  A    between atoms: C_21  and  O_23
REMARK   15  A    between atoms: C_24  and  O_25
REMARK                            x       y       z     vdW  Elec       q    Type
REMARK                         _______ _______ _______ _____ _____    ______ ____
ROOT
ATOM      1  C   UNL     1       3.923   4.502  17.651  0.00  0.00    +0.000 C 
ATOM      2  C   UNL     1       2.968   3.563  17.806  0.00  0.00    +0.000 C 
ATOM      3  C   UNL     1       1.799   3.831  18.685  0.00  0.00    +0.000 C 
ATOM      4  O   UNL     1       0.952   2.946  18.829  0.00  0.00    +0.000 OA
ATOM      5  C   UNL     1       1.670   5.129  19.442  0.00  0.00    +0.000 C 
ATOM      6  C   UNL     1       2.530   6.303  18.964  0.00  0.00    +0.000 C 
ATOM      7  C   UNL     1       3.886   5.852  18.339  0.00  0.00    +0.000 C 
ENDROOT
BRANCH   1   9
ATOM      8  C   UNL     1       5.370   4.977  15.679  0.00  0.00    +0.000 C 
ATOM      9  C   UNL     1       5.066   4.254  16.768  0.00  0.00    +0.000 C 
BRANCH   8  10
ATOM     10  C   UNL     1       6.592   4.752  14.831  0.00  0.00    +0.000 C 
BRANCH  10  11
ATOM     11  C   UNL     1       6.335   3.659  13.789  0.00  0.00    +0.000 C 
BRANCH  11  12
ATOM     12  C   UNL     1       5.065   3.939  12.982  0.00  0.00    +0.000 C 
BRANCH  12  14
ATOM     13  C   UNL     1       3.729   3.307  10.938  0.00  0.00    +0.000 C 
ATOM     14  C   UNL     1       5.021   3.091  11.710  0.00  0.00    +0.000 C 
ENDBRANCH  12  14
ENDBRANCH  11  12
ENDBRANCH  10  11
ENDBRANCH   8  10
ENDBRANCH   1   9
BRANCH   6  15
ATOM     15  O   UNL     1       2.852   7.078  20.157  0.00  0.00    +0.000 OA
ATOM     16  H   UNL     1       2.980   6.412  20.868  0.00  0.00    +0.000 HD
ENDBRANCH   6  15
BRANCH   7  17
ATOM     17  O   UNL     1       4.836   5.847  19.427  0.00  0.00    +0.000 OA
ATOM     18  H   UNL     1       5.308   4.997  19.412  0.00  0.00    +0.000 HD
ENDBRANCH   7  17
BRANCH   2  19
ATOM     19  C   UNL     1       3.009   2.161  17.245  0.00  0.00    +0.000 C 
BRANCH  19  20
ATOM     20  O   UNL     1       3.249   1.223  18.282  0.00  0.00    +0.000 OA
ATOM     21  H   UNL     1       2.619   0.489  18.119  0.00  0.00    +0.000 HD
ENDBRANCH  19  20
ENDBRANCH   2  19
BRANCH   6  22
ATOM     22  C   UNL     1       1.765   7.264  18.011  0.00  0.00    +0.000 C 
BRANCH  22  23
ATOM     23  C   UNL     1       2.101   8.727  18.227  0.00  0.00    +0.000 C 
ATOM     24  C   UNL     1       1.257   9.779  18.129  0.00  0.00    +0.000 C 
ATOM     25  C   UNL     1      -0.213   9.683  17.841  0.00  0.00    +0.000 C 
BRANCH  24  26
ATOM     26  C   UNL     1       1.868  11.127  18.336  0.00  0.00    +0.000 C 
ATOM     27  O   UNL     1       1.782  11.757  19.377  0.00  0.00    +0.000 OA
BRANCH  26  28
ATOM     28  O   UNL     1       2.538  11.606  17.267  0.00  0.00    +0.000 OA
ATOM     29  H   UNL     1       2.050  11.599  16.426  0.00  0.00    +0.000 HD
ENDBRANCH  26  28
ENDBRANCH  24  26
ENDBRANCH  22  23
ENDBRANCH   6  22
TORSDOF 13
ENDMDL
MODEL 7
REMARK VINA RESULT:      -6.7      2.609      6.916
REMARK  Name = 
REMARK  15 active torsions:
REMARK  status: ('A' for Active; 'I' for Inactive)
REMARK    1  A    between atoms: C_1  and  C_2
REMARK    2  A    between atoms: C_2  and  C_3
REMARK    3  A    between atoms: C_3  and  C_4
REMARK    4  A    between atoms: C_4  and  C_5
REMARK    5  A    between atoms: C_5  and  C_6
REMARK    6  A    between atoms: C_7  and  C_8
REMARK    7  A    between atoms: C_9  and  C_10
REMARK    8  A    between atoms: C_10  and  O_11
REMARK    9  A    between atoms: C_15  and  O_16
REMARK   10  A    between atoms: C_15  and  C_17
REMARK   11  A    between atoms: C_17  and  C_18
REMARK   12  A    between atoms: C_19  and  C_20
REMARK   13  A    between atoms: C_19  and  C_21
REMARK   14  A    between atoms: C_21  and  O_23
REMARK   15  A    between atoms: C_24  and  O_25
REMARK                            x       y       z     vdW  Elec       q    Type
REMARK                         _______ _______ _______ _____ _____    ______ ____
ROOT
ATOM      1  C   UNL     1       5.233   5.674  16.754  0.00  0.00    +0.000 C 
ATOM      2  C   UNL     1       6.177   5.432  17.686  0.00  0.00    +0.000 C 
ATOM      3  C   UNL     1       5.829   5.504  19.130  0.00  0.00    +0.000 C 
ATOM      4  O   UNL     1       6.717   5.303  19.963  0.00  0.00    +0.000 OA
ATOM      5  C   UNL     1       4.439   5.876  19.583  0.00  0.00    +0.000 C 
ATOM      6  C   UNL     1       3.316   5.762  18.549  0.00  0.00    +0.000 C 
ATOM      7  C   UNL     1       3.798   6.030  17.090  0.00  0.00    +0.000 C 
ENDROOT
BRANCH   1   9
ATOM      8  C   UNL     1       5.871   4.450  14.680  0.00  0.00    +0.000 C 
ATOM      9  C   UNL     1       5.562   5.583  15.329  0.00  0.00    +0.000 C 
BRANCH   8  10
ATOM     10  C   UNL     1       6.131   4.369  13.201  0.00  0.00    +0.000 C 
BRANCH  10  11
ATOM     11  C   UNL     1       5.745   2.990  12.657  0.00  0.00    +0.000 C 
BRANCH  11  12
ATOM     12  C   UNL     1       5.159   3.085  11.246  0.00  0.00    +0.000 C 
BRANCH  12  14
ATOM     13  C   UNL     1       3.166   3.910   9.941  0.00  0.00    +0.000 C 
ATOM     14  C   UNL     1       3.667   3.414  11.287  0.00  0.00    +0.000 C 
ENDBRANCH  12  14
ENDBRANCH  11  12
ENDBRANCH  10  11
ENDBRANCH   8  10
ENDBRANCH   1   9
BRANCH   6  15
ATOM     15  O   UNL     1       2.360   6.815  18.877  0.00  0.00    +0.000 OA
ATOM     16  H   UNL     1       2.895   7.527  19.291  0.00  0.00    +0.000 HD
ENDBRANCH   6  15
BRANCH   7  17
ATOM     17  O   UNL     1       3.604   7.443  16.866  0.00  0.00    +0.000 OA
ATOM     18  H   UNL     1       2.912   7.550  16.191  0.00  0.00    +0.000 HD
ENDBRANCH   7  17
BRANCH   2  19
ATOM     19  C   UNL     1       7.643   5.193  17.416  0.00  0.00    +0.000 C 
BRANCH  19  20
ATOM     20  O   UNL     1       8.041   3.936  17.941  0.00  0.00    +0.000 OA
ATOM     21  H   UNL     1       7.228   3.388  17.950  0.00  0.00    +0.000 HD
ENDBRANCH  19  20
ENDBRANCH   2  19
BRANCH   6  22
ATOM     22  C   UNL     1       2.538   4.419  18.645  0.00  0.00    +0.000 C 
BRANCH  22  23
ATOM     23  C   UNL     1       3.433   3.212  18.846  0.00  0.00    +0.000 C 
ATOM     24  C   UNL     1       3.591   2.496  19.981  0.00  0.00    +0.000 C 
ATOM     25  C   UNL     1       2.845   2.732  21.262  0.00  0.00    +0.000 C 
BRANCH  24  26
ATOM     26  C   UNL     1       4.588   1.385  19.919  0.00  0.00    +0.000 C 
ATOM     27  O   UNL     1       5.420   1.171  20.786  0.00  0.00    +0.000 OA
BRANCH  26  28
ATOM     28  O   UNL     1       4.499   0.617  18.813  0.00  0.00    +0.000 OA
ATOM     29  H   UNL     1       4.181  -0.290  18.954  0.00  0.00    +0.000 HD
ENDBRANCH  26  28
ENDBRANCH  24  26
ENDBRANCH  22  23
ENDBRANCH   6  22
TORSDOF 13
ENDMDL
MODEL 8
REMARK VINA RESULT:      -6.6      0.674      1.055
REMARK  Name = 
REMARK  15 active torsions:
REMARK  status: ('A' for Active; 'I' for Inactive)
REMARK    1  A    between atoms: C_1  and  C_2
REMARK    2  A    between atoms: C_2  and  C_3
REMARK    3  A    between atoms: C_3  and  C_4
REMARK    4  A    between atoms: C_4  and  C_5
REMARK    5  A    between atoms: C_5  and  C_6
REMARK    6  A    between atoms: C_7  and  C_8
REMARK    7  A    between atoms: C_9  and  C_10
REMARK    8  A    between atoms: C_10  and  O_11
REMARK    9  A    between atoms: C_15  and  O_16
REMARK   10  A    between atoms: C_15  and  C_17
REMARK   11  A    between atoms: C_17  and  C_18
REMARK   12  A    between atoms: C_19  and  C_20
REMARK   13  A    between atoms: C_19  and  C_21
REMARK   14  A    between atoms: C_21  and  O_23
REMARK   15  A    between atoms: C_24  and  O_25
REMARK                            x       y       z     vdW  Elec       q    Type
REMARK                         _______ _______ _______ _____ _____    ______ ____
ROOT
ATOM      1  C   UNL     1       3.644   4.634  17.077  0.00  0.00    +0.000 C 
ATOM      2  C   UNL     1       3.983   5.896  17.409  0.00  0.00    +0.000 C 
ATOM      3  C   UNL     1       5.317   6.431  17.026  0.00  0.00    +0.000 C 
ATOM      4  O   UNL     1       5.612   7.580  17.364  0.00  0.00    +0.000 OA
ATOM      5  C   UNL     1       6.323   5.577  16.296  0.00  0.00    +0.000 C 
ATOM      6  C   UNL     1       5.795   4.320  15.599  0.00  0.00    +0.000 C 
ATOM      7  C   UNL     1       4.562   3.693  16.321  0.00  0.00    +0.000 C 
ENDROOT
BRANCH   1   9
ATOM      8  C   UNL     1       2.105   3.036  18.211  0.00  0.00    +0.000 C 
ATOM      9  C   UNL     1       2.324   4.107  17.431  0.00  0.00    +0.000 C 
BRANCH   8  10
ATOM     10  C   UNL     1       0.740   2.559  18.624  0.00  0.00    +0.000 C 
BRANCH  10  11
ATOM     11  C   UNL     1       0.460   2.919  20.087  0.00  0.00    +0.000 C 
BRANCH  11  12
ATOM     12  C   UNL     1       1.123   4.241  20.479  0.00  0.00    +0.000 C 
BRANCH  12  14
ATOM     13  C   UNL     1       2.383   2.550  21.862  0.00  0.00    +0.000 C 
ATOM     14  C   UNL     1       2.232   4.020  21.508  0.00  0.00    +0.000 C 
ENDBRANCH  12  14
ENDBRANCH  11  12
ENDBRANCH  10  11
ENDBRANCH   8  10
ENDBRANCH   1   9
BRANCH   6  15
ATOM     15  O   UNL     1       6.871   3.338  15.673  0.00  0.00    +0.000 OA
ATOM     16  H   UNL     1       6.747   2.762  14.886  0.00  0.00    +0.000 HD
ENDBRANCH   6  15
BRANCH   7  17
ATOM     17  O   UNL     1       5.100   2.724  17.246  0.00  0.00    +0.000 OA
ATOM     18  H   UNL     1       4.371   2.394  17.798  0.00  0.00    +0.000 HD
ENDBRANCH   7  17
BRANCH   2  19
ATOM     19  C   UNL     1       3.163   6.835  18.261  0.00  0.00    +0.000 C 
BRANCH  19  20
ATOM     20  O   UNL     1       3.537   6.714  19.625  0.00  0.00    +0.000 OA
ATOM     21  H   UNL     1       3.495   5.755  19.823  0.00  0.00    +0.000 HD
ENDBRANCH  19  20
ENDBRANCH   2  19
BRANCH   6  22
ATOM     22  C   UNL     1       5.507   4.541  14.088  0.00  0.00    +0.000 C 
BRANCH  22  23
ATOM     23  C   UNL     1       6.085   3.460  13.195  0.00  0.00    +0.000 C 
ATOM     24  C   UNL     1       5.513   2.921  12.095  0.00  0.00    +0.000 C 
ATOM     25  C   UNL     1       4.199   3.346  11.508  0.00  0.00    +0.000 C 
BRANCH  24  26
ATOM     26  C   UNL     1       6.279   1.822  11.434  0.00  0.00    +0.000 C 
ATOM     27  O   UNL     1       5.787   0.754  11.105  0.00  0.00    +0.000 OA
BRANCH  26  28
ATOM     28  O   UNL     1       7.581   2.101  11.218  0.00  0.00    +0.000 OA
ATOM     29  H   UNL     1       7.903   2.934  11.602  0.00  0.00    +0.000 HD
ENDBRANCH  26  28
ENDBRANCH  24  26
ENDBRANCH  22  23
ENDBRANCH   6  22
TORSDOF 13
ENDMDL
MODEL 9
REMARK VINA RESULT:      -6.6      3.621      5.755
REMARK  Name = 
REMARK  15 active torsions:
REMARK  status: ('A' for Active; 'I' for Inactive)
REMARK    1  A    between atoms: C_1  and  C_2
REMARK    2  A    between atoms: C_2  and  C_3
REMARK    3  A    between atoms: C_3  and  C_4
REMARK    4  A    between atoms: C_4  and  C_5
REMARK    5  A    between atoms: C_5  and  C_6
REMARK    6  A    between atoms: C_7  and  C_8
REMARK    7  A    between atoms: C_9  and  C_10
REMARK    8  A    between atoms: C_10  and  O_11
REMARK    9  A    between atoms: C_15  and  O_16
REMARK   10  A    between atoms: C_15  and  C_17
REMARK   11  A    between atoms: C_17  and  C_18
REMARK   12  A    between atoms: C_19  and  C_20
REMARK   13  A    between atoms: C_19  and  C_21
REMARK   14  A    between atoms: C_21  and  O_23
REMARK   15  A    between atoms: C_24  and  O_25
REMARK                            x       y       z     vdW  Elec       q    Type
REMARK                         _______ _______ _______ _____ _____    ______ ____
ROOT
ATOM      1  C   UNL     1       2.412   5.370  18.659  0.00  0.00    +0.000 C 
ATOM      2  C   UNL     1       2.045   5.164  19.940  0.00  0.00    +0.000 C 
ATOM      3  C   UNL     1       2.490   3.935  20.651  0.00  0.00    +0.000 C 
ATOM      4  O   UNL     1       2.120   3.759  21.814  0.00  0.00    +0.000 OA
ATOM      5  C   UNL     1       3.322   2.887  19.956  0.00  0.00    +0.000 C 
ATOM      6  C   UNL     1       4.040   3.307  18.670  0.00  0.00    +0.000 C 
ATOM      7  C   UNL     1       3.268   4.400  17.868  0.00  0.00    +0.000 C 
ENDROOT
BRANCH   1   9
ATOM      8  C   UNL     1       2.442   7.824  18.234  0.00  0.00    +0.000 C 
ATOM      9  C   UNL     1       1.996   6.589  17.959  0.00  0.00    +0.000 C 
BRANCH   8  10
ATOM     10  C   UNL     1       2.060   9.051  17.452  0.00  0.00    +0.000 C 
BRANCH  10  11
ATOM     11  C   UNL     1       1.592  10.169  18.390  0.00  0.00    +0.000 C 
BRANCH  11  12
ATOM     12  C   UNL     1       0.724   9.623  19.526  0.00  0.00    +0.000 C 
BRANCH  12  14
ATOM     13  C   UNL     1      -1.202  10.328  18.058  0.00  0.00    +0.000 C 
ATOM     14  C   UNL     1      -0.683  10.219  19.482  0.00  0.00    +0.000 C 
ENDBRANCH  12  14
ENDBRANCH  11  12
ENDBRANCH  10  11
ENDBRANCH   8  10
ENDBRANCH   1   9
BRANCH   6  15
ATOM     15  O   UNL     1       4.082   2.117  17.827  0.00  0.00    +0.000 OA
ATOM     16  H   UNL     1       4.421   2.429  16.959  0.00  0.00    +0.000 HD
ENDBRANCH   6  15
BRANCH   7  17
ATOM     17  O   UNL     1       2.425   3.685  16.939  0.00  0.00    +0.000 OA
ATOM     18  H   UNL     1       2.444   4.155  16.089  0.00  0.00    +0.000 HD
ENDBRANCH   7  17
BRANCH   2  19
ATOM     19  C   UNL     1       1.099   6.030  20.737  0.00  0.00    +0.000 C 
BRANCH  19  20
ATOM     20  O   UNL     1       1.826   6.986  21.494  0.00  0.00    +0.000 OA
ATOM     21  H   UNL     1       1.884   6.612  22.398  0.00  0.00    +0.000 HD
ENDBRANCH  19  20
ENDBRANCH   2  19
BRANCH   6  22
ATOM     22  C   UNL     1       5.518   3.726  18.910  0.00  0.00    +0.000 C 
BRANCH  22  23
ATOM     23  C   UNL     1       6.024   4.759  17.922  0.00  0.00    +0.000 C 
ATOM     24  C   UNL     1       7.003   5.668  18.126  0.00  0.00    +0.000 C 
ATOM     25  C   UNL     1       7.829   5.783  19.373  0.00  0.00    +0.000 C 
BRANCH  24  26
ATOM     26  C   UNL     1       7.261   6.613  16.997  0.00  0.00    +0.000 C 
ATOM     27  O   UNL     1       7.312   7.826  17.126  0.00  0.00    +0.000 OA
BRANCH  26  28
ATOM     28  O   UNL     1       7.441   6.016  15.800  0.00  0.00    +0.000 OA
ATOM     29  H   UNL     1       7.094   6.500  15.032  0.00  0.00    +0.000 HD
ENDBRANCH  26  28
ENDBRANCH  24  26
ENDBRANCH  22  23
ENDBRANCH   6  22
TORSDOF 13
ENDMDL
