MODEL 1
REMARK VINA RESULT:      -6.7      0.000      0.000
REMARK  Name = 
REMARK  5 active torsions:
REMARK  status: ('A' for Active; 'I' for Inactive)
REMARK    1  A    between atoms: C_2  and  C_4
REMARK    2  A    between atoms: C_4  and  O_5
REMARK    3  A    between atoms: C_4  and  C_6
REMARK    4  A    between atoms: C_4  and  C_13
REMARK    5  A    between atoms: C_6  and  C_7
REMARK                            x       y       z     vdW  Elec       q    Type
REMARK                         _______ _______ _______ _____ _____    ______ ____
ROOT
ATOM      1  C   UNL     1       5.625   4.883  16.925  0.00  0.00    +0.000 C 
ENDROOT
BRANCH   1   3
ATOM      2  N   UNL     1       7.707   4.373  18.094  0.00  0.00    +0.000 N 
ATOM      3  C   UNL     1       7.135   4.651  16.880  0.00  0.00    +0.000 C 
ATOM      4  O   UNL     1       7.797   4.627  15.849  0.00  0.00    +0.000 OA
ATOM      5  H   UNL     1       8.716   4.297  18.131  0.00  0.00    +0.000 HD
ATOM      6  H   UNL     1       7.211   4.641  18.939  0.00  0.00    +0.000 HD
ENDBRANCH   1   3
BRANCH   1   7
ATOM      7  C   UNL     1       5.406   6.364  16.521  0.00  0.00    +0.000 C 
ATOM      8  F   UNL     1       4.360   6.963  17.127  0.00  0.00    +0.000 F 
ATOM      9  F   UNL     1       6.507   7.103  16.835  0.00  0.00    +0.000 F 
ATOM     10  F   UNL     1       5.233   6.519  15.184  0.00  0.00    +0.000 F 
ENDBRANCH   1   7
BRANCH   1  11
ATOM     11  O   UNL     1       4.985   3.976  15.975  0.00  0.00    +0.000 OA
ATOM     12  H   UNL     1       4.427   3.371  16.495  0.00  0.00    +0.000 HD
ENDBRANCH   1  11
BRANCH   1  13
ATOM     13  C   UNL     1       5.049   4.642  18.339  0.00  0.00    +0.000 C 
BRANCH  13  14
ATOM     14  C   UNL     1       3.721   3.911  18.416  0.00  0.00    +0.000 A 
ATOM     15  C   UNL     1       3.697   2.567  18.816  0.00  0.00    +0.000 A 
ATOM     16  C   UNL     1       2.493   1.864  18.882  0.00  0.00    +0.000 A 
ATOM     17  C   UNL     1       1.296   2.498  18.556  0.00  0.00    +0.000 A 
ATOM     18  C   UNL     1       1.304   3.838  18.178  0.00  0.00    +0.000 A 
ATOM     19  C   UNL     1       2.508   4.543  18.116  0.00  0.00    +0.000 A 
ENDBRANCH  13  14
ENDBRANCH   1  13
TORSDOF 5
ENDMDL
MODEL 2
REMARK VINA RESULT:      -6.7      1.977      2.351
REMARK  Name = 
REMARK  5 active torsions:
REMARK  status: ('A' for Active; 'I' for Inactive)
REMARK    1  A    between atoms: C_2  and  C_4
REMARK    2  A    between atoms: C_4  and  O_5
REMARK    3  A    between atoms: C_4  and  C_6
REMARK    4  A    between atoms: C_4  and  C_13
REMARK    5  A    between atoms: C_6  and  C_7
REMARK                            x       y       z     vdW  Elec       q    Type
REMARK                         _______ _______ _______ _____ _____    ______ ____
ROOT
ATOM      1  C   UNL     1       5.832   4.969  18.001  0.00  0.00    +0.000 C 
ENDROOT
BRANCH   1   3
ATOM      2  N   UNL     1       7.903   5.192  19.275  0.00  0.00    +0.000 N 
ATOM      3  C   UNL     1       7.073   5.786  18.360  0.00  0.00    +0.000 C 
ATOM      4  O   UNL     1       7.373   6.849  17.831  0.00  0.00    +0.000 OA
ATOM      5  H   UNL     1       8.693   5.730  19.611  0.00  0.00    +0.000 HD
ATOM      6  H   UNL     1       7.527   4.461  19.873  0.00  0.00    +0.000 HD
ENDBRANCH   1   3
BRANCH   1   7
ATOM      7  C   UNL     1       6.020   4.529  16.526  0.00  0.00    +0.000 C 
ATOM      8  F   UNL     1       7.298   4.272  16.175  0.00  0.00    +0.000 F 
ATOM      9  F   UNL     1       5.318   3.386  16.284  0.00  0.00    +0.000 F 
ATOM     10  F   UNL     1       5.543   5.444  15.645  0.00  0.00    +0.000 F 
ENDBRANCH   1   7
BRANCH   1  11
ATOM     11  O   UNL     1       5.760   3.814  18.892  0.00  0.00    +0.000 OA
ATOM     12  H   UNL     1       5.582   3.037  18.334  0.00  0.00    +0.000 HD
ENDBRANCH   1  11
BRANCH   1  13
ATOM     13  C   UNL     1       4.538   5.804  18.131  0.00  0.00    +0.000 C 
BRANCH  13  14
ATOM     14  C   UNL     1       3.312   5.079  18.655  0.00  0.00    +0.000 A 
ATOM     15  C   UNL     1       2.942   5.235  19.999  0.00  0.00    +0.000 A 
ATOM     16  C   UNL     1       1.828   4.570  20.514  0.00  0.00    +0.000 A 
ATOM     17  C   UNL     1       1.065   3.746  19.690  0.00  0.00    +0.000 A 
ATOM     18  C   UNL     1       1.409   3.600  18.349  0.00  0.00    +0.000 A 
ATOM     19  C   UNL     1       2.521   4.269  17.832  0.00  0.00    +0.000 A 
ENDBRANCH  13  14
ENDBRANCH   1  13
TORSDOF 5
ENDMDL
MODEL 3
REMARK VINA RESULT:      -6.7      1.979      2.268
REMARK  Name = 
REMARK  5 active torsions:
REMARK  status: ('A' for Active; 'I' for Inactive)
REMARK    1  A    between atoms: C_2  and  C_4
REMARK    2  A    between atoms: C_4  and  O_5
REMARK    3  A    between atoms: C_4  and  C_6
REMARK    4  A    between atoms: C_4  and  C_13
REMARK    5  A    between atoms: C_6  and  C_7
REMARK                            x       y       z     vdW  Elec       q    Type
REMARK                         _______ _______ _______ _____ _____    ______ ____
ROOT
ATOM      1  C   UNL     1       5.965   5.013  18.021  0.00  0.00    +0.000 C 
ENDROOT
BRANCH   1   3
ATOM      2  N   UNL     1       7.952   5.234  19.424  0.00  0.00    +0.000 N 
ATOM      3  C   UNL     1       7.194   5.818  18.443  0.00  0.00    +0.000 C 
ATOM      4  O   UNL     1       7.548   6.863  17.910  0.00  0.00    +0.000 OA
ATOM      5  H   UNL     1       8.727   5.766  19.798  0.00  0.00    +0.000 HD
ATOM      6  H   UNL     1       7.523   4.524  20.012  0.00  0.00    +0.000 HD
ENDBRANCH   1   3
BRANCH   1   7
ATOM      7  C   UNL     1       6.205   4.605  16.544  0.00  0.00    +0.000 C 
ATOM      8  F   UNL     1       5.907   5.564  15.642  0.00  0.00    +0.000 F 
ATOM      9  F   UNL     1       7.517   4.291  16.352  0.00  0.00    +0.000 F 
ATOM     10  F   UNL     1       5.508   3.497  16.191  0.00  0.00    +0.000 F 
ENDBRANCH   1   7
BRANCH   1  11
ATOM     11  O   UNL     1       5.858   3.839  18.884  0.00  0.00    +0.000 OA
ATOM     12  H   UNL     1       5.580   3.098  18.318  0.00  0.00    +0.000 HD
ENDBRANCH   1  11
BRANCH   1  13
ATOM     13  C   UNL     1       4.669   5.850  18.124  0.00  0.00    +0.000 C 
BRANCH  13  14
ATOM     14  C   UNL     1       3.436   5.131  18.639  0.00  0.00    +0.000 A 
ATOM     15  C   UNL     1       2.655   4.377  17.750  0.00  0.00    +0.000 A 
ATOM     16  C   UNL     1       1.508   3.717  18.191  0.00  0.00    +0.000 A 
ATOM     17  C   UNL     1       1.129   3.795  19.529  0.00  0.00    +0.000 A 
ATOM     18  C   UNL     1       1.907   4.522  20.427  0.00  0.00    +0.000 A 
ATOM     19  C   UNL     1       3.058   5.179  19.987  0.00  0.00    +0.000 A 
ENDBRANCH  13  14
ENDBRANCH   1  13
TORSDOF 5
ENDMDL
MODEL 4
REMARK VINA RESULT:      -6.6      1.068      1.750
REMARK  Name = 
REMARK  5 active torsions:
REMARK  status: ('A' for Active; 'I' for Inactive)
REMARK    1  A    between atoms: C_2  and  C_4
REMARK    2  A    between atoms: C_4  and  O_5
REMARK    3  A    between atoms: C_4  and  C_6
REMARK    4  A    between atoms: C_4  and  C_13
REMARK    5  A    between atoms: C_6  and  C_7
REMARK                            x       y       z     vdW  Elec       q    Type
REMARK                         _______ _______ _______ _____ _____    ______ ____
ROOT
ATOM      1  C   UNL     1       6.114   4.906  17.730  0.00  0.00    +0.000 C 
ENDROOT
BRANCH   1   3
ATOM      2  N   UNL     1       7.778   5.411  19.444  0.00  0.00    +0.000 N 
ATOM      3  C   UNL     1       7.544   4.776  18.253  0.00  0.00    +0.000 C 
ATOM      4  O   UNL     1       8.413   4.098  17.717  0.00  0.00    +0.000 OA
ATOM      5  H   UNL     1       8.730   5.428  19.788  0.00  0.00    +0.000 HD
ATOM      6  H   UNL     1       7.147   6.154  19.732  0.00  0.00    +0.000 HD
ENDBRANCH   1   3
BRANCH   1   7
ATOM      7  C   UNL     1       6.099   6.171  16.833  0.00  0.00    +0.000 C 
ATOM      8  F   UNL     1       5.455   6.017  15.657  0.00  0.00    +0.000 F 
ATOM      9  F   UNL     1       5.477   7.197  17.480  0.00  0.00    +0.000 F 
ATOM     10  F   UNL     1       7.346   6.622  16.547  0.00  0.00    +0.000 F 
ENDBRANCH   1   7
BRANCH   1  11
ATOM     11  O   UNL     1       5.787   3.708  16.961  0.00  0.00    +0.000 OA
ATOM     12  H   UNL     1       5.686   3.986  16.034  0.00  0.00    +0.000 HD
ENDBRANCH   1  11
BRANCH   1  13
ATOM     13  C   UNL     1       5.096   5.076  18.881  0.00  0.00    +0.000 C 
BRANCH  13  14
ATOM     14  C   UNL     1       3.772   4.350  18.729  0.00  0.00    +0.000 A 
ATOM     15  C   UNL     1       2.773   4.904  17.914  0.00  0.00    +0.000 A 
ATOM     16  C   UNL     1       1.540   4.268  17.764  0.00  0.00    +0.000 A 
ATOM     17  C   UNL     1       1.291   3.066  18.423  0.00  0.00    +0.000 A 
ATOM     18  C   UNL     1       2.282   2.494  19.217  0.00  0.00    +0.000 A 
ATOM     19  C   UNL     1       3.517   3.128  19.363  0.00  0.00    +0.000 A 
ENDBRANCH  13  14
ENDBRANCH   1  13
TORSDOF 5
ENDMDL
MODEL 5
REMARK VINA RESULT:      -6.6      0.803      1.127
REMARK  Name = 
REMARK  5 active torsions:
REMARK  status: ('A' for Active; 'I' for Inactive)
REMARK    1  A    between atoms: C_2  and  C_4
REMARK    2  A    between atoms: C_4  and  O_5
REMARK    3  A    between atoms: C_4  and  C_6
REMARK    4  A    between atoms: C_4  and  C_13
REMARK    5  A    between atoms: C_6  and  C_7
REMARK                            x       y       z     vdW  Elec       q    Type
REMARK                         _______ _______ _______ _____ _____    ______ ____
ROOT
ATOM      1  C   UNL     1       5.837   4.832  17.456  0.00  0.00    +0.000 C 
ENDROOT
BRANCH   1   3
ATOM      2  N   UNL     1       7.570   5.124  19.152  0.00  0.00    +0.000 N 
ATOM      3  C   UNL     1       7.304   4.715  17.872  0.00  0.00    +0.000 C 
ATOM      4  O   UNL     1       8.180   4.224  17.170  0.00  0.00    +0.000 OA
ATOM      5  H   UNL     1       8.538   5.148  19.446  0.00  0.00    +0.000 HD
ATOM      6  H   UNL     1       6.909   5.745  19.612  0.00  0.00    +0.000 HD
ENDBRANCH   1   3
BRANCH   1   7
ATOM      7  C   UNL     1       5.754   6.064  16.518  0.00  0.00    +0.000 C 
ATOM      8  F   UNL     1       6.594   7.072  16.839  0.00  0.00    +0.000 F 
ATOM      9  F   UNL     1       6.060   5.702  15.240  0.00  0.00    +0.000 F 
ATOM     10  F   UNL     1       4.506   6.591  16.460  0.00  0.00    +0.000 F 
ENDBRANCH   1   7
BRANCH   1  11
ATOM     11  O   UNL     1       5.452   3.609  16.758  0.00  0.00    +0.000 OA
ATOM     12  H   UNL     1       6.263   3.087  16.633  0.00  0.00    +0.000 HD
ENDBRANCH   1  11
BRANCH   1  13
ATOM     13  C   UNL     1       4.911   5.046  18.675  0.00  0.00    +0.000 C 
BRANCH  13  14
ATOM     14  C   UNL     1       3.617   4.254  18.691  0.00  0.00    +0.000 A 
ATOM     15  C   UNL     1       3.524   3.100  19.484  0.00  0.00    +0.000 A 
ATOM     16  C   UNL     1       2.353   2.343  19.509  0.00  0.00    +0.000 A 
ATOM     17  C   UNL     1       1.254   2.732  18.745  0.00  0.00    +0.000 A 
ATOM     18  C   UNL     1       1.325   3.887  17.971  0.00  0.00    +0.000 A 
ATOM     19  C   UNL     1       2.496   4.648  17.950  0.00  0.00    +0.000 A 
ENDBRANCH  13  14
ENDBRANCH   1  13
TORSDOF 5
ENDMDL
MODEL 6
REMARK VINA RESULT:      -6.6      3.774      5.374
REMARK  Name = 
REMARK  5 active torsions:
REMARK  status: ('A' for Active; 'I' for Inactive)
REMARK    1  A    between atoms: C_2  and  C_4
REMARK    2  A    between atoms: C_4  and  O_5
REMARK    3  A    between atoms: C_4  and  C_6
REMARK    4  A    between atoms: C_4  and  C_13
REMARK    5  A    between atoms: C_6  and  C_7
REMARK                            x       y       z     vdW  Elec       q    Type
REMARK                         _______ _______ _______ _____ _____    ______ ____
ROOT
ATOM      1  C   UNL     1       2.773   3.668  19.570  0.00  0.00    +0.000 C 
ENDROOT
BRANCH   1   3
ATOM      2  N   UNL     1       2.210   1.674  18.276  0.00  0.00    +0.000 N 
ATOM      3  C   UNL     1       1.981   3.016  18.436  0.00  0.00    +0.000 C 
ATOM      4  O   UNL     1       1.142   3.599  17.759  0.00  0.00    +0.000 OA
ATOM      5  H   UNL     1       1.777   1.215  17.485  0.00  0.00    +0.000 HD
ATOM      6  H   UNL     1       3.064   1.277  18.658  0.00  0.00    +0.000 HD
ENDBRANCH   1   3
BRANCH   1   7
ATOM      7  C   UNL     1       1.750   3.944  20.702  0.00  0.00    +0.000 C 
ATOM      8  F   UNL     1       0.788   3.006  20.831  0.00  0.00    +0.000 F 
ATOM      9  F   UNL     1       2.389   4.007  21.905  0.00  0.00    +0.000 F 
ATOM     10  F   UNL     1       1.124   5.138  20.558  0.00  0.00    +0.000 F 
ENDBRANCH   1   7
BRANCH   1  11
ATOM     11  O   UNL     1       3.810   2.738  20.008  0.00  0.00    +0.000 OA
ATOM     12  H   UNL     1       3.927   2.876  20.964  0.00  0.00    +0.000 HD
ENDBRANCH   1  11
BRANCH   1  13
ATOM     13  C   UNL     1       3.424   4.997  19.124  0.00  0.00    +0.000 C 
BRANCH  13  14
ATOM     14  C   UNL     1       4.763   4.894  18.419  0.00  0.00    +0.000 A 
ATOM     15  C   UNL     1       4.810   4.444  17.091  0.00  0.00    +0.000 A 
ATOM     16  C   UNL     1       6.028   4.325  16.421  0.00  0.00    +0.000 A 
ATOM     17  C   UNL     1       7.216   4.660  17.067  0.00  0.00    +0.000 A 
ATOM     18  C   UNL     1       7.182   5.129  18.377  0.00  0.00    +0.000 A 
ATOM     19  C   UNL     1       5.963   5.253  19.047  0.00  0.00    +0.000 A 
ENDBRANCH  13  14
ENDBRANCH   1  13
TORSDOF 5
ENDMDL
MODEL 7
REMARK VINA RESULT:      -6.6      3.777      5.373
REMARK  Name = 
REMARK  5 active torsions:
REMARK  status: ('A' for Active; 'I' for Inactive)
REMARK    1  A    between atoms: C_2  and  C_4
REMARK    2  A    between atoms: C_4  and  O_5
REMARK    3  A    between atoms: C_4  and  C_6
REMARK    4  A    between atoms: C_4  and  C_13
REMARK    5  A    between atoms: C_6  and  C_7
REMARK                            x       y       z     vdW  Elec       q    Type
REMARK                         _______ _______ _______ _____ _____    ______ ____
ROOT
ATOM      1  C   UNL     1       2.766   3.627  19.563  0.00  0.00    +0.000 C 
ENDROOT
BRANCH   1   3
ATOM      2  N   UNL     1       2.093   1.652  18.295  0.00  0.00    +0.000 N 
ATOM      3  C   UNL     1       1.937   3.006  18.439  0.00  0.00    +0.000 C 
ATOM      4  O   UNL     1       1.127   3.625  17.759  0.00  0.00    +0.000 OA
ATOM      5  H   UNL     1       1.633   1.207  17.510  0.00  0.00    +0.000 HD
ATOM      6  H   UNL     1       2.926   1.214  18.678  0.00  0.00    +0.000 HD
ENDBRANCH   1   3
BRANCH   1   7
ATOM      7  C   UNL     1       1.775   3.913  20.720  0.00  0.00    +0.000 C 
ATOM      8  F   UNL     1       2.344   3.986  21.942  0.00  0.00    +0.000 F 
ATOM      9  F   UNL     1       1.149   5.107  20.516  0.00  0.00    +0.000 F 
ATOM     10  F   UNL     1       0.784   2.990  20.797  0.00  0.00    +0.000 F 
ENDBRANCH   1   7
BRANCH   1  11
ATOM     11  O   UNL     1       3.792   2.670  19.970  0.00  0.00    +0.000 OA
ATOM     12  H   UNL     1       3.841   1.994  19.271  0.00  0.00    +0.000 HD
ENDBRANCH   1  11
BRANCH   1  13
ATOM     13  C   UNL     1       3.438   4.946  19.118  0.00  0.00    +0.000 C 
BRANCH  13  14
ATOM     14  C   UNL     1       4.736   4.819  18.343  0.00  0.00    +0.000 A 
ATOM     15  C   UNL     1       5.946   5.166  18.964  0.00  0.00    +0.000 A 
ATOM     16  C   UNL     1       7.155   5.073  18.273  0.00  0.00    +0.000 A 
ATOM     17  C   UNL     1       7.172   4.626  16.954  0.00  0.00    +0.000 A 
ATOM     18  C   UNL     1       5.982   4.258  16.333  0.00  0.00    +0.000 A 
ATOM     19  C   UNL     1       4.772   4.346  17.026  0.00  0.00    +0.000 A 
ENDBRANCH  13  14
ENDBRANCH   1  13
TORSDOF 5
ENDMDL
MODEL 8
REMARK VINA RESULT:      -6.5      2.062      2.446
REMARK  Name = 
REMARK  5 active torsions:
REMARK  status: ('A' for Active; 'I' for Inactive)
REMARK    1  A    between atoms: C_2  and  C_4
REMARK    2  A    between atoms: C_4  and  O_5
REMARK    3  A    between atoms: C_4  and  C_6
REMARK    4  A    between atoms: C_4  and  C_13
REMARK    5  A    between atoms: C_6  and  C_7
REMARK                            x       y       z     vdW  Elec       q    Type
REMARK                         _______ _______ _______ _____ _____    ______ ____
ROOT
ATOM      1  C   UNL     1       5.804   5.079  17.638  0.00  0.00    +0.000 C 
ENDROOT
BRANCH   1   3
ATOM      2  N   UNL     1       6.981   7.149  17.096  0.00  0.00    +0.000 N 
ATOM      3  C   UNL     1       7.022   5.985  17.818  0.00  0.00    +0.000 C 
ATOM      4  O   UNL     1       7.938   5.757  18.599  0.00  0.00    +0.000 OA
ATOM      5  H   UNL     1       7.802   7.741  17.114  0.00  0.00    +0.000 HD
ATOM      6  H   UNL     1       6.364   7.201  16.290  0.00  0.00    +0.000 HD
ENDBRANCH   1   3
BRANCH   1   7
ATOM      7  C   UNL     1       5.927   4.473  16.216  0.00  0.00    +0.000 C 
ATOM      8  F   UNL     1       7.195   4.308  15.784  0.00  0.00    +0.000 F 
ATOM      9  F   UNL     1       5.346   3.241  16.180  0.00  0.00    +0.000 F 
ATOM     10  F   UNL     1       5.280   5.209  15.278  0.00  0.00    +0.000 F 
ENDBRANCH   1   7
BRANCH   1  11
ATOM     11  O   UNL     1       5.840   4.039  18.662  0.00  0.00    +0.000 OA
ATOM     12  H   UNL     1       5.604   3.203  18.224  0.00  0.00    +0.000 HD
ENDBRANCH   1  11
BRANCH   1  13
ATOM     13  C   UNL     1       4.480   5.870  17.750  0.00  0.00    +0.000 C 
BRANCH  13  14
ATOM     14  C   UNL     1       3.329   5.169  18.448  0.00  0.00    +0.000 A 
ATOM     15  C   UNL     1       2.519   4.283  17.721  0.00  0.00    +0.000 A 
ATOM     16  C   UNL     1       1.445   3.635  18.331  0.00  0.00    +0.000 A 
ATOM     17  C   UNL     1       1.168   3.858  19.678  0.00  0.00    +0.000 A 
ATOM     18  C   UNL     1       1.977   4.718  20.416  0.00  0.00    +0.000 A 
ATOM     19  C   UNL     1       3.055   5.364  19.808  0.00  0.00    +0.000 A 
ENDBRANCH  13  14
ENDBRANCH   1  13
TORSDOF 5
ENDMDL
MODEL 9
REMARK VINA RESULT:      -6.5      3.931      5.321
REMARK  Name = 
REMARK  5 active torsions:
REMARK  status: ('A' for Active; 'I' for Inactive)
REMARK    1  A    between atoms: C_2  and  C_4
REMARK    2  A    between atoms: C_4  and  O_5
REMARK    3  A    between atoms: C_4  and  C_6
REMARK    4  A    between atoms: C_4  and  C_13
REMARK    5  A    between atoms: C_6  and  C_7
REMARK                            x       y       z     vdW  Elec       q    Type
REMARK                         _______ _______ _______ _____ _____    ______ ____
ROOT
ATOM      1  C   UNL     1       2.664   3.497  19.449  0.00  0.00    +0.000 C 
ENDROOT
BRANCH   1   3
ATOM      2  N   UNL     1       3.271   1.315  18.536  0.00  0.00    +0.000 N 
ATOM      3  C   UNL     1       3.597   2.286  19.446  0.00  0.00    +0.000 C 
ATOM      4  O   UNL     1       4.610   2.197  20.130  0.00  0.00    +0.000 OA
ATOM      5  H   UNL     1       3.807   0.456  18.555  0.00  0.00    +0.000 HD
ATOM      6  H   UNL     1       2.322   1.286  18.174  0.00  0.00    +0.000 HD
ENDBRANCH   1   3
BRANCH   1   7
ATOM      7  C   UNL     1       1.330   3.008  20.072  0.00  0.00    +0.000 C 
ATOM      8  F   UNL     1       1.472   2.101  21.062  0.00  0.00    +0.000 F 
ATOM      9  F   UNL     1       0.650   4.060  20.608  0.00  0.00    +0.000 F 
ATOM     10  F   UNL     1       0.495   2.464  19.152  0.00  0.00    +0.000 F 
ENDBRANCH   1   7
BRANCH   1  11
ATOM     11  O   UNL     1       3.270   4.551  20.257  0.00  0.00    +0.000 OA
ATOM     12  H   UNL     1       4.234   4.428  20.206  0.00  0.00    +0.000 HD
ENDBRANCH   1  11
BRANCH   1  13
ATOM     13  C   UNL     1       2.405   4.025  18.019  0.00  0.00    +0.000 C 
BRANCH  13  14
ATOM     14  C   UNL     1       3.561   4.733  17.338  0.00  0.00    +0.000 A 
ATOM     15  C   UNL     1       3.735   6.112  17.533  0.00  0.00    +0.000 A 
ATOM     16  C   UNL     1       4.780   6.794  16.910  0.00  0.00    +0.000 A 
ATOM     17  C   UNL     1       5.669   6.107  16.086  0.00  0.00    +0.000 A 
ATOM     18  C   UNL     1       5.521   4.735  15.902  0.00  0.00    +0.000 A 
ATOM     19  C   UNL     1       4.478   4.051  16.530  0.00  0.00    +0.000 A 
ENDBRANCH  13  14
ENDBRANCH   1  13
TORSDOF 5
ENDMDL
