MODEL 1
REMARK VINA RESULT:      -8.6      0.000      0.000
REMARK  Name = 
REMARK  6 active torsions:
REMARK  status: ('A' for Active; 'I' for Inactive)
REMARK    1  A    between atoms: C_1  and  C_2
REMARK    2  A    between atoms: C_2  and  O_4
REMARK    3  A    between atoms: O_4  and  C_5
REMARK    4  A    between atoms: N_7  and  C_8
REMARK    5  A    between atoms: C_22  and  C_23
REMARK    6  A    between atoms: N_25  and  C_26
REMARK                            x       y       z     vdW  Elec       q    Type
REMARK                         _______ _______ _______ _____ _____    ______ ____
ROOT
ATOM      1  C   UNL     1       2.350   4.958  17.886  0.00  0.00    +0.000 C 
ATOM      2  C   UNL     1       2.216   6.500  17.874  0.00  0.00    +0.000 C 
ATOM      3  N   UNL     1       1.984   7.106  19.206  0.00  0.00    +0.000 NA
ATOM      4  C   UNL     1       2.977   6.652  20.197  0.00  0.00    +0.000 C 
ATOM      5  C   UNL     1       3.067   5.127  20.280  0.00  0.00    +0.000 C 
ATOM      6  C   UNL     1       3.404   4.493  18.921  0.00  0.00    +0.000 C 
ENDROOT
BRANCH   3   7
ATOM      7  C   UNL     1       1.930   8.592  19.149  0.00  0.00    +0.000 C 
ATOM      8  C   UNL     1       1.314   9.186  17.811  0.00  0.00    +0.000 C 
ATOM      9  C   UNL     1       0.044   9.828  18.247  0.00  0.00    +0.000 A 
ATOM     10  C   UNL     1      -0.987  10.336  17.472  0.00  0.00    +0.000 A 
ATOM     11  C   UNL     1      -2.028  10.981  18.162  0.00  0.00    +0.000 A 
ATOM     12  C   UNL     1      -2.023  11.117  19.561  0.00  0.00    +0.000 A 
ATOM     13  C   UNL     1      -0.975  10.563  20.317  0.00  0.00    +0.000 A 
ATOM     14  C   UNL     1      -0.821  10.637  21.713  0.00  0.00    +0.000 A 
ATOM     15  C   UNL     1       0.294  10.030  22.324  0.00  0.00    +0.000 A 
ATOM     16  C   UNL     1       1.260   9.313  21.591  0.00  0.00    +0.000 A 
ATOM     17  C   UNL     1       1.078   9.246  20.217  0.00  0.00    +0.000 A 
ATOM     18  C   UNL     1       0.005   9.897  19.626  0.00  0.00    +0.000 A 
ENDBRANCH   3   7
BRANCH   6  19
ATOM     19  C   UNL     1       4.848   4.758  18.500  0.00  0.00    +0.000 A 
ATOM     20  C   UNL     1       5.894   5.175  19.311  0.00  0.00    +0.000 A 
ATOM     21  N   UNL     1       7.036   5.268  18.564  0.00  0.00    +0.000 N 
ATOM     22  C   UNL     1       8.329   5.646  19.080  0.00  0.00    +0.000 C 
ATOM     23  C   UNL     1       6.768   4.942  17.264  0.00  0.00    +0.000 A 
ATOM     24  N   UNL     1       7.676   4.934  16.267  0.00  0.00    +0.000 NA
ATOM     25  C   UNL     1       7.155   4.565  15.077  0.00  0.00    +0.000 A 
ATOM     26  C   UNL     1       5.832   4.217  14.848  0.00  0.00    +0.000 A 
ATOM     27  C   UNL     1       4.930   4.245  15.912  0.00  0.00    +0.000 A 
ATOM     28  C   UNL     1       5.412   4.621  17.181  0.00  0.00    +0.000 A 
ENDBRANCH   6  19
BRANCH   1  29
ATOM     29  O   UNL     1       1.063   4.364  18.195  0.00  0.00    +0.000 OA
BRANCH  29  31
ATOM     30  C   UNL     1       0.524   2.740  19.814  0.00  0.00    +0.000 C 
ATOM     31  C   UNL     1       1.099   3.027  18.463  0.00  0.00    +0.000 C 
ATOM     32  O   UNL     1       1.554   2.166  17.719  0.00  0.00    +0.000 OA
ENDBRANCH  29  31
ENDBRANCH   1  29
TORSDOF 4
ENDMDL
MODEL 2
REMARK VINA RESULT:      -8.3      6.309      9.037
REMARK  Name = 
REMARK  6 active torsions:
REMARK  status: ('A' for Active; 'I' for Inactive)
REMARK    1  A    between atoms: C_1  and  C_2
REMARK    2  A    between atoms: C_2  and  O_4
REMARK    3  A    between atoms: O_4  and  C_5
REMARK    4  A    between atoms: N_7  and  C_8
REMARK    5  A    between atoms: C_22  and  C_23
REMARK    6  A    between atoms: N_25  and  C_26
REMARK                            x       y       z     vdW  Elec       q    Type
REMARK                         _______ _______ _______ _____ _____    ______ ____
ROOT
ATOM      1  C   UNL     1       0.016  11.459  21.300  0.00  0.00    +0.000 C 
ATOM      2  C   UNL     1       0.250  12.984  21.429  0.00  0.00    +0.000 C 
ATOM      3  N   UNL     1       1.218  13.540  20.455  0.00  0.00    +0.000 NA
ATOM      4  C   UNL     1       0.891  13.154  19.071  0.00  0.00    +0.000 C 
ATOM      5  C   UNL     1       0.734  11.640  18.908  0.00  0.00    +0.000 C 
ATOM      6  C   UNL     1      -0.339  11.065  19.845  0.00  0.00    +0.000 C 
ENDROOT
BRANCH   3   7
ATOM      7  C   UNL     1       1.357  15.017  20.577  0.00  0.00    +0.000 C 
ATOM      8  C   UNL     1       2.554  15.645  19.744  0.00  0.00    +0.000 C 
ATOM      9  C   UNL     1       1.882  16.470  18.703  0.00  0.00    +0.000 A 
ATOM     10  C   UNL     1       2.433  17.089  17.591  0.00  0.00    +0.000 A 
ATOM     11  C   UNL     1       1.566  17.893  16.831  0.00  0.00    +0.000 A 
ATOM     12  C   UNL     1       0.217  18.073  17.181  0.00  0.00    +0.000 A 
ATOM     13  C   UNL     1      -0.314  17.406  18.299  0.00  0.00    +0.000 A 
ATOM     14  C   UNL     1      -1.631  17.504  18.784  0.00  0.00    +0.000 A 
ATOM     15  C   UNL     1      -2.009  16.771  19.925  0.00  0.00    +0.000 A 
ATOM     16  C   UNL     1      -1.123  15.904  20.594  0.00  0.00    +0.000 A 
ATOM     17  C   UNL     1       0.166  15.817  20.089  0.00  0.00    +0.000 A 
ATOM     18  C   UNL     1       0.538  16.589  18.997  0.00  0.00    +0.000 A 
ENDBRANCH   3   7
BRANCH   6  19
ATOM     19  C   UNL     1      -1.752  11.463  19.422  0.00  0.00    +0.000 A 
ATOM     20  C   UNL     1      -2.663  12.217  20.148  0.00  0.00    +0.000 A 
ATOM     21  N   UNL     1      -3.803  12.380  19.411  0.00  0.00    +0.000 N 
ATOM     22  C   UNL     1      -4.958  13.135  19.835  0.00  0.00    +0.000 C 
ATOM     23  C   UNL     1      -3.681  11.730  18.215  0.00  0.00    +0.000 A 
ATOM     24  N   UNL     1      -4.628  11.691  17.256  0.00  0.00    +0.000 NA
ATOM     25  C   UNL     1      -4.252  10.989  16.166  0.00  0.00    +0.000 A 
ATOM     26  C   UNL     1      -3.030  10.355  15.996  0.00  0.00    +0.000 A 
ATOM     27  C   UNL     1      -2.085  10.421  17.020  0.00  0.00    +0.000 A 
ATOM     28  C   UNL     1      -2.416  11.140  18.184  0.00  0.00    +0.000 A 
ENDBRANCH   6  19
BRANCH   1  29
ATOM     29  O   UNL     1       1.210  10.750  21.723  0.00  0.00    +0.000 OA
BRANCH  29  31
ATOM     30  C   UNL     1      -0.038   9.478  23.263  0.00  0.00    +0.000 C 
ATOM     31  C   UNL     1       0.992   9.483  22.177  0.00  0.00    +0.000 C 
ATOM     32  O   UNL     1       1.564   8.476  21.776  0.00  0.00    +0.000 OA
ENDBRANCH  29  31
ENDBRANCH   1  29
TORSDOF 4
ENDMDL
MODEL 3
REMARK VINA RESULT:      -8.2      6.131      9.907
REMARK  Name = 
REMARK  6 active torsions:
REMARK  status: ('A' for Active; 'I' for Inactive)
REMARK    1  A    between atoms: C_1  and  C_2
REMARK    2  A    between atoms: C_2  and  O_4
REMARK    3  A    between atoms: O_4  and  C_5
REMARK    4  A    between atoms: N_7  and  C_8
REMARK    5  A    between atoms: C_22  and  C_23
REMARK    6  A    between atoms: N_25  and  C_26
REMARK                            x       y       z     vdW  Elec       q    Type
REMARK                         _______ _______ _______ _____ _____    ______ ____
ROOT
ATOM      1  C   UNL     1      -0.384  11.961  21.341  0.00  0.00    +0.000 C 
ATOM      2  C   UNL     1      -0.044  13.470  21.405  0.00  0.00    +0.000 C 
ATOM      3  N   UNL     1       0.669  13.989  20.214  0.00  0.00    +0.000 NA
ATOM      4  C   UNL     1      -0.024  13.639  18.961  0.00  0.00    +0.000 C 
ATOM      5  C   UNL     1      -0.298  12.138  18.844  0.00  0.00    +0.000 C 
ATOM      6  C   UNL     1      -1.122  11.606  20.026  0.00  0.00    +0.000 C 
ENDROOT
BRANCH   3   7
ATOM      7  C   UNL     1       0.913  15.455  20.296  0.00  0.00    +0.000 C 
ATOM      8  C   UNL     1       2.125  15.980  19.414  0.00  0.00    +0.000 C 
ATOM      9  C   UNL     1       1.480  16.826  18.373  0.00  0.00    +0.000 A 
ATOM     10  C   UNL     1       2.038  17.380  17.231  0.00  0.00    +0.000 A 
ATOM     11  C   UNL     1       1.206  18.226  16.477  0.00  0.00    +0.000 A 
ATOM     12  C   UNL     1      -0.117  18.507  16.861  0.00  0.00    +0.000 A 
ATOM     13  C   UNL     1      -0.657  17.904  18.010  0.00  0.00    +0.000 A 
ATOM     14  C   UNL     1      -1.949  18.104  18.530  0.00  0.00    +0.000 A 
ATOM     15  C   UNL     1      -2.342  17.424  19.699  0.00  0.00    +0.000 A 
ATOM     16  C   UNL     1      -1.498  16.513  20.363  0.00  0.00    +0.000 A 
ATOM     17  C   UNL     1      -0.234  16.325  19.823  0.00  0.00    +0.000 A 
ATOM     18  C   UNL     1       0.157  17.045  18.703  0.00  0.00    +0.000 A 
ENDBRANCH   3   7
BRANCH   6  19
ATOM     19  C   UNL     1      -2.573  12.082  19.981  0.00  0.00    +0.000 A 
ATOM     20  C   UNL     1      -3.263  12.762  20.975  0.00  0.00    +0.000 A 
ATOM     21  N   UNL     1      -4.530  13.037  20.538  0.00  0.00    +0.000 N 
ATOM     22  C   UNL     1      -5.524  13.759  21.296  0.00  0.00    +0.000 C 
ATOM     23  C   UNL     1      -4.707  12.534  19.280  0.00  0.00    +0.000 A 
ATOM     24  N   UNL     1      -5.844  12.632  18.562  0.00  0.00    +0.000 NA
ATOM     25  C   UNL     1      -5.754  12.059  17.343  0.00  0.00    +0.000 A 
ATOM     26  C   UNL     1      -4.632  11.425  16.830  0.00  0.00    +0.000 A 
ATOM     27  C   UNL     1      -3.480  11.346  17.615  0.00  0.00    +0.000 A 
ATOM     28  C   UNL     1      -3.510  11.926  18.897  0.00  0.00    +0.000 A 
ENDBRANCH   6  19
BRANCH   1  29
ATOM     29  O   UNL     1       0.839  11.186  21.441  0.00  0.00    +0.000 OA
BRANCH  29  31
ATOM     30  C   UNL     1       1.079   8.849  21.279  0.00  0.00    +0.000 C 
ATOM     31  C   UNL     1       0.721  10.020  22.139  0.00  0.00    +0.000 C 
ATOM     32  O   UNL     1       0.355   9.923  23.304  0.00  0.00    +0.000 OA
ENDBRANCH  29  31
ENDBRANCH   1  29
TORSDOF 4
ENDMDL
MODEL 4
REMARK VINA RESULT:      -8.0      3.362      8.738
REMARK  Name = 
REMARK  6 active torsions:
REMARK  status: ('A' for Active; 'I' for Inactive)
REMARK    1  A    between atoms: C_1  and  C_2
REMARK    2  A    between atoms: C_2  and  O_4
REMARK    3  A    between atoms: O_4  and  C_5
REMARK    4  A    between atoms: N_7  and  C_8
REMARK    5  A    between atoms: C_22  and  C_23
REMARK    6  A    between atoms: N_25  and  C_26
REMARK                            x       y       z     vdW  Elec       q    Type
REMARK                         _______ _______ _______ _____ _____    ______ ____
ROOT
ATOM      1  C   UNL     1      -1.084  10.330  19.232  0.00  0.00    +0.000 C 
ATOM      2  C   UNL     1      -0.067   9.331  19.836  0.00  0.00    +0.000 C 
ATOM      3  N   UNL     1       1.129   9.090  18.997  0.00  0.00    +0.000 NA
ATOM      4  C   UNL     1       1.778  10.349  18.588  0.00  0.00    +0.000 C 
ATOM      5  C   UNL     1       0.804  11.319  17.916  0.00  0.00    +0.000 C 
ATOM      6  C   UNL     1      -0.394  11.654  18.818  0.00  0.00    +0.000 C 
ENDROOT
BRANCH   3   7
ATOM      7  C   UNL     1       2.104   8.176  19.652  0.00  0.00    +0.000 C 
ATOM      8  C   UNL     1       1.480   7.206  20.743  0.00  0.00    +0.000 C 
ATOM      9  C   UNL     1       1.628   5.848  20.152  0.00  0.00    +0.000 A 
ATOM     10  C   UNL     1       1.089   4.646  20.584  0.00  0.00    +0.000 A 
ATOM     11  C   UNL     1       1.484   3.496  19.880  0.00  0.00    +0.000 A 
ATOM     12  C   UNL     1       2.386   3.553  18.804  0.00  0.00    +0.000 A 
ATOM     13  C   UNL     1       2.890   4.793  18.375  0.00  0.00    +0.000 A 
ATOM     14  C   UNL     1       3.811   5.008  17.334  0.00  0.00    +0.000 A 
ATOM     15  C   UNL     1       4.224   6.319  17.028  0.00  0.00    +0.000 A 
ATOM     16  C   UNL     1       3.722   7.447  17.706  0.00  0.00    +0.000 A 
ATOM     17  C   UNL     1       2.805   7.209  18.720  0.00  0.00    +0.000 A 
ATOM     18  C   UNL     1       2.453   5.907  19.046  0.00  0.00    +0.000 A 
ENDBRANCH   3   7
BRANCH   6  19
ATOM     19  C   UNL     1      -0.002  12.544  19.996  0.00  0.00    +0.000 A 
ATOM     20  C   UNL     1       1.174  13.264  20.145  0.00  0.00    +0.000 A 
ATOM     21  N   UNL     1       1.131  13.961  21.322  0.00  0.00    +0.000 N 
ATOM     22  C   UNL     1       2.170  14.843  21.796  0.00  0.00    +0.000 C 
ATOM     23  C   UNL     1      -0.043  13.702  21.972  0.00  0.00    +0.000 A 
ATOM     24  N   UNL     1      -0.400  14.228  23.161  0.00  0.00    +0.000 NA
ATOM     25  C   UNL     1      -1.616  13.818  23.580  0.00  0.00    +0.000 A 
ATOM     26  C   UNL     1      -2.455  12.949  22.897  0.00  0.00    +0.000 A 
ATOM     27  C   UNL     1      -2.037  12.428  21.672  0.00  0.00    +0.000 A 
ATOM     28  C   UNL     1      -0.777  12.818  21.179  0.00  0.00    +0.000 A 
ENDBRANCH   6  19
BRANCH   1  29
ATOM     29  O   UNL     1      -1.724   9.728  18.077  0.00  0.00    +0.000 OA
BRANCH  29  31
ATOM     30  C   UNL     1      -2.637  10.564  16.073  0.00  0.00    +0.000 C 
ATOM     31  C   UNL     1      -2.762  10.446  17.559  0.00  0.00    +0.000 C 
ATOM     32  O   UNL     1      -3.672  10.947  18.209  0.00  0.00    +0.000 OA
ENDBRANCH  29  31
ENDBRANCH   1  29
TORSDOF 4
ENDMDL
MODEL 5
REMARK VINA RESULT:      -7.9      6.233     10.572
REMARK  Name = 
REMARK  6 active torsions:
REMARK  status: ('A' for Active; 'I' for Inactive)
REMARK    1  A    between atoms: C_1  and  C_2
REMARK    2  A    between atoms: C_2  and  O_4
REMARK    3  A    between atoms: O_4  and  C_5
REMARK    4  A    between atoms: N_7  and  C_8
REMARK    5  A    between atoms: C_22  and  C_23
REMARK    6  A    between atoms: N_25  and  C_26
REMARK                            x       y       z     vdW  Elec       q    Type
REMARK                         _______ _______ _______ _____ _____    ______ ____
ROOT
ATOM      1  C   UNL     1      -0.427  12.137  21.743  0.00  0.00    +0.000 C 
ATOM      2  C   UNL     1      -0.029  13.633  21.726  0.00  0.00    +0.000 C 
ATOM      3  N   UNL     1       0.433  14.129  20.409  0.00  0.00    +0.000 NA
ATOM      4  C   UNL     1      -0.521  13.805  19.332  0.00  0.00    +0.000 C 
ATOM      5  C   UNL     1      -0.865  12.315  19.284  0.00  0.00    +0.000 C 
ATOM      6  C   UNL     1      -1.438  11.810  20.617  0.00  0.00    +0.000 C 
ENDROOT
BRANCH   3   7
ATOM      7  C   UNL     1       0.738  15.586  20.429  0.00  0.00    +0.000 C 
ATOM      8  C   UNL     1       2.004  16.014  19.571  0.00  0.00    +0.000 C 
ATOM      9  C   UNL     1       1.435  16.834  18.466  0.00  0.00    +0.000 A 
ATOM     10  C   UNL     1       2.059  17.307  17.321  0.00  0.00    +0.000 A 
ATOM     11  C   UNL     1       1.293  18.148  16.496  0.00  0.00    +0.000 A 
ATOM     12  C   UNL     1      -0.029  18.504  16.815  0.00  0.00    +0.000 A 
ATOM     13  C   UNL     1      -0.637  17.982  17.969  0.00  0.00    +0.000 A 
ATOM     14  C   UNL     1      -1.937  18.262  18.429  0.00  0.00    +0.000 A 
ATOM     15  C   UNL     1      -2.402  17.659  19.613  0.00  0.00    +0.000 A 
ATOM     16  C   UNL     1      -1.624  16.747  20.352  0.00  0.00    +0.000 A 
ATOM     17  C   UNL     1      -0.351  16.479  19.871  0.00  0.00    +0.000 A 
ATOM     18  C   UNL     1       0.112  17.125  18.734  0.00  0.00    +0.000 A 
ENDBRANCH   3   7
BRANCH   6  19
ATOM     19  C   UNL     1      -2.849  12.335  20.877  0.00  0.00    +0.000 A 
ATOM     20  C   UNL     1      -3.774  12.753  19.931  0.00  0.00    +0.000 A 
ATOM     21  N   UNL     1      -4.930  13.121  20.563  0.00  0.00    +0.000 N 
ATOM     22  C   UNL     1      -6.124  13.583  19.895  0.00  0.00    +0.000 C 
ATOM     23  C   UNL     1      -4.788  12.978  21.915  0.00  0.00    +0.000 A 
ATOM     24  N   UNL     1      -5.741  13.257  22.826  0.00  0.00    +0.000 NA
ATOM     25  C   UNL     1      -5.348  13.020  24.096  0.00  0.00    +0.000 A 
ATOM     26  C   UNL     1      -4.105  12.537  24.480  0.00  0.00    +0.000 A 
ATOM     27  C   UNL     1      -3.151  12.268  23.498  0.00  0.00    +0.000 A 
ATOM     28  C   UNL     1      -3.500  12.493  22.153  0.00  0.00    +0.000 A 
ENDBRANCH   6  19
BRANCH   1  29
ATOM     29  O   UNL     1       0.762  11.320  21.588  0.00  0.00    +0.000 OA
BRANCH  29  31
ATOM     30  C   UNL     1       0.995   9.014  21.169  0.00  0.00    +0.000 C 
ATOM     31  C   UNL     1       0.689  10.087  22.166  0.00  0.00    +0.000 C 
ATOM     32  O   UNL     1       0.396   9.867  23.335  0.00  0.00    +0.000 OA
ENDBRANCH  29  31
ENDBRANCH   1  29
TORSDOF 4
ENDMDL
MODEL 6
REMARK VINA RESULT:      -7.8      4.895      8.583
REMARK  Name = 
REMARK  6 active torsions:
REMARK  status: ('A' for Active; 'I' for Inactive)
REMARK    1  A    between atoms: C_1  and  C_2
REMARK    2  A    between atoms: C_2  and  O_4
REMARK    3  A    between atoms: O_4  and  C_5
REMARK    4  A    between atoms: N_7  and  C_8
REMARK    5  A    between atoms: C_22  and  C_23
REMARK    6  A    between atoms: N_25  and  C_26
REMARK                            x       y       z     vdW  Elec       q    Type
REMARK                         _______ _______ _______ _____ _____    ______ ____
ROOT
ATOM      1  C   UNL     1       0.065  10.650  20.932  0.00  0.00    +0.000 C 
ATOM      2  C   UNL     1       0.452  12.122  21.211  0.00  0.00    +0.000 C 
ATOM      3  N   UNL     1       1.475  12.672  20.291  0.00  0.00    +0.000 NA
ATOM      4  C   UNL     1       1.116  12.460  18.877  0.00  0.00    +0.000 C 
ATOM      5  C   UNL     1       0.807  10.995  18.565  0.00  0.00    +0.000 C 
ATOM      6  C   UNL     1      -0.323  10.440  19.447  0.00  0.00    +0.000 C 
ENDROOT
BRANCH   3   7
ATOM      7  C   UNL     1       1.762  14.108  20.558  0.00  0.00    +0.000 C 
ATOM      8  C   UNL     1       3.096  14.656  19.892  0.00  0.00    +0.000 C 
ATOM      9  C   UNL     1       2.620  15.636  18.877  0.00  0.00    +0.000 A 
ATOM     10  C   UNL     1       3.339  16.274  17.877  0.00  0.00    +0.000 A 
ATOM     11  C   UNL     1       2.642  17.232  17.122  0.00  0.00    +0.000 A 
ATOM     12  C   UNL     1       1.293  17.541  17.370  0.00  0.00    +0.000 A 
ATOM     13  C   UNL     1       0.589  16.853  18.373  0.00  0.00    +0.000 A 
ATOM     14  C   UNL     1      -0.750  17.065  18.750  0.00  0.00    +0.000 A 
ATOM     15  C   UNL     1      -1.313  16.291  19.784  0.00  0.00    +0.000 A 
ATOM     16  C   UNL     1      -0.595  15.275  20.444  0.00  0.00    +0.000 A 
ATOM     17  C   UNL     1       0.719  15.078  20.045  0.00  0.00    +0.000 A 
ATOM     18  C   UNL     1       1.276  15.887  19.065  0.00  0.00    +0.000 A 
ENDBRANCH   3   7
BRANCH   6  19
ATOM     19  C   UNL     1      -1.686  11.019  19.074  0.00  0.00    +0.000 A 
ATOM     20  C   UNL     1      -2.495  11.830  19.858  0.00  0.00    +0.000 A 
ATOM     21  N   UNL     1      -3.619  12.163  19.154  0.00  0.00    +0.000 N 
ATOM     22  C   UNL     1      -4.674  13.019  19.642  0.00  0.00    +0.000 C 
ATOM     23  C   UNL     1      -3.588  11.573  17.922  0.00  0.00    +0.000 A 
ATOM     24  N   UNL     1      -4.546  11.696  16.981  0.00  0.00    +0.000 NA
ATOM     25  C   UNL     1      -4.267  11.019  15.847  0.00  0.00    +0.000 A 
ATOM     26  C   UNL     1      -3.128  10.261  15.618  0.00  0.00    +0.000 A 
ATOM     27  C   UNL     1      -2.168  10.161  16.626  0.00  0.00    +0.000 A 
ATOM     28  C   UNL     1      -2.399  10.845  17.834  0.00  0.00    +0.000 A 
ENDBRANCH   6  19
BRANCH   1  29
ATOM     29  O   UNL     1       1.179   9.785  21.275  0.00  0.00    +0.000 OA
BRANCH  29  31
ATOM     30  C   UNL     1       1.909   7.715  20.420  0.00  0.00    +0.000 C 
ATOM     31  C   UNL     1       0.898   8.451  21.243  0.00  0.00    +0.000 C 
ATOM     32  O   UNL     1      -0.057   7.912  21.791  0.00  0.00    +0.000 OA
ENDBRANCH  29  31
ENDBRANCH   1  29
TORSDOF 4
ENDMDL
MODEL 7
REMARK VINA RESULT:      -7.7      3.441      8.425
REMARK  Name = 
REMARK  6 active torsions:
REMARK  status: ('A' for Active; 'I' for Inactive)
REMARK    1  A    between atoms: C_1  and  C_2
REMARK    2  A    between atoms: C_2  and  O_4
REMARK    3  A    between atoms: O_4  and  C_5
REMARK    4  A    between atoms: N_7  and  C_8
REMARK    5  A    between atoms: C_22  and  C_23
REMARK    6  A    between atoms: N_25  and  C_26
REMARK                            x       y       z     vdW  Elec       q    Type
REMARK                         _______ _______ _______ _____ _____    ______ ____
ROOT
ATOM      1  C   UNL     1      -1.011  10.176  18.789  0.00  0.00    +0.000 C 
ATOM      2  C   UNL     1      -0.042   9.168  19.453  0.00  0.00    +0.000 C 
ATOM      3  N   UNL     1       1.283   9.068  18.798  0.00  0.00    +0.000 NA
ATOM      4  C   UNL     1       1.910  10.391  18.619  0.00  0.00    +0.000 C 
ATOM      5  C   UNL     1       0.995  11.379  17.893  0.00  0.00    +0.000 C 
ATOM      6  C   UNL     1      -0.348  11.565  18.617  0.00  0.00    +0.000 C 
ENDROOT
BRANCH   3   7
ATOM      7  C   UNL     1       2.199   8.137  19.513  0.00  0.00    +0.000 C 
ATOM      8  C   UNL     1       1.500   7.230  20.613  0.00  0.00    +0.000 C 
ATOM      9  C   UNL     1       1.611   5.848  20.070  0.00  0.00    +0.000 A 
ATOM     10  C   UNL     1       1.009   4.683  20.521  0.00  0.00    +0.000 A 
ATOM     11  C   UNL     1       1.378   3.496  19.867  0.00  0.00    +0.000 A 
ATOM     12  C   UNL     1       2.316   3.482  18.819  0.00  0.00    +0.000 A 
ATOM     13  C   UNL     1       2.884   4.686  18.370  0.00  0.00    +0.000 A 
ATOM     14  C   UNL     1       3.846   4.829  17.354  0.00  0.00    +0.000 A 
ATOM     15  C   UNL     1       4.322   6.112  17.020  0.00  0.00    +0.000 A 
ATOM     16  C   UNL     1       3.846   7.281  17.645  0.00  0.00    +0.000 A 
ATOM     17  C   UNL     1       2.888   7.113  18.636  0.00  0.00    +0.000 A 
ATOM     18  C   UNL     1       2.472   5.838  18.991  0.00  0.00    +0.000 A 
ENDBRANCH   3   7
BRANCH   6  19
ATOM     19  C   UNL     1      -0.199  12.347  19.921  0.00  0.00    +0.000 A 
ATOM     20  C   UNL     1      -1.035  12.298  21.027  0.00  0.00    +0.000 A 
ATOM     21  N   UNL     1      -0.543  13.122  22.002  0.00  0.00    +0.000 N 
ATOM     22  C   UNL     1      -1.137  13.303  23.305  0.00  0.00    +0.000 C 
ATOM     23  C   UNL     1       0.595  13.737  21.561  0.00  0.00    +0.000 A 
ATOM     24  N   UNL     1       1.328  14.613  22.277  0.00  0.00    +0.000 NA
ATOM     25  C   UNL     1       2.411  15.068  21.612  0.00  0.00    +0.000 A 
ATOM     26  C   UNL     1       2.782  14.704  20.326  0.00  0.00    +0.000 A 
ATOM     27  C   UNL     1       1.987  13.796  19.624  0.00  0.00    +0.000 A 
ATOM     28  C   UNL     1       0.842  13.283  20.263  0.00  0.00    +0.000 A 
ENDBRANCH   6  19
BRANCH   1  29
ATOM     29  O   UNL     1      -1.425   9.667  17.495  0.00  0.00    +0.000 OA
BRANCH  29  31
ATOM     30  C   UNL     1      -2.761  10.154  15.617  0.00  0.00    +0.000 C 
ATOM     31  C   UNL     1      -2.678  10.041  17.107  0.00  0.00    +0.000 C 
ATOM     32  O   UNL     1      -3.615  10.274  17.861  0.00  0.00    +0.000 OA
ENDBRANCH  29  31
ENDBRANCH   1  29
TORSDOF 4
ENDMDL
MODEL 8
REMARK VINA RESULT:      -7.7      6.672     10.134
REMARK  Name = 
REMARK  6 active torsions:
REMARK  status: ('A' for Active; 'I' for Inactive)
REMARK    1  A    between atoms: C_1  and  C_2
REMARK    2  A    between atoms: C_2  and  O_4
REMARK    3  A    between atoms: O_4  and  C_5
REMARK    4  A    between atoms: N_7  and  C_8
REMARK    5  A    between atoms: C_22  and  C_23
REMARK    6  A    between atoms: N_25  and  C_26
REMARK                            x       y       z     vdW  Elec       q    Type
REMARK                         _______ _______ _______ _____ _____    ______ ____
ROOT
ATOM      1  C   UNL     1      -1.345  11.347  21.738  0.00  0.00    +0.000 C 
ATOM      2  C   UNL     1      -2.268  11.803  22.894  0.00  0.00    +0.000 C 
ATOM      3  N   UNL     1      -2.072  13.209  23.318  0.00  0.00    +0.000 NA
ATOM      4  C   UNL     1      -2.124  14.141  22.177  0.00  0.00    +0.000 C 
ATOM      5  C   UNL     1      -1.158  13.750  21.057  0.00  0.00    +0.000 C 
ATOM      6  C   UNL     1      -1.417  12.326  20.540  0.00  0.00    +0.000 C 
ENDROOT
BRANCH   3   7
ATOM      7  C   UNL     1      -3.028  13.617  24.383  0.00  0.00    +0.000 C 
ATOM      8  C   UNL     1      -2.607  14.916  25.194  0.00  0.00    +0.000 C 
ATOM      9  C   UNL     1      -3.635  15.927  24.822  0.00  0.00    +0.000 A 
ATOM     10  C   UNL     1      -3.655  17.288  25.086  0.00  0.00    +0.000 A 
ATOM     11  C   UNL     1      -4.812  17.983  24.696  0.00  0.00    +0.000 A 
ATOM     12  C   UNL     1      -5.899  17.336  24.083  0.00  0.00    +0.000 A 
ATOM     13  C   UNL     1      -5.832  15.960  23.805  0.00  0.00    +0.000 A 
ATOM     14  C   UNL     1      -6.841  15.174  23.220  0.00  0.00    +0.000 A 
ATOM     15  C   UNL     1      -6.620  13.799  23.009  0.00  0.00    +0.000 A 
ATOM     16  C   UNL     1      -5.401  13.172  23.333  0.00  0.00    +0.000 A 
ATOM     17  C   UNL     1      -4.418  13.972  23.898  0.00  0.00    +0.000 A 
ATOM     18  C   UNL     1      -4.673  15.312  24.150  0.00  0.00    +0.000 A 
ENDBRANCH   3   7
BRANCH   6  19
ATOM     19  C   UNL     1      -2.711  12.228  19.736  0.00  0.00    +0.000 A 
ATOM     20  C   UNL     1      -3.969  12.677  20.114  0.00  0.00    +0.000 A 
ATOM     21  N   UNL     1      -4.858  12.432  19.104  0.00  0.00    +0.000 N 
ATOM     22  C   UNL     1      -6.256  12.790  19.133  0.00  0.00    +0.000 C 
ATOM     23  C   UNL     1      -4.224  11.807  18.067  0.00  0.00    +0.000 A 
ATOM     24  N   UNL     1      -4.816  11.425  16.917  0.00  0.00    +0.000 NA
ATOM     25  C   UNL     1      -3.963  10.838  16.051  0.00  0.00    +0.000 A 
ATOM     26  C   UNL     1      -2.609  10.626  16.268  0.00  0.00    +0.000 A 
ATOM     27  C   UNL     1      -2.045  11.037  17.477  0.00  0.00    +0.000 A 
ATOM     28  C   UNL     1      -2.882  11.657  18.423  0.00  0.00    +0.000 A 
ENDBRANCH   6  19
BRANCH   1  29
ATOM     29  O   UNL     1       0.022  11.260  22.219  0.00  0.00    +0.000 OA
BRANCH  29  31
ATOM     30  C   UNL     1       0.764   9.131  21.539  0.00  0.00    +0.000 C 
ATOM     31  C   UNL     1       0.390  10.029  22.676  0.00  0.00    +0.000 C 
ATOM     32  O   UNL     1       0.402   9.681  23.851  0.00  0.00    +0.000 OA
ENDBRANCH  29  31
ENDBRANCH   1  29
TORSDOF 4
ENDMDL
MODEL 9
REMARK VINA RESULT:      -7.7      6.557      9.536
REMARK  Name = 
REMARK  6 active torsions:
REMARK  status: ('A' for Active; 'I' for Inactive)
REMARK    1  A    between atoms: C_1  and  C_2
REMARK    2  A    between atoms: C_2  and  O_4
REMARK    3  A    between atoms: O_4  and  C_5
REMARK    4  A    between atoms: N_7  and  C_8
REMARK    5  A    between atoms: C_22  and  C_23
REMARK    6  A    between atoms: N_25  and  C_26
REMARK                            x       y       z     vdW  Elec       q    Type
REMARK                         _______ _______ _______ _____ _____    ______ ____
ROOT
ATOM      1  C   UNL     1      -0.805  12.150  20.670  0.00  0.00    +0.000 C 
ATOM      2  C   UNL     1      -0.320  13.469  20.021  0.00  0.00    +0.000 C 
ATOM      3  N   UNL     1       1.039  13.401  19.435  0.00  0.00    +0.000 NA
ATOM      4  C   UNL     1       1.187  12.255  18.519  0.00  0.00    +0.000 C 
ATOM      5  C   UNL     1       0.787  10.929  19.171  0.00  0.00    +0.000 C 
ATOM      6  C   UNL     1      -0.657  10.955  19.696  0.00  0.00    +0.000 C 
ENDROOT
BRANCH   3   7
ATOM      7  C   UNL     1       1.431  14.671  18.766  0.00  0.00    +0.000 C 
ATOM      8  C   UNL     1       0.802  15.982  19.404  0.00  0.00    +0.000 C 
ATOM      9  C   UNL     1       1.971  16.708  19.973  0.00  0.00    +0.000 A 
ATOM     10  C   UNL     1       1.988  17.815  20.807  0.00  0.00    +0.000 A 
ATOM     11  C   UNL     1       3.252  18.351  21.107  0.00  0.00    +0.000 A 
ATOM     12  C   UNL     1       4.437  17.806  20.583  0.00  0.00    +0.000 A 
ATOM     13  C   UNL     1       4.383  16.665  19.764  0.00  0.00    +0.000 A 
ATOM     14  C   UNL     1       5.474  16.023  19.151  0.00  0.00    +0.000 A 
ATOM     15  C   UNL     1       5.253  14.885  18.351  0.00  0.00    +0.000 A 
ATOM     16  C   UNL     1       3.972  14.332  18.161  0.00  0.00    +0.000 A 
ATOM     17  C   UNL     1       2.914  14.978  18.786  0.00  0.00    +0.000 A 
ATOM     18  C   UNL     1       3.142  16.130  19.524  0.00  0.00    +0.000 A 
ENDBRANCH   3   7
BRANCH   6  19
ATOM     19  C   UNL     1      -1.685  10.945  18.566  0.00  0.00    +0.000 A 
ATOM     20  C   UNL     1      -1.533  10.395  17.301  0.00  0.00    +0.000 A 
ATOM     21  N   UNL     1      -2.691  10.563  16.593  0.00  0.00    +0.000 N 
ATOM     22  C   UNL     1      -2.911  10.092  15.247  0.00  0.00    +0.000 C 
ATOM     23  C   UNL     1      -3.608  11.235  17.354  0.00  0.00    +0.000 A 
ATOM     24  N   UNL     1      -4.852  11.564  16.953  0.00  0.00    +0.000 NA
ATOM     25  C   UNL     1      -5.560  12.217  17.899  0.00  0.00    +0.000 A 
ATOM     26  C   UNL     1      -5.104  12.539  19.169  0.00  0.00    +0.000 A 
ATOM     27  C   UNL     1      -3.806  12.180  19.535  0.00  0.00    +0.000 A 
ATOM     28  C   UNL     1      -3.016  11.495  18.592  0.00  0.00    +0.000 A 
ENDBRANCH   6  19
BRANCH   1  29
ATOM     29  O   UNL     1      -0.040  11.897  21.877  0.00  0.00    +0.000 OA
BRANCH  29  31
ATOM     30  C   UNL     1      -2.087  11.741  23.031  0.00  0.00    +0.000 C 
ATOM     31  C   UNL     1      -0.707  11.197  22.840  0.00  0.00    +0.000 C 
ATOM     32  O   UNL     1      -0.248  10.261  23.483  0.00  0.00    +0.000 OA
ENDBRANCH  29  31
ENDBRANCH   1  29
TORSDOF 4
ENDMDL
