MODEL 1
REMARK VINA RESULT:      -7.2      0.000      0.000
REMARK  Name = 
REMARK  4 active torsions:
REMARK  status: ('A' for Active; 'I' for Inactive)
REMARK    1  A    between atoms: C_2  and  C_3
REMARK    2  A    between atoms: C_3  and  O_4
REMARK    3  A    between atoms: O_4  and  C_5
REMARK    4  A    between atoms: C_5  and  C_6
REMARK                            x       y       z     vdW  Elec       q    Type
REMARK                         _______ _______ _______ _____ _____    ______ ____
ROOT
ATOM      1  O   UNL     1       1.857   5.452  20.702  0.00  0.00    +0.000 OA
ATOM      2  C   UNL     1       2.216   6.012  19.664  0.00  0.00    +0.000 C 
ATOM      3  N   UNL     1       2.138   7.383  19.499  0.00  0.00    +0.000 N 
ATOM      4  C   UNL     1       2.517   8.132  18.289  0.00  0.00    +0.000 C 
ATOM      5  C   UNL     1       1.459   9.191  17.925  0.00  0.00    +0.000 C 
ATOM      6  N   UNL     1       1.063   9.998  19.086  0.00  0.00    +0.000 N 
ATOM      7  C   UNL     1       1.274  11.360  19.081  0.00  0.00    +0.000 A 
ATOM      8  C   UNL     1       0.564  12.236  19.915  0.00  0.00    +0.000 A 
ATOM      9  N   UNL     1       0.712  13.587  19.933  0.00  0.00    +0.000 NA
ATOM     10  C   UNL     1       1.618  14.064  19.060  0.00  0.00    +0.000 A 
ATOM     11  C   UNL     1       2.330  13.230  18.221  0.00  0.00    +0.000 A 
ATOM     12  N   UNL     1       2.170  11.883  18.212  0.00  0.00    +0.000 NA
ATOM     13  C   UNL     1       0.723   9.262  20.310  0.00  0.00    +0.000 C 
ATOM     14  C   UNL     1       1.810   8.228  20.649  0.00  0.00    +0.000 C 
ENDROOT
BRANCH   2  15
ATOM     15  C   UNL     1       2.788   5.177  18.508  0.00  0.00    +0.000 C 
BRANCH  15  16
ATOM     16  O   UNL     1       3.866   4.318  18.855  0.00  0.00    +0.000 OA
BRANCH  16  17
ATOM     17  C   UNL     1       4.845   4.236  17.812  0.00  0.00    +0.000 C 
BRANCH  17  18
ATOM     18  C   UNL     1       5.953   5.244  18.013  0.00  0.00    +0.000 A 
ATOM     19  C   UNL     1       6.859   5.134  19.082  0.00  0.00    +0.000 A 
ATOM     20  C   UNL     1       7.888   6.061  19.251  0.00  0.00    +0.000 A 
ATOM     21  C   UNL     1       8.031   7.117  18.354  0.00  0.00    +0.000 A 
ATOM     22  C   UNL     1       7.141   7.248  17.291  0.00  0.00    +0.000 A 
ATOM     23  C   UNL     1       6.110   6.319  17.121  0.00  0.00    +0.000 A 
ATOM     24 CL   UNL     1       5.047   6.544  15.774  0.00  0.00    +0.000 Cl
ENDBRANCH  17  18
ENDBRANCH  16  17
ENDBRANCH  15  16
ENDBRANCH   2  15
TORSDOF 4
ENDMDL
MODEL 2
REMARK VINA RESULT:      -6.9      2.906      4.569
REMARK  Name = 
REMARK  4 active torsions:
REMARK  status: ('A' for Active; 'I' for Inactive)
REMARK    1  A    between atoms: C_2  and  C_3
REMARK    2  A    between atoms: C_3  and  O_4
REMARK    3  A    between atoms: O_4  and  C_5
REMARK    4  A    between atoms: C_5  and  C_6
REMARK                            x       y       z     vdW  Elec       q    Type
REMARK                         _______ _______ _______ _____ _____    ______ ____
ROOT
ATOM      1  O   UNL     1       2.145   8.895  17.320  0.00  0.00    +0.000 OA
ATOM      2  C   UNL     1       1.890   8.577  18.484  0.00  0.00    +0.000 C 
ATOM      3  N   UNL     1       1.085   9.349  19.302  0.00  0.00    +0.000 N 
ATOM      4  C   UNL     1       0.751   9.063  20.707  0.00  0.00    +0.000 C 
ATOM      5  C   UNL     1       0.872  10.322  21.585  0.00  0.00    +0.000 C 
ATOM      6  N   UNL     1       0.199  11.481  20.985  0.00  0.00    +0.000 N 
ATOM      7  C   UNL     1      -0.846  12.089  21.647  0.00  0.00    +0.000 A 
ATOM      8  C   UNL     1      -1.245  13.406  21.378  0.00  0.00    +0.000 A 
ATOM      9  N   UNL     1      -2.249  14.063  22.018  0.00  0.00    +0.000 NA
ATOM     10  C   UNL     1      -2.866  13.347  22.975  0.00  0.00    +0.000 A 
ATOM     11  C   UNL     1      -2.496  12.050  23.269  0.00  0.00    +0.000 A 
ATOM     12  N   UNL     1      -1.490  11.407  22.624  0.00  0.00    +0.000 NA
ATOM     13  C   UNL     1       0.494  11.751  19.573  0.00  0.00    +0.000 C 
ATOM     14  C   UNL     1       0.346  10.475  18.727  0.00  0.00    +0.000 C 
ENDROOT
BRANCH   2  15
ATOM     15  C   UNL     1       2.463   7.272  19.059  0.00  0.00    +0.000 C 
BRANCH  15  16
ATOM     16  O   UNL     1       2.938   6.342  18.095  0.00  0.00    +0.000 OA
BRANCH  16  17
ATOM     17  C   UNL     1       2.074   5.205  17.976  0.00  0.00    +0.000 C 
BRANCH  17  18
ATOM     18  C   UNL     1       2.209   4.281  19.165  0.00  0.00    +0.000 A 
ATOM     19  C   UNL     1       1.158   4.110  20.083  0.00  0.00    +0.000 A 
ATOM     20  C   UNL     1       1.288   3.244  21.170  0.00  0.00    +0.000 A 
ATOM     21  C   UNL     1       2.469   2.531  21.359  0.00  0.00    +0.000 A 
ATOM     22  C   UNL     1       3.524   2.690  20.463  0.00  0.00    +0.000 A 
ATOM     23  C   UNL     1       3.396   3.558  19.375  0.00  0.00    +0.000 A 
ATOM     24 CL   UNL     1       4.746   3.698  18.302  0.00  0.00    +0.000 Cl
ENDBRANCH  17  18
ENDBRANCH  16  17
ENDBRANCH  15  16
ENDBRANCH   2  15
TORSDOF 4
ENDMDL
MODEL 3
REMARK VINA RESULT:      -6.8      1.271      1.825
REMARK  Name = 
REMARK  4 active torsions:
REMARK  status: ('A' for Active; 'I' for Inactive)
REMARK    1  A    between atoms: C_2  and  C_3
REMARK    2  A    between atoms: C_3  and  O_4
REMARK    3  A    between atoms: O_4  and  C_5
REMARK    4  A    between atoms: C_5  and  C_6
REMARK                            x       y       z     vdW  Elec       q    Type
REMARK                         _______ _______ _______ _____ _____    ______ ____
ROOT
ATOM      1  O   UNL     1       1.812   5.457  20.593  0.00  0.00    +0.000 OA
ATOM      2  C   UNL     1       2.228   6.023  19.580  0.00  0.00    +0.000 C 
ATOM      3  N   UNL     1       2.170   7.396  19.424  0.00  0.00    +0.000 N 
ATOM      4  C   UNL     1       2.616   8.153  18.242  0.00  0.00    +0.000 C 
ATOM      5  C   UNL     1       1.586   9.223  17.834  0.00  0.00    +0.000 C 
ATOM      6  N   UNL     1       1.136  10.023  18.981  0.00  0.00    +0.000 N 
ATOM      7  C   UNL     1       1.358  11.384  19.000  0.00  0.00    +0.000 A 
ATOM      8  C   UNL     1       0.614  12.258  19.804  0.00  0.00    +0.000 A 
ATOM      9  N   UNL     1       0.771  13.608  19.843  0.00  0.00    +0.000 NA
ATOM     10  C   UNL     1       1.724  14.085  19.021  0.00  0.00    +0.000 A 
ATOM     11  C   UNL     1       2.472  13.253  18.212  0.00  0.00    +0.000 A 
ATOM     12  N   UNL     1       2.302  11.907  18.182  0.00  0.00    +0.000 NA
ATOM     13  C   UNL     1       0.729   9.280  20.179  0.00  0.00    +0.000 C 
ATOM     14  C   UNL     1       1.790   8.234  20.564  0.00  0.00    +0.000 C 
ENDROOT
BRANCH   2  15
ATOM     15  C   UNL     1       2.852   5.194  18.447  0.00  0.00    +0.000 C 
BRANCH  15  16
ATOM     16  O   UNL     1       3.359   3.923  18.833  0.00  0.00    +0.000 OA
BRANCH  16  17
ATOM     17  C   UNL     1       4.783   3.939  18.992  0.00  0.00    +0.000 C 
BRANCH  17  18
ATOM     18  C   UNL     1       5.481   4.257  17.691  0.00  0.00    +0.000 A 
ATOM     19  C   UNL     1       5.001   3.770  16.463  0.00  0.00    +0.000 A 
ATOM     20  C   UNL     1       5.645   4.080  15.264  0.00  0.00    +0.000 A 
ATOM     21  C   UNL     1       6.782   4.885  15.270  0.00  0.00    +0.000 A 
ATOM     22  C   UNL     1       7.278   5.374  16.477  0.00  0.00    +0.000 A 
ATOM     23  C   UNL     1       6.633   5.063  17.678  0.00  0.00    +0.000 A 
ATOM     24 CL   UNL     1       7.304   5.711  19.135  0.00  0.00    +0.000 Cl
ENDBRANCH  17  18
ENDBRANCH  16  17
ENDBRANCH  15  16
ENDBRANCH   2  15
TORSDOF 4
ENDMDL
MODEL 4
REMARK VINA RESULT:      -6.8      2.963      4.889
REMARK  Name = 
REMARK  4 active torsions:
REMARK  status: ('A' for Active; 'I' for Inactive)
REMARK    1  A    between atoms: C_2  and  C_3
REMARK    2  A    between atoms: C_3  and  O_4
REMARK    3  A    between atoms: O_4  and  C_5
REMARK    4  A    between atoms: C_5  and  C_6
REMARK                            x       y       z     vdW  Elec       q    Type
REMARK                         _______ _______ _______ _____ _____    ______ ____
ROOT
ATOM      1  O   UNL     1       1.669   9.423  17.443  0.00  0.00    +0.000 OA
ATOM      2  C   UNL     1       1.457   9.146  18.626  0.00  0.00    +0.000 C 
ATOM      3  N   UNL     1       0.582   9.874  19.411  0.00  0.00    +0.000 N 
ATOM      4  C   UNL     1       0.289   9.632  20.834  0.00  0.00    +0.000 C 
ATOM      5  C   UNL     1       0.285  10.944  21.641  0.00  0.00    +0.000 C 
ATOM      6  N   UNL     1      -0.509  11.992  20.988  0.00  0.00    +0.000 N 
ATOM      7  C   UNL     1      -1.607  12.524  21.630  0.00  0.00    +0.000 A 
ATOM      8  C   UNL     1      -2.143  13.775  21.296  0.00  0.00    +0.000 A 
ATOM      9  N   UNL     1      -3.206  14.359  21.912  0.00  0.00    +0.000 NA
ATOM     10  C   UNL     1      -3.738  13.636  22.914  0.00  0.00    +0.000 A 
ATOM     11  C   UNL     1      -3.232  12.403  23.273  0.00  0.00    +0.000 A 
ATOM     12  N   UNL     1      -2.169  11.834  22.651  0.00  0.00    +0.000 NA
ATOM     13  C   UNL     1      -0.255  12.213  19.560  0.00  0.00    +0.000 C 
ATOM     14  C   UNL     1      -0.275  10.883  18.786  0.00  0.00    +0.000 C 
ENDROOT
BRANCH   2  15
ATOM     15  C   UNL     1       2.167   7.941  19.263  0.00  0.00    +0.000 C 
BRANCH  15  16
ATOM     16  O   UNL     1       2.612   6.946  18.350  0.00  0.00    +0.000 OA
BRANCH  16  17
ATOM     17  C   UNL     1       3.329   5.895  19.010  0.00  0.00    +0.000 C 
BRANCH  17  18
ATOM     18  C   UNL     1       2.570   4.590  18.957  0.00  0.00    +0.000 A 
ATOM     19  C   UNL     1       1.539   4.304  19.869  0.00  0.00    +0.000 A 
ATOM     20  C   UNL     1       0.834   3.101  19.803  0.00  0.00    +0.000 A 
ATOM     21  C   UNL     1       1.145   2.162  18.823  0.00  0.00    +0.000 A 
ATOM     22  C   UNL     1       2.166   2.423  17.913  0.00  0.00    +0.000 A 
ATOM     23  C   UNL     1       2.873   3.628  17.978  0.00  0.00    +0.000 A 
ATOM     24 CL   UNL     1       4.124   3.884  16.811  0.00  0.00    +0.000 Cl
ENDBRANCH  17  18
ENDBRANCH  16  17
ENDBRANCH  15  16
ENDBRANCH   2  15
TORSDOF 4
ENDMDL
MODEL 5
REMARK VINA RESULT:      -6.7      5.303      7.537
REMARK  Name = 
REMARK  4 active torsions:
REMARK  status: ('A' for Active; 'I' for Inactive)
REMARK    1  A    between atoms: C_2  and  C_3
REMARK    2  A    between atoms: C_3  and  O_4
REMARK    3  A    between atoms: O_4  and  C_5
REMARK    4  A    between atoms: C_5  and  C_6
REMARK                            x       y       z     vdW  Elec       q    Type
REMARK                         _______ _______ _______ _____ _____    ______ ____
ROOT
ATOM      1  O   UNL     1       8.622   6.801  19.021  0.00  0.00    +0.000 OA
ATOM      2  C   UNL     1       7.670   7.078  18.287  0.00  0.00    +0.000 C 
ATOM      3  N   UNL     1       6.494   6.350  18.295  0.00  0.00    +0.000 N 
ATOM      4  C   UNL     1       5.321   6.590  17.437  0.00  0.00    +0.000 C 
ATOM      5  C   UNL     1       4.775   5.277  16.845  0.00  0.00    +0.000 C 
ATOM      6  N   UNL     1       4.626   4.231  17.866  0.00  0.00    +0.000 N 
ATOM      7  C   UNL     1       3.381   3.701  18.129  0.00  0.00    +0.000 A 
ATOM      8  C   UNL     1       3.208   2.451  18.740  0.00  0.00    +0.000 A 
ATOM      9  N   UNL     1       2.007   1.868  18.998  0.00  0.00    +0.000 NA
ATOM     10  C   UNL     1       0.939   2.590  18.612  0.00  0.00    +0.000 A 
ATOM     11  C   UNL     1       1.073   3.822  18.004  0.00  0.00    +0.000 A 
ATOM     12  N   UNL     1       2.279   4.390  17.749  0.00  0.00    +0.000 NA
ATOM     13  C   UNL     1       5.774   4.013  18.752  0.00  0.00    +0.000 C 
ATOM     14  C   UNL     1       6.279   5.343  19.336  0.00  0.00    +0.000 C 
ENDROOT
BRANCH   2  15
ATOM     15  C   UNL     1       7.768   8.280  17.335  0.00  0.00    +0.000 C 
BRANCH  15  16
ATOM     16  O   UNL     1       7.861   9.549  17.968  0.00  0.00    +0.000 OA
BRANCH  16  17
ATOM     17  C   UNL     1       8.938   9.600  18.912  0.00  0.00    +0.000 C 
BRANCH  17  18
ATOM     18  C   UNL     1       9.673  10.918  18.840  0.00  0.00    +0.000 A 
ATOM     19  C   UNL     1      10.330  11.329  17.667  0.00  0.00    +0.000 A 
ATOM     20  C   UNL     1      10.994  12.555  17.607  0.00  0.00    +0.000 A 
ATOM     21  C   UNL     1      11.014  13.395  18.717  0.00  0.00    +0.000 A 
ATOM     22  C   UNL     1      10.374  13.005  19.892  0.00  0.00    +0.000 A 
ATOM     23  C   UNL     1       9.708  11.777  19.953  0.00  0.00    +0.000 A 
ATOM     24 CL   UNL     1       8.932  11.364  21.443  0.00  0.00    +0.000 Cl
ENDBRANCH  17  18
ENDBRANCH  16  17
ENDBRANCH  15  16
ENDBRANCH   2  15
TORSDOF 4
ENDMDL
MODEL 6
REMARK VINA RESULT:      -6.7      1.684      2.214
REMARK  Name = 
REMARK  4 active torsions:
REMARK  status: ('A' for Active; 'I' for Inactive)
REMARK    1  A    between atoms: C_2  and  C_3
REMARK    2  A    between atoms: C_3  and  O_4
REMARK    3  A    between atoms: O_4  and  C_5
REMARK    4  A    between atoms: C_5  and  C_6
REMARK                            x       y       z     vdW  Elec       q    Type
REMARK                         _______ _______ _______ _____ _____    ______ ____
ROOT
ATOM      1  O   UNL     1       2.021   6.109  20.623  0.00  0.00    +0.000 OA
ATOM      2  C   UNL     1       2.205   6.837  19.645  0.00  0.00    +0.000 C 
ATOM      3  N   UNL     1       1.741   8.139  19.595  0.00  0.00    +0.000 N 
ATOM      4  C   UNL     1       1.890   9.068  18.462  0.00  0.00    +0.000 C 
ATOM      5  C   UNL     1       0.575   9.811  18.164  0.00  0.00    +0.000 C 
ATOM      6  N   UNL     1      -0.033  10.368  19.379  0.00  0.00    +0.000 N 
ATOM      7  C   UNL     1      -0.217  11.730  19.495  0.00  0.00    +0.000 A 
ATOM      8  C   UNL     1      -1.145  12.292  20.383  0.00  0.00    +0.000 A 
ATOM      9  N   UNL     1      -1.386  13.623  20.518  0.00  0.00    +0.000 NA
ATOM     10  C   UNL     1      -0.654  14.411  19.710  0.00  0.00    +0.000 A 
ATOM     11  C   UNL     1       0.265  13.890  18.821  0.00  0.00    +0.000 A 
ATOM     12  N   UNL     1       0.493  12.559  18.694  0.00  0.00    +0.000 NA
ATOM     13  C   UNL     1      -0.148   9.462  20.528  0.00  0.00    +0.000 C 
ATOM     14  C   UNL     1       1.188   8.752  20.804  0.00  0.00    +0.000 C 
ENDROOT
BRANCH   2  15
ATOM     15  C   UNL     1       2.989   6.303  18.436  0.00  0.00    +0.000 C 
BRANCH  15  16
ATOM     16  O   UNL     1       2.751   4.939  18.112  0.00  0.00    +0.000 OA
BRANCH  16  17
ATOM     17  C   UNL     1       3.880   4.111  18.414  0.00  0.00    +0.000 C 
BRANCH  17  18
ATOM     18  C   UNL     1       4.989   4.298  17.404  0.00  0.00    +0.000 A 
ATOM     19  C   UNL     1       4.832   3.909  16.063  0.00  0.00    +0.000 A 
ATOM     20  C   UNL     1       5.856   4.100  15.135  0.00  0.00    +0.000 A 
ATOM     21  C   UNL     1       7.057   4.684  15.529  0.00  0.00    +0.000 A 
ATOM     22  C   UNL     1       7.236   5.072  16.855  0.00  0.00    +0.000 A 
ATOM     23  C   UNL     1       6.210   4.881  17.786  0.00  0.00    +0.000 A 
ATOM     24 CL   UNL     1       6.503   5.393  19.412  0.00  0.00    +0.000 Cl
ENDBRANCH  17  18
ENDBRANCH  16  17
ENDBRANCH  15  16
ENDBRANCH   2  15
TORSDOF 4
ENDMDL
MODEL 7
REMARK VINA RESULT:      -6.7      3.496      5.375
REMARK  Name = 
REMARK  4 active torsions:
REMARK  status: ('A' for Active; 'I' for Inactive)
REMARK    1  A    between atoms: C_2  and  C_3
REMARK    2  A    between atoms: C_3  and  O_4
REMARK    3  A    between atoms: O_4  and  C_5
REMARK    4  A    between atoms: C_5  and  C_6
REMARK                            x       y       z     vdW  Elec       q    Type
REMARK                         _______ _______ _______ _____ _____    ______ ____
ROOT
ATOM      1  O   UNL     1       1.429   9.224  19.243  0.00  0.00    +0.000 OA
ATOM      2  C   UNL     1       0.917   8.913  20.320  0.00  0.00    +0.000 C 
ATOM      3  N   UNL     1      -0.016   9.713  20.954  0.00  0.00    +0.000 N 
ATOM      4  C   UNL     1      -0.658   9.436  22.250  0.00  0.00    +0.000 C 
ATOM      5  C   UNL     1      -0.682  10.687  23.148  0.00  0.00    +0.000 C 
ATOM      6  N   UNL     1      -1.165  11.873  22.430  0.00  0.00    +0.000 N 
ATOM      7  C   UNL     1      -2.305  12.520  22.858  0.00  0.00    +0.000 A 
ATOM      8  C   UNL     1      -2.587  13.852  22.524  0.00  0.00    +0.000 A 
ATOM      9  N   UNL     1      -3.680  14.546  22.939  0.00  0.00    +0.000 NA
ATOM     10  C   UNL     1      -4.517  13.852  23.732  0.00  0.00    +0.000 A 
ATOM     11  C   UNL     1      -4.267  12.540  24.084  0.00  0.00    +0.000 A 
ATOM     12  N   UNL     1      -3.170  11.861  23.664  0.00  0.00    +0.000 NA
ATOM     13  C   UNL     1      -0.562  12.135  21.118  0.00  0.00    +0.000 C 
ATOM     14  C   UNL     1      -0.571  10.869  20.245  0.00  0.00    +0.000 C 
ENDROOT
BRANCH   2  15
ATOM     15  C   UNL     1       1.303   7.585  20.991  0.00  0.00    +0.000 C 
BRANCH  15  16
ATOM     16  O   UNL     1       2.001   6.667  20.161  0.00  0.00    +0.000 OA
BRANCH  16  17
ATOM     17  C   UNL     1       2.197   5.402  20.806  0.00  0.00    +0.000 C 
BRANCH  17  18
ATOM     18  C   UNL     1       2.231   4.270  19.806  0.00  0.00    +0.000 A 
ATOM     19  C   UNL     1       1.112   3.448  19.590  0.00  0.00    +0.000 A 
ATOM     20  C   UNL     1       1.150   2.414  18.653  0.00  0.00    +0.000 A 
ATOM     21  C   UNL     1       2.306   2.183  17.913  0.00  0.00    +0.000 A 
ATOM     22  C   UNL     1       3.429   2.983  18.115  0.00  0.00    +0.000 A 
ATOM     23  C   UNL     1       3.392   4.019  19.053  0.00  0.00    +0.000 A 
ATOM     24 CL   UNL     1       4.822   4.973  19.245  0.00  0.00    +0.000 Cl
ENDBRANCH  17  18
ENDBRANCH  16  17
ENDBRANCH  15  16
ENDBRANCH   2  15
TORSDOF 4
ENDMDL
MODEL 8
REMARK VINA RESULT:      -6.6      3.772      5.617
REMARK  Name = 
REMARK  4 active torsions:
REMARK  status: ('A' for Active; 'I' for Inactive)
REMARK    1  A    between atoms: C_2  and  C_3
REMARK    2  A    between atoms: C_3  and  O_4
REMARK    3  A    between atoms: O_4  and  C_5
REMARK    4  A    between atoms: C_5  and  C_6
REMARK                            x       y       z     vdW  Elec       q    Type
REMARK                         _______ _______ _______ _____ _____    ______ ____
ROOT
ATOM      1  O   UNL     1       1.312   9.133  19.225  0.00  0.00    +0.000 OA
ATOM      2  C   UNL     1       0.888   8.913  20.362  0.00  0.00    +0.000 C 
ATOM      3  N   UNL     1      -0.069   9.712  20.962  0.00  0.00    +0.000 N 
ATOM      4  C   UNL     1      -0.611   9.542  22.320  0.00  0.00    +0.000 C 
ATOM      5  C   UNL     1      -0.684  10.884  23.072  0.00  0.00    +0.000 C 
ATOM      6  N   UNL     1      -1.300  11.941  22.259  0.00  0.00    +0.000 N 
ATOM      7  C   UNL     1      -2.462  12.548  22.686  0.00  0.00    +0.000 A 
ATOM      8  C   UNL     1      -2.867  13.808  22.224  0.00  0.00    +0.000 A 
ATOM      9  N   UNL     1      -3.986  14.465  22.630  0.00  0.00    +0.000 NA
ATOM     10  C   UNL     1      -4.719  13.809  23.548  0.00  0.00    +0.000 A 
ATOM     11  C   UNL     1      -4.346  12.569  24.028  0.00  0.00    +0.000 A 
ATOM     12  N   UNL     1      -3.224  11.927  23.616  0.00  0.00    +0.000 NA
ATOM     13  C   UNL     1      -0.795  12.091  20.889  0.00  0.00    +0.000 C 
ATOM     14  C   UNL     1      -0.753  10.734  20.166  0.00  0.00    +0.000 C 
ENDROOT
BRANCH   2  15
ATOM     15  C   UNL     1       1.415   7.704  21.151  0.00  0.00    +0.000 C 
BRANCH  15  16
ATOM     16  O   UNL     1       1.131   6.435  20.577  0.00  0.00    +0.000 OA
BRANCH  16  17
ATOM     17  C   UNL     1       2.202   5.504  20.778  0.00  0.00    +0.000 C 
BRANCH  17  18
ATOM     18  C   UNL     1       2.193   4.417  19.729  0.00  0.00    +0.000 A 
ATOM     19  C   UNL     1       2.489   4.694  18.383  0.00  0.00    +0.000 A 
ATOM     20  C   UNL     1       2.492   3.680  17.424  0.00  0.00    +0.000 A 
ATOM     21  C   UNL     1       2.201   2.369  17.792  0.00  0.00    +0.000 A 
ATOM     22  C   UNL     1       1.901   2.073  19.119  0.00  0.00    +0.000 A 
ATOM     23  C   UNL     1       1.897   3.088  20.081  0.00  0.00    +0.000 A 
ATOM     24 CL   UNL     1       1.520   2.643  21.710  0.00  0.00    +0.000 Cl
ENDBRANCH  17  18
ENDBRANCH  16  17
ENDBRANCH  15  16
ENDBRANCH   2  15
TORSDOF 4
ENDMDL
MODEL 9
REMARK VINA RESULT:      -6.6      3.068      4.848
REMARK  Name = 
REMARK  4 active torsions:
REMARK  status: ('A' for Active; 'I' for Inactive)
REMARK    1  A    between atoms: C_2  and  C_3
REMARK    2  A    between atoms: C_3  and  O_4
REMARK    3  A    between atoms: O_4  and  C_5
REMARK    4  A    between atoms: C_5  and  C_6
REMARK                            x       y       z     vdW  Elec       q    Type
REMARK                         _______ _______ _______ _____ _____    ______ ____
ROOT
ATOM      1  O   UNL     1       2.356  11.260  17.909  0.00  0.00    +0.000 OA
ATOM      2  C   UNL     1       1.508  10.552  18.458  0.00  0.00    +0.000 C 
ATOM      3  N   UNL     1       0.665  11.038  19.442  0.00  0.00    +0.000 N 
ATOM      4  C   UNL     1      -0.354  10.262  20.168  0.00  0.00    +0.000 C 
ATOM      5  C   UNL     1      -0.313  10.551  21.681  0.00  0.00    +0.000 C 
ATOM      6  N   UNL     1      -0.272  11.991  21.967  0.00  0.00    +0.000 N 
ATOM      7  C   UNL     1      -1.289  12.577  22.690  0.00  0.00    +0.000 A 
ATOM      8  C   UNL     1      -1.130  13.798  23.361  0.00  0.00    +0.000 A 
ATOM      9  N   UNL     1      -2.088  14.408  24.108  0.00  0.00    +0.000 NA
ATOM     10  C   UNL     1      -3.254  13.741  24.177  0.00  0.00    +0.000 A 
ATOM     11  C   UNL     1      -3.443  12.534  23.533  0.00  0.00    +0.000 A 
ATOM     12  N   UNL     1      -2.477  11.936  22.793  0.00  0.00    +0.000 NA
ATOM     13  C   UNL     1       0.712  12.780  21.218  0.00  0.00    +0.000 C 
ATOM     14  C   UNL     1       0.629  12.477  19.712  0.00  0.00    +0.000 C 
ENDROOT
BRANCH   2  15
ATOM     15  C   UNL     1       1.355   9.083  18.037  0.00  0.00    +0.000 C 
BRANCH  15  16
ATOM     16  O   UNL     1       2.203   8.166  18.715  0.00  0.00    +0.000 OA
BRANCH  16  17
ATOM     17  C   UNL     1       3.273   7.707  17.879  0.00  0.00    +0.000 C 
BRANCH  17  18
ATOM     18  C   UNL     1       3.232   6.207  17.702  0.00  0.00    +0.000 A 
ATOM     19  C   UNL     1       2.119   5.450  18.109  0.00  0.00    +0.000 A 
ATOM     20  C   UNL     1       2.085   4.067  17.929  0.00  0.00    +0.000 A 
ATOM     21  C   UNL     1       3.162   3.413  17.336  0.00  0.00    +0.000 A 
ATOM     22  C   UNL     1       4.277   4.142  16.930  0.00  0.00    +0.000 A 
ATOM     23  C   UNL     1       4.312   5.528  17.111  0.00  0.00    +0.000 A 
ATOM     24 CL   UNL     1       5.728   6.367  16.576  0.00  0.00    +0.000 Cl
ENDBRANCH  17  18
ENDBRANCH  16  17
ENDBRANCH  15  16
ENDBRANCH   2  15
TORSDOF 4
ENDMDL
