MODEL 1
REMARK VINA RESULT:      -8.0      0.000      0.000
REMARK  Name = 
REMARK  16 active torsions:
REMARK  status: ('A' for Active; 'I' for Inactive)
REMARK    1  A    between atoms: C_1  and  C_2
REMARK    2  A    between atoms: C_2  and  O_3
REMARK    3  A    between atoms: O_3  and  C_4
REMARK    4  A    between atoms: C_4  and  C_6
REMARK    5  A    between atoms: C_7  and  C_8
REMARK    6  A    between atoms: C_8  and  C_10
REMARK    7  A    between atoms: C_10  and  C_11
REMARK    8  A    between atoms: C_10  and  N_19
REMARK    9  A    between atoms: C_11  and  C_12
REMARK   10  A    between atoms: C_12  and  C_13
REMARK   11  A    between atoms: C_20  and  C_22
REMARK   12  A    between atoms: C_22  and  C_23
REMARK   13  A    between atoms: C_22  and  N_27
REMARK   14  A    between atoms: C_23  and  C_24
REMARK   15  A    between atoms: C_24  and  C_25
REMARK   16  A    between atoms: C_24  and  C_26
REMARK                            x       y       z     vdW  Elec       q    Type
REMARK                         _______ _______ _______ _____ _____    ______ ____
ROOT
ATOM      1  N   UNL     1       5.702   6.420  18.319  0.00  0.00    +0.000 N 
ATOM      2  C   UNL     1       4.510   6.684  17.682  0.00  0.00    +0.000 C 
ATOM      3  O   UNL     1       4.467   7.035  16.503  0.00  0.00    +0.000 OA
ATOM      4  H   UNL     1       5.683   6.156  19.301  0.00  0.00    +0.000 HD
ENDROOT
BRANCH   1   5
ATOM      5  C   UNL     1       6.970   6.466  17.602  0.00  0.00    +0.000 C 
BRANCH   5   6
ATOM      6  C   UNL     1       7.474   5.031  17.424  0.00  0.00    +0.000 C 
ATOM      7  O   UNL     1       7.780   4.307  18.368  0.00  0.00    +0.000 OA
BRANCH   6   9
ATOM      8  C   UNL     1       6.654   5.010  15.096  0.00  0.00    +0.000 C 
ATOM      9  C   UNL     1       7.491   4.525  16.021  0.00  0.00    +0.000 C 
BRANCH   8  10
ATOM     10  C   UNL     1       6.924   4.664  13.685  0.00  0.00    +0.000 C 
ATOM     11  O   UNL     1       7.365   5.433  12.849  0.00  0.00    +0.000 OA
BRANCH  10  12
ATOM     12  O   UNL     1       6.410   3.432  13.474  0.00  0.00    +0.000 OA
BRANCH  12  14
ATOM     13  C   UNL     1       4.635   3.450  11.893  0.00  0.00    +0.000 C 
ATOM     14  C   UNL     1       6.106   3.135  12.105  0.00  0.00    +0.000 C 
ENDBRANCH  12  14
ENDBRANCH  10  12
ENDBRANCH   8  10
ENDBRANCH   6   9
ENDBRANCH   5   6
BRANCH   5  15
ATOM     15  C   UNL     1       7.995   7.349  18.327  0.00  0.00    +0.000 C 
BRANCH  15  16
ATOM     16  C   UNL     1       7.886   8.807  17.865  0.00  0.00    +0.000 C 
BRANCH  16  17
ATOM     17  C   UNL     1       8.801   9.826  18.500  0.00  0.00    +0.000 A 
ATOM     18  C   UNL     1       8.989   9.964  19.880  0.00  0.00    +0.000 A 
ATOM     19  C   UNL     1       9.851  10.944  20.383  0.00  0.00    +0.000 A 
ATOM     20  C   UNL     1      10.536  11.794  19.516  0.00  0.00    +0.000 A 
ATOM     21  C   UNL     1      10.365  11.662  18.141  0.00  0.00    +0.000 A 
ATOM     22  C   UNL     1       9.505  10.687  17.639  0.00  0.00    +0.000 A 
ENDBRANCH  16  17
ENDBRANCH  15  16
ENDBRANCH   5  15
ENDBRANCH   1   5
BRANCH   2  23
ATOM     23  C   UNL     1       3.232   6.578  18.540  0.00  0.00    +0.000 C 
BRANCH  23  24
ATOM     24  N   UNL     1       2.435   7.804  18.639  0.00  0.00    +0.000 N 
ATOM     25  C   UNL     1       1.773   8.131  19.799  0.00  0.00    +0.000 C 
ATOM     26  O   UNL     1       1.908   7.496  20.835  0.00  0.00    +0.000 OA
ATOM     27  N   UNL     1       0.962   9.243  19.678  0.00  0.00    +0.000 N 
ATOM     28  C   UNL     1       0.819  10.101  18.492  0.00  0.00    +0.000 C 
ATOM     29  C   UNL     1       0.984  11.574  18.867  0.00  0.00    +0.000 C 
ATOM     30  O   UNL     1       0.069  11.945  19.907  0.00  0.00    +0.000 OA
ATOM     31  C   UNL     1       0.305  11.159  21.089  0.00  0.00    +0.000 C 
ATOM     32  C   UNL     1       0.122   9.664  20.805  0.00  0.00    +0.000 C 
ATOM     33  H   UNL     1       1.854   7.962  17.836  0.00  0.00    +0.000 HD
ENDBRANCH  23  24
BRANCH  23  34
ATOM     34  C   UNL     1       2.354   5.394  18.078  0.00  0.00    +0.000 C 
BRANCH  34  35
ATOM     35  C   UNL     1       1.843   4.410  19.158  0.00  0.00    +0.000 C 
ATOM     36  C   UNL     1       1.332   3.085  18.601  0.00  0.00    +0.000 C 
ATOM     37  C   UNL     1       2.965   4.130  20.163  0.00  0.00    +0.000 C 
ENDBRANCH  34  35
ENDBRANCH  23  34
ENDBRANCH   2  23
TORSDOF 13
ENDMDL
MODEL 2
REMARK VINA RESULT:      -8.0      1.947      6.015
REMARK  Name = 
REMARK  16 active torsions:
REMARK  status: ('A' for Active; 'I' for Inactive)
REMARK    1  A    between atoms: C_1  and  C_2
REMARK    2  A    between atoms: C_2  and  O_3
REMARK    3  A    between atoms: O_3  and  C_4
REMARK    4  A    between atoms: C_4  and  C_6
REMARK    5  A    between atoms: C_7  and  C_8
REMARK    6  A    between atoms: C_8  and  C_10
REMARK    7  A    between atoms: C_10  and  C_11
REMARK    8  A    between atoms: C_10  and  N_19
REMARK    9  A    between atoms: C_11  and  C_12
REMARK   10  A    between atoms: C_12  and  C_13
REMARK   11  A    between atoms: C_20  and  C_22
REMARK   12  A    between atoms: C_22  and  C_23
REMARK   13  A    between atoms: C_22  and  N_27
REMARK   14  A    between atoms: C_23  and  C_24
REMARK   15  A    between atoms: C_24  and  C_25
REMARK   16  A    between atoms: C_24  and  C_26
REMARK                            x       y       z     vdW  Elec       q    Type
REMARK                         _______ _______ _______ _____ _____    ______ ____
ROOT
ATOM      1  N   UNL     1       5.324   5.637  18.453  0.00  0.00    +0.000 N 
ATOM      2  C   UNL     1       4.935   4.655  19.336  0.00  0.00    +0.000 C 
ATOM      3  O   UNL     1       5.711   3.781  19.720  0.00  0.00    +0.000 OA
ATOM      4  H   UNL     1       4.636   6.322  18.150  0.00  0.00    +0.000 HD
ENDROOT
BRANCH   1   5
ATOM      5  C   UNL     1       6.702   5.736  17.989  0.00  0.00    +0.000 C 
BRANCH   5   6
ATOM      6  C   UNL     1       6.893   7.110  17.342  0.00  0.00    +0.000 C 
ATOM      7  O   UNL     1       6.202   7.513  16.408  0.00  0.00    +0.000 OA
BRANCH   6   9
ATOM      8  C   UNL     1       8.068   9.263  17.615  0.00  0.00    +0.000 C 
ATOM      9  C   UNL     1       7.927   7.981  17.973  0.00  0.00    +0.000 C 
BRANCH   8  10
ATOM     10  C   UNL     1       8.909  10.121  18.476  0.00  0.00    +0.000 C 
ATOM     11  O   UNL     1       9.368   9.793  19.555  0.00  0.00    +0.000 OA
BRANCH  10  12
ATOM     12  O   UNL     1       8.894  11.360  17.935  0.00  0.00    +0.000 OA
BRANCH  12  14
ATOM     13  C   UNL     1      10.569  12.981  17.470  0.00  0.00    +0.000 C 
ATOM     14  C   UNL     1       9.768  12.303  18.568  0.00  0.00    +0.000 C 
ENDBRANCH  12  14
ENDBRANCH  10  12
ENDBRANCH   8  10
ENDBRANCH   6   9
ENDBRANCH   5   6
BRANCH   5  15
ATOM     15  C   UNL     1       7.056   4.594  17.027  0.00  0.00    +0.000 C 
BRANCH  15  16
ATOM     16  C   UNL     1       5.949   4.395  15.984  0.00  0.00    +0.000 C 
BRANCH  16  17
ATOM     17  C   UNL     1       6.346   4.321  14.529  0.00  0.00    +0.000 A 
ATOM     18  C   UNL     1       5.728   3.494  13.585  0.00  0.00    +0.000 A 
ATOM     19  C   UNL     1       6.167   3.483  12.257  0.00  0.00    +0.000 A 
ATOM     20  C   UNL     1       7.224   4.298  11.856  0.00  0.00    +0.000 A 
ATOM     21  C   UNL     1       7.843   5.132  12.784  0.00  0.00    +0.000 A 
ATOM     22  C   UNL     1       7.406   5.143  14.108  0.00  0.00    +0.000 A 
ENDBRANCH  16  17
ENDBRANCH  15  16
ENDBRANCH   5  15
ENDBRANCH   1   5
BRANCH   2  23
ATOM     23  C   UNL     1       3.456   4.670  19.775  0.00  0.00    +0.000 C 
BRANCH  23  24
ATOM     24  N   UNL     1       2.846   5.998  19.892  0.00  0.00    +0.000 N 
ATOM     25  C   UNL     1       2.592   6.766  18.781  0.00  0.00    +0.000 C 
ATOM     26  O   UNL     1       2.741   6.345  17.642  0.00  0.00    +0.000 OA
ATOM     27  N   UNL     1       2.145   8.040  19.078  0.00  0.00    +0.000 N 
ATOM     28  C   UNL     1       1.864   8.581  20.416  0.00  0.00    +0.000 C 
ATOM     29  C   UNL     1       0.481   9.233  20.455  0.00  0.00    +0.000 C 
ATOM     30  O   UNL     1       0.355  10.234  19.437  0.00  0.00    +0.000 OA
ATOM     31  C   UNL     1       0.532   9.651  18.134  0.00  0.00    +0.000 C 
ATOM     32  C   UNL     1       1.916   9.006  17.998  0.00  0.00    +0.000 C 
ATOM     33  H   UNL     1       3.247   6.551  20.628  0.00  0.00    +0.000 HD
ENDBRANCH  23  24
BRANCH  23  34
ATOM     34  C   UNL     1       2.602   3.759  18.866  0.00  0.00    +0.000 C 
BRANCH  34  35
ATOM     35  C   UNL     1       1.849   2.580  19.530  0.00  0.00    +0.000 C 
ATOM     36  C   UNL     1       1.533   2.795  21.006  0.00  0.00    +0.000 C 
ATOM     37  C   UNL     1       0.543   2.320  18.772  0.00  0.00    +0.000 C 
ENDBRANCH  34  35
ENDBRANCH  23  34
ENDBRANCH   2  23
TORSDOF 13
ENDMDL
MODEL 3
REMARK VINA RESULT:      -7.6      2.069      6.029
REMARK  Name = 
REMARK  16 active torsions:
REMARK  status: ('A' for Active; 'I' for Inactive)
REMARK    1  A    between atoms: C_1  and  C_2
REMARK    2  A    between atoms: C_2  and  O_3
REMARK    3  A    between atoms: O_3  and  C_4
REMARK    4  A    between atoms: C_4  and  C_6
REMARK    5  A    between atoms: C_7  and  C_8
REMARK    6  A    between atoms: C_8  and  C_10
REMARK    7  A    between atoms: C_10  and  C_11
REMARK    8  A    between atoms: C_10  and  N_19
REMARK    9  A    between atoms: C_11  and  C_12
REMARK   10  A    between atoms: C_12  and  C_13
REMARK   11  A    between atoms: C_20  and  C_22
REMARK   12  A    between atoms: C_22  and  C_23
REMARK   13  A    between atoms: C_22  and  N_27
REMARK   14  A    between atoms: C_23  and  C_24
REMARK   15  A    between atoms: C_24  and  C_25
REMARK   16  A    between atoms: C_24  and  C_26
REMARK                            x       y       z     vdW  Elec       q    Type
REMARK                         _______ _______ _______ _____ _____    ______ ____
ROOT
ATOM      1  N   UNL     1       5.560   6.064  18.326  0.00  0.00    +0.000 N 
ATOM      2  C   UNL     1       4.984   5.336  19.342  0.00  0.00    +0.000 C 
ATOM      3  O   UNL     1       5.645   4.589  20.063  0.00  0.00    +0.000 OA
ATOM      4  H   UNL     1       4.964   6.648  17.744  0.00  0.00    +0.000 HD
ENDROOT
BRANCH   1   5
ATOM      5  C   UNL     1       7.001   6.047  18.104  0.00  0.00    +0.000 C 
BRANCH   5   6
ATOM      6  C   UNL     1       7.414   7.403  17.527  0.00  0.00    +0.000 C 
ATOM      7  O   UNL     1       7.019   7.817  16.439  0.00  0.00    +0.000 OA
BRANCH   6   9
ATOM      8  C   UNL     1       8.650   9.475  18.045  0.00  0.00    +0.000 C 
ATOM      9  C   UNL     1       8.270   8.245  18.412  0.00  0.00    +0.000 C 
BRANCH   8  10
ATOM     10  C   UNL     1       9.249  10.341  19.083  0.00  0.00    +0.000 C 
ATOM     11  O   UNL     1       9.258  10.097  20.276  0.00  0.00    +0.000 OA
BRANCH  10  12
ATOM     12  O   UNL     1       9.586  11.503  18.481  0.00  0.00    +0.000 OA
BRANCH  12  14
ATOM     13  C   UNL     1      10.630  13.312  19.618  0.00  0.00    +0.000 C 
ATOM     14  C   UNL     1       9.298  12.681  19.248  0.00  0.00    +0.000 C 
ENDBRANCH  12  14
ENDBRANCH  10  12
ENDBRANCH   8  10
ENDBRANCH   6   9
ENDBRANCH   5   6
BRANCH   5  15
ATOM     15  C   UNL     1       7.416   4.884  17.192  0.00  0.00    +0.000 C 
BRANCH  15  16
ATOM     16  C   UNL     1       6.297   4.539  16.202  0.00  0.00    +0.000 C 
BRANCH  16  17
ATOM     17  C   UNL     1       6.636   4.500  14.730  0.00  0.00    +0.000 A 
ATOM     18  C   UNL     1       7.617   5.294  14.127  0.00  0.00    +0.000 A 
ATOM     19  C   UNL     1       7.858   5.198  12.752  0.00  0.00    +0.000 A 
ATOM     20  C   UNL     1       7.127   4.309  11.967  0.00  0.00    +0.000 A 
ATOM     21  C   UNL     1       6.153   3.507  12.556  0.00  0.00    +0.000 A 
ATOM     22  C   UNL     1       5.911   3.602  13.926  0.00  0.00    +0.000 A 
ENDBRANCH  16  17
ENDBRANCH  15  16
ENDBRANCH   5  15
ENDBRANCH   1   5
BRANCH   2  23
ATOM     23  C   UNL     1       3.453   5.456  19.493  0.00  0.00    +0.000 C 
BRANCH  23  24
ATOM     24  N   UNL     1       2.878   6.741  19.082  0.00  0.00    +0.000 N 
ATOM     25  C   UNL     1       2.056   7.454  19.922  0.00  0.00    +0.000 C 
ATOM     26  O   UNL     1       1.859   7.127  21.084  0.00  0.00    +0.000 OA
ATOM     27  N   UNL     1       1.493   8.570  19.330  0.00  0.00    +0.000 N 
ATOM     28  C   UNL     1       1.752   9.066  17.971  0.00  0.00    +0.000 C 
ATOM     29  C   UNL     1       2.089  10.558  17.996  0.00  0.00    +0.000 C 
ATOM     30  O   UNL     1       1.056  11.307  18.650  0.00  0.00    +0.000 OA
ATOM     31  C   UNL     1       0.901  10.866  20.011  0.00  0.00    +0.000 C 
ATOM     32  C   UNL     1       0.524   9.382  20.073  0.00  0.00    +0.000 C 
ATOM     33  H   UNL     1       2.514   6.728  18.146  0.00  0.00    +0.000 HD
ENDBRANCH  23  24
BRANCH  23  34
ATOM     34  C   UNL     1       2.735   4.288  18.783  0.00  0.00    +0.000 C 
BRANCH  34  35
ATOM     35  C   UNL     1       2.006   3.246  19.666  0.00  0.00    +0.000 C 
ATOM     36  C   UNL     1       2.857   2.689  20.803  0.00  0.00    +0.000 C 
ATOM     37  C   UNL     1       0.738   3.875  20.254  0.00  0.00    +0.000 C 
ENDBRANCH  34  35
ENDBRANCH  23  34
ENDBRANCH   2  23
TORSDOF 13
ENDMDL
MODEL 4
REMARK VINA RESULT:      -7.6      3.295      9.493
REMARK  Name = 
REMARK  16 active torsions:
REMARK  status: ('A' for Active; 'I' for Inactive)
REMARK    1  A    between atoms: C_1  and  C_2
REMARK    2  A    between atoms: C_2  and  O_3
REMARK    3  A    between atoms: O_3  and  C_4
REMARK    4  A    between atoms: C_4  and  C_6
REMARK    5  A    between atoms: C_7  and  C_8
REMARK    6  A    between atoms: C_8  and  C_10
REMARK    7  A    between atoms: C_10  and  C_11
REMARK    8  A    between atoms: C_10  and  N_19
REMARK    9  A    between atoms: C_11  and  C_12
REMARK   10  A    between atoms: C_12  and  C_13
REMARK   11  A    between atoms: C_20  and  C_22
REMARK   12  A    between atoms: C_22  and  C_23
REMARK   13  A    between atoms: C_22  and  N_27
REMARK   14  A    between atoms: C_23  and  C_24
REMARK   15  A    between atoms: C_24  and  C_25
REMARK   16  A    between atoms: C_24  and  C_26
REMARK                            x       y       z     vdW  Elec       q    Type
REMARK                         _______ _______ _______ _____ _____    ______ ____
ROOT
ATOM      1  N   UNL     1       1.217   7.836  20.595  0.00  0.00    +0.000 N 
ATOM      2  C   UNL     1       2.030   7.385  19.580  0.00  0.00    +0.000 C 
ATOM      3  O   UNL     1       2.446   8.135  18.697  0.00  0.00    +0.000 OA
ATOM      4  H   UNL     1       0.882   7.169  21.286  0.00  0.00    +0.000 HD
ENDROOT
BRANCH   1   5
ATOM      5  C   UNL     1       0.872   9.246  20.719  0.00  0.00    +0.000 C 
BRANCH   5   6
ATOM      6  C   UNL     1       0.829   9.601  22.207  0.00  0.00    +0.000 C 
ATOM      7  O   UNL     1       1.779   9.421  22.967  0.00  0.00    +0.000 OA
BRANCH   6   9
ATOM      8  C   UNL     1      -0.536  11.600  22.686  0.00  0.00    +0.000 C 
ATOM      9  C   UNL     1      -0.421  10.267  22.675  0.00  0.00    +0.000 C 
BRANCH   8  10
ATOM     10  C   UNL     1      -1.886  12.166  22.890  0.00  0.00    +0.000 C 
ATOM     11  O   UNL     1      -2.885  11.516  23.142  0.00  0.00    +0.000 OA
BRANCH  10  12
ATOM     12  O   UNL     1      -1.823  13.473  22.549  0.00  0.00    +0.000 OA
BRANCH  12  14
ATOM     13  C   UNL     1      -0.571  15.487  22.703  0.00  0.00    +0.000 C 
ATOM     14  C   UNL     1      -1.116  14.302  23.481  0.00  0.00    +0.000 C 
ENDBRANCH  12  14
ENDBRANCH  10  12
ENDBRANCH   8  10
ENDBRANCH   6   9
ENDBRANCH   5   6
BRANCH   5  15
ATOM     15  C   UNL     1      -0.454   9.566  20.014  0.00  0.00    +0.000 C 
BRANCH  15  16
ATOM     16  C   UNL     1      -0.212  10.383  18.738  0.00  0.00    +0.000 C 
BRANCH  16  17
ATOM     17  C   UNL     1       0.240  11.816  18.885  0.00  0.00    +0.000 A 
ATOM     18  C   UNL     1       1.569  12.238  18.771  0.00  0.00    +0.000 A 
ATOM     19  C   UNL     1       1.899  13.588  18.931  0.00  0.00    +0.000 A 
ATOM     20  C   UNL     1       0.909  14.530  19.204  0.00  0.00    +0.000 A 
ATOM     21  C   UNL     1      -0.418  14.125  19.312  0.00  0.00    +0.000 A 
ATOM     22  C   UNL     1      -0.749  12.780  19.154  0.00  0.00    +0.000 A 
ENDBRANCH  16  17
ENDBRANCH  15  16
ENDBRANCH   5  15
ENDBRANCH   1   5
BRANCH   2  23
ATOM     23  C   UNL     1       2.346   5.874  19.570  0.00  0.00    +0.000 C 
BRANCH  23  24
ATOM     24  N   UNL     1       3.700   5.516  19.137  0.00  0.00    +0.000 N 
ATOM     25  C   UNL     1       3.922   4.896  17.931  0.00  0.00    +0.000 C 
ATOM     26  O   UNL     1       3.034   4.722  17.107  0.00  0.00    +0.000 OA
ATOM     27  N   UNL     1       5.234   4.507  17.741  0.00  0.00    +0.000 N 
ATOM     28  C   UNL     1       6.364   4.760  18.646  0.00  0.00    +0.000 C 
ATOM     29  C   UNL     1       7.544   5.362  17.883  0.00  0.00    +0.000 C 
ATOM     30  O   UNL     1       7.922   4.530  16.779  0.00  0.00    +0.000 OA
ATOM     31  C   UNL     1       6.825   4.389  15.858  0.00  0.00    +0.000 C 
ATOM     32  C   UNL     1       5.608   3.753  16.539  0.00  0.00    +0.000 C 
ATOM     33  H   UNL     1       4.247   5.094  19.865  0.00  0.00    +0.000 HD
ENDBRANCH  23  24
BRANCH  23  34
ATOM     34  C   UNL     1       2.025   5.234  20.938  0.00  0.00    +0.000 C 
BRANCH  34  35
ATOM     35  C   UNL     1       1.314   3.860  20.943  0.00  0.00    +0.000 C 
ATOM     36  C   UNL     1       0.886   3.376  19.561  0.00  0.00    +0.000 C 
ATOM     37  C   UNL     1       2.235   2.812  21.576  0.00  0.00    +0.000 C 
ENDBRANCH  34  35
ENDBRANCH  23  34
ENDBRANCH   2  23
TORSDOF 13
ENDMDL
MODEL 5
REMARK VINA RESULT:      -7.5      2.051      5.907
REMARK  Name = 
REMARK  16 active torsions:
REMARK  status: ('A' for Active; 'I' for Inactive)
REMARK    1  A    between atoms: C_1  and  C_2
REMARK    2  A    between atoms: C_2  and  O_3
REMARK    3  A    between atoms: O_3  and  C_4
REMARK    4  A    between atoms: C_4  and  C_6
REMARK    5  A    between atoms: C_7  and  C_8
REMARK    6  A    between atoms: C_8  and  C_10
REMARK    7  A    between atoms: C_10  and  C_11
REMARK    8  A    between atoms: C_10  and  N_19
REMARK    9  A    between atoms: C_11  and  C_12
REMARK   10  A    between atoms: C_12  and  C_13
REMARK   11  A    between atoms: C_20  and  C_22
REMARK   12  A    between atoms: C_22  and  C_23
REMARK   13  A    between atoms: C_22  and  N_27
REMARK   14  A    between atoms: C_23  and  C_24
REMARK   15  A    between atoms: C_24  and  C_25
REMARK   16  A    between atoms: C_24  and  C_26
REMARK                            x       y       z     vdW  Elec       q    Type
REMARK                         _______ _______ _______ _____ _____    ______ ____
ROOT
ATOM      1  N   UNL     1       5.293   5.477  18.054  0.00  0.00    +0.000 N 
ATOM      2  C   UNL     1       4.814   5.088  19.285  0.00  0.00    +0.000 C 
ATOM      3  O   UNL     1       5.566   4.849  20.229  0.00  0.00    +0.000 OA
ATOM      4  H   UNL     1       4.629   5.639  17.301  0.00  0.00    +0.000 HD
ENDROOT
BRANCH   1   5
ATOM      5  C   UNL     1       6.716   5.700  17.831  0.00  0.00    +0.000 C 
BRANCH   5   6
ATOM      6  C   UNL     1       6.896   7.108  17.256  0.00  0.00    +0.000 C 
ATOM      7  O   UNL     1       6.191   7.559  16.355  0.00  0.00    +0.000 OA
BRANCH   6   9
ATOM      8  C   UNL     1       7.947   9.277  17.785  0.00  0.00    +0.000 C 
ATOM      9  C   UNL     1       7.937   7.945  17.919  0.00  0.00    +0.000 C 
BRANCH   8  10
ATOM     10  C   UNL     1       8.826  10.047  18.690  0.00  0.00    +0.000 C 
ATOM     11  O   UNL     1       9.707   9.568  19.381  0.00  0.00    +0.000 OA
BRANCH  10  12
ATOM     12  O   UNL     1       8.333  11.304  18.744  0.00  0.00    +0.000 OA
BRANCH  12  14
ATOM     13  C   UNL     1       8.565  13.546  17.988  0.00  0.00    +0.000 C 
ATOM     14  C   UNL     1       8.555  12.087  17.563  0.00  0.00    +0.000 C 
ENDBRANCH  12  14
ENDBRANCH  10  12
ENDBRANCH   8  10
ENDBRANCH   6   9
ENDBRANCH   5   6
BRANCH   5  15
ATOM     15  C   UNL     1       7.319   4.625  16.916  0.00  0.00    +0.000 C 
BRANCH  15  16
ATOM     16  C   UNL     1       6.275   4.109  15.917  0.00  0.00    +0.000 C 
BRANCH  16  17
ATOM     17  C   UNL     1       6.586   4.217  14.443  0.00  0.00    +0.000 A 
ATOM     18  C   UNL     1       5.987   3.430  13.453  0.00  0.00    +0.000 A 
ATOM     19  C   UNL     1       6.342   3.591  12.110  0.00  0.00    +0.000 A 
ATOM     20  C   UNL     1       7.295   4.539  11.740  0.00  0.00    +0.000 A 
ATOM     21  C   UNL     1       7.892   5.334  12.714  0.00  0.00    +0.000 A 
ATOM     22  C   UNL     1       7.540   5.173  14.054  0.00  0.00    +0.000 A 
ENDBRANCH  16  17
ENDBRANCH  15  16
ENDBRANCH   5  15
ENDBRANCH   1   5
BRANCH   2  23
ATOM     23  C   UNL     1       3.286   4.909  19.405  0.00  0.00    +0.000 C 
BRANCH  23  24
ATOM     24  N   UNL     1       2.561   6.048  19.975  0.00  0.00    +0.000 N 
ATOM     25  C   UNL     1       2.286   7.166  19.224  0.00  0.00    +0.000 C 
ATOM     26  O   UNL     1       2.516   7.225  18.024  0.00  0.00    +0.000 OA
ATOM     27  N   UNL     1       1.720   8.196  19.951  0.00  0.00    +0.000 N 
ATOM     28  C   UNL     1       1.339   8.162  21.370  0.00  0.00    +0.000 C 
ATOM     29  C   UNL     1      -0.095   8.659  21.558  0.00  0.00    +0.000 C 
ATOM     30  O   UNL     1      -0.266   9.964  20.991  0.00  0.00    +0.000 OA
ATOM     31  C   UNL     1       0.013   9.939  19.579  0.00  0.00    +0.000 C 
ATOM     32  C   UNL     1       1.451   9.486  19.306  0.00  0.00    +0.000 C 
ATOM     33  H   UNL     1       2.883   6.300  20.892  0.00  0.00    +0.000 HD
ENDBRANCH  23  24
BRANCH  23  34
ATOM     34  C   UNL     1       2.671   4.496  18.049  0.00  0.00    +0.000 C 
BRANCH  34  35
ATOM     35  C   UNL     1       2.040   3.087  17.943  0.00  0.00    +0.000 C 
ATOM     36  C   UNL     1       3.047   1.945  18.040  0.00  0.00    +0.000 C 
ATOM     37  C   UNL     1       0.985   2.918  19.041  0.00  0.00    +0.000 C 
ENDBRANCH  34  35
ENDBRANCH  23  34
ENDBRANCH   2  23
TORSDOF 13
ENDMDL
MODEL 6
REMARK VINA RESULT:      -7.5      0.758      1.094
REMARK  Name = 
REMARK  16 active torsions:
REMARK  status: ('A' for Active; 'I' for Inactive)
REMARK    1  A    between atoms: C_1  and  C_2
REMARK    2  A    between atoms: C_2  and  O_3
REMARK    3  A    between atoms: O_3  and  C_4
REMARK    4  A    between atoms: C_4  and  C_6
REMARK    5  A    between atoms: C_7  and  C_8
REMARK    6  A    between atoms: C_8  and  C_10
REMARK    7  A    between atoms: C_10  and  C_11
REMARK    8  A    between atoms: C_10  and  N_19
REMARK    9  A    between atoms: C_11  and  C_12
REMARK   10  A    between atoms: C_12  and  C_13
REMARK   11  A    between atoms: C_20  and  C_22
REMARK   12  A    between atoms: C_22  and  C_23
REMARK   13  A    between atoms: C_22  and  N_27
REMARK   14  A    between atoms: C_23  and  C_24
REMARK   15  A    between atoms: C_24  and  C_25
REMARK   16  A    between atoms: C_24  and  C_26
REMARK                            x       y       z     vdW  Elec       q    Type
REMARK                         _______ _______ _______ _____ _____    ______ ____
ROOT
ATOM      1  N   UNL     1       5.603   6.366  18.098  0.00  0.00    +0.000 N 
ATOM      2  C   UNL     1       4.401   6.758  17.554  0.00  0.00    +0.000 C 
ATOM      3  O   UNL     1       4.323   7.229  16.420  0.00  0.00    +0.000 OA
ATOM      4  H   UNL     1       5.615   6.005  19.049  0.00  0.00    +0.000 HD
ENDROOT
BRANCH   1   5
ATOM      5  C   UNL     1       6.837   6.416  17.323  0.00  0.00    +0.000 C 
BRANCH   5   6
ATOM      6  C   UNL     1       7.346   4.985  17.137  0.00  0.00    +0.000 C 
ATOM      7  O   UNL     1       7.873   4.338  18.041  0.00  0.00    +0.000 OA
BRANCH   6   9
ATOM      8  C   UNL     1       5.867   4.399  15.251  0.00  0.00    +0.000 C 
ATOM      9  C   UNL     1       7.087   4.378  15.800  0.00  0.00    +0.000 C 
BRANCH   8  10
ATOM     10  C   UNL     1       5.756   4.037  13.823  0.00  0.00    +0.000 C 
ATOM     11  O   UNL     1       4.718   3.750  13.254  0.00  0.00    +0.000 OA
BRANCH  10  12
ATOM     12  O   UNL     1       7.015   3.896  13.351  0.00  0.00    +0.000 OA
BRANCH  12  14
ATOM     13  C   UNL     1       7.181   2.484  11.446  0.00  0.00    +0.000 C 
ATOM     14  C   UNL     1       7.127   3.926  11.922  0.00  0.00    +0.000 C 
ENDBRANCH  12  14
ENDBRANCH  10  12
ENDBRANCH   8  10
ENDBRANCH   6   9
ENDBRANCH   5   6
BRANCH   5  15
ATOM     15  C   UNL     1       7.886   7.316  17.991  0.00  0.00    +0.000 C 
BRANCH  15  16
ATOM     16  C   UNL     1       7.725   8.773  17.538  0.00  0.00    +0.000 C 
BRANCH  16  17
ATOM     17  C   UNL     1       8.520   9.835  18.258  0.00  0.00    +0.000 A 
ATOM     18  C   UNL     1       9.156   9.643  19.489  0.00  0.00    +0.000 A 
ATOM     19  C   UNL     1       9.866  10.688  20.090  0.00  0.00    +0.000 A 
ATOM     20  C   UNL     1       9.952  11.932  19.469  0.00  0.00    +0.000 A 
ATOM     21  C   UNL     1       9.330  12.135  18.240  0.00  0.00    +0.000 A 
ATOM     22  C   UNL     1       8.622  11.094  17.641  0.00  0.00    +0.000 A 
ENDBRANCH  16  17
ENDBRANCH  15  16
ENDBRANCH   5  15
ENDBRANCH   1   5
BRANCH   2  23
ATOM     23  C   UNL     1       3.161   6.633  18.464  0.00  0.00    +0.000 C 
BRANCH  23  24
ATOM     24  N   UNL     1       2.379   7.862  18.636  0.00  0.00    +0.000 N 
ATOM     25  C   UNL     1       1.695   8.113  19.801  0.00  0.00    +0.000 C 
ATOM     26  O   UNL     1       1.796   7.401  20.790  0.00  0.00    +0.000 OA
ATOM     27  N   UNL     1       0.902   9.244  19.744  0.00  0.00    +0.000 N 
ATOM     28  C   UNL     1       0.800  10.189  18.622  0.00  0.00    +0.000 C 
ATOM     29  C   UNL     1       0.976  11.627  19.109  0.00  0.00    +0.000 C 
ATOM     30  O   UNL     1       0.043  11.935  20.152  0.00  0.00    +0.000 OA
ATOM     31  C   UNL     1       0.240  11.061  21.278  0.00  0.00    +0.000 C 
ATOM     32  C   UNL     1       0.043   9.594  20.881  0.00  0.00    +0.000 C 
ATOM     33  H   UNL     1       1.819   8.087  17.833  0.00  0.00    +0.000 HD
ENDBRANCH  23  24
BRANCH  23  34
ATOM     34  C   UNL     1       2.254   5.471  18.004  0.00  0.00    +0.000 C 
BRANCH  34  35
ATOM     35  C   UNL     1       2.735   4.027  18.282  0.00  0.00    +0.000 C 
ATOM     36  C   UNL     1       3.384   3.839  19.650  0.00  0.00    +0.000 C 
ATOM     37  C   UNL     1       1.552   3.062  18.153  0.00  0.00    +0.000 C 
ENDBRANCH  34  35
ENDBRANCH  23  34
ENDBRANCH   2  23
TORSDOF 13
ENDMDL
MODEL 7
REMARK VINA RESULT:      -7.4      1.393      1.962
REMARK  Name = 
REMARK  16 active torsions:
REMARK  status: ('A' for Active; 'I' for Inactive)
REMARK    1  A    between atoms: C_1  and  C_2
REMARK    2  A    between atoms: C_2  and  O_3
REMARK    3  A    between atoms: O_3  and  C_4
REMARK    4  A    between atoms: C_4  and  C_6
REMARK    5  A    between atoms: C_7  and  C_8
REMARK    6  A    between atoms: C_8  and  C_10
REMARK    7  A    between atoms: C_10  and  C_11
REMARK    8  A    between atoms: C_10  and  N_19
REMARK    9  A    between atoms: C_11  and  C_12
REMARK   10  A    between atoms: C_12  and  C_13
REMARK   11  A    between atoms: C_20  and  C_22
REMARK   12  A    between atoms: C_22  and  C_23
REMARK   13  A    between atoms: C_22  and  N_27
REMARK   14  A    between atoms: C_23  and  C_24
REMARK   15  A    between atoms: C_24  and  C_25
REMARK   16  A    between atoms: C_24  and  C_26
REMARK                            x       y       z     vdW  Elec       q    Type
REMARK                         _______ _______ _______ _____ _____    ______ ____
ROOT
ATOM      1  N   UNL     1       5.152   5.694  17.380  0.00  0.00    +0.000 N 
ATOM      2  C   UNL     1       4.983   5.469  18.728  0.00  0.00    +0.000 C 
ATOM      3  O   UNL     1       5.929   5.494  19.515  0.00  0.00    +0.000 OA
ATOM      4  H   UNL     1       4.340   5.638  16.770  0.00  0.00    +0.000 HD
ENDROOT
BRANCH   1   5
ATOM      5  C   UNL     1       6.453   6.053  16.830  0.00  0.00    +0.000 C 
BRANCH   5   6
ATOM      6  C   UNL     1       7.234   4.763  16.567  0.00  0.00    +0.000 C 
ATOM      7  O   UNL     1       8.021   4.279  17.378  0.00  0.00    +0.000 OA
BRANCH   6   9
ATOM      8  C   UNL     1       6.384   4.729  14.251  0.00  0.00    +0.000 C 
ATOM      9  C   UNL     1       6.920   4.069  15.284  0.00  0.00    +0.000 C 
BRANCH   8  10
ATOM     10  C   UNL     1       6.367   4.045  12.940  0.00  0.00    +0.000 C 
ATOM     11  O   UNL     1       7.306   3.998  12.165  0.00  0.00    +0.000 OA
BRANCH  10  12
ATOM     12  O   UNL     1       5.089   3.677  12.703  0.00  0.00    +0.000 OA
BRANCH  12  14
ATOM     13  C   UNL     1       3.563   3.190  10.946  0.00  0.00    +0.000 C 
ATOM     14  C   UNL     1       4.909   2.837  11.555  0.00  0.00    +0.000 C 
ENDBRANCH  12  14
ENDBRANCH  10  12
ENDBRANCH   8  10
ENDBRANCH   6   9
ENDBRANCH   5   6
BRANCH   5  15
ATOM     15  C   UNL     1       7.215   7.006  17.760  0.00  0.00    +0.000 C 
BRANCH  15  16
ATOM     16  C   UNL     1       7.115   8.454  17.261  0.00  0.00    +0.000 C 
BRANCH  16  17
ATOM     17  C   UNL     1       8.008   9.491  17.899  0.00  0.00    +0.000 A 
ATOM     18  C   UNL     1       8.098  10.821  17.474  0.00  0.00    +0.000 A 
ATOM     19  C   UNL     1       8.960  11.713  18.119  0.00  0.00    +0.000 A 
ATOM     20  C   UNL     1       9.738  11.291  19.196  0.00  0.00    +0.000 A 
ATOM     21  C   UNL     1       9.652   9.972  19.634  0.00  0.00    +0.000 A 
ATOM     22  C   UNL     1       8.793   9.081  18.991  0.00  0.00    +0.000 A 
ENDBRANCH  16  17
ENDBRANCH  15  16
ENDBRANCH   5  15
ENDBRANCH   1   5
BRANCH   2  23
ATOM     23  C   UNL     1       3.554   5.122  19.194  0.00  0.00    +0.000 C 
BRANCH  23  24
ATOM     24  N   UNL     1       2.795   6.232  19.779  0.00  0.00    +0.000 N 
ATOM     25  C   UNL     1       2.395   7.302  19.014  0.00  0.00    +0.000 C 
ATOM     26  O   UNL     1       2.536   7.332  17.800  0.00  0.00    +0.000 OA
ATOM     27  N   UNL     1       1.812   8.319  19.747  0.00  0.00    +0.000 N 
ATOM     28  C   UNL     1       1.534   8.313  21.190  0.00  0.00    +0.000 C 
ATOM     29  C   UNL     1       0.087   8.722  21.464  0.00  0.00    +0.000 C 
ATOM     30  O   UNL     1      -0.209   9.992  20.869  0.00  0.00    +0.000 OA
ATOM     31  C   UNL     1      -0.029   9.934  19.443  0.00  0.00    +0.000 C 
ATOM     32  C   UNL     1       1.415   9.565  19.082  0.00  0.00    +0.000 C 
ATOM     33  H   UNL     1       3.162   6.538  20.662  0.00  0.00    +0.000 HD
ENDBRANCH  23  24
BRANCH  23  34
ATOM     34  C   UNL     1       2.749   4.453  18.058  0.00  0.00    +0.000 C 
BRANCH  34  35
ATOM     35  C   UNL     1       2.249   3.005  18.285  0.00  0.00    +0.000 C 
ATOM     36  C   UNL     1       3.349   1.950  18.227  0.00  0.00    +0.000 C 
ATOM     37  C   UNL     1       1.543   2.918  19.641  0.00  0.00    +0.000 C 
ENDBRANCH  34  35
ENDBRANCH  23  34
ENDBRANCH   2  23
TORSDOF 13
ENDMDL
MODEL 8
REMARK VINA RESULT:      -7.4      1.937      5.887
REMARK  Name = 
REMARK  16 active torsions:
REMARK  status: ('A' for Active; 'I' for Inactive)
REMARK    1  A    between atoms: C_1  and  C_2
REMARK    2  A    between atoms: C_2  and  O_3
REMARK    3  A    between atoms: O_3  and  C_4
REMARK    4  A    between atoms: C_4  and  C_6
REMARK    5  A    between atoms: C_7  and  C_8
REMARK    6  A    between atoms: C_8  and  C_10
REMARK    7  A    between atoms: C_10  and  C_11
REMARK    8  A    between atoms: C_10  and  N_19
REMARK    9  A    between atoms: C_11  and  C_12
REMARK   10  A    between atoms: C_12  and  C_13
REMARK   11  A    between atoms: C_20  and  C_22
REMARK   12  A    between atoms: C_22  and  C_23
REMARK   13  A    between atoms: C_22  and  N_27
REMARK   14  A    between atoms: C_23  and  C_24
REMARK   15  A    between atoms: C_24  and  C_25
REMARK   16  A    between atoms: C_24  and  C_26
REMARK                            x       y       z     vdW  Elec       q    Type
REMARK                         _______ _______ _______ _____ _____    ______ ____
ROOT
ATOM      1  N   UNL     1       5.395   6.026  18.237  0.00  0.00    +0.000 N 
ATOM      2  C   UNL     1       4.816   5.324  19.269  0.00  0.00    +0.000 C 
ATOM      3  O   UNL     1       5.468   4.564  19.984  0.00  0.00    +0.000 OA
ATOM      4  H   UNL     1       4.806   6.623  17.661  0.00  0.00    +0.000 HD
ENDROOT
BRANCH   1   5
ATOM      5  C   UNL     1       6.830   5.964  17.989  0.00  0.00    +0.000 C 
BRANCH   5   6
ATOM      6  C   UNL     1       7.241   7.226  17.225  0.00  0.00    +0.000 C 
ATOM      7  O   UNL     1       6.961   7.414  16.043  0.00  0.00    +0.000 OA
BRANCH   6   9
ATOM      8  C   UNL     1       8.362   9.409  17.476  0.00  0.00    +0.000 C 
ATOM      9  C   UNL     1       7.938   8.269  18.032  0.00  0.00    +0.000 C 
BRANCH   8  10
ATOM     10  C   UNL     1       8.781  10.497  18.385  0.00  0.00    +0.000 C 
ATOM     11  O   UNL     1       8.802  11.679  18.096  0.00  0.00    +0.000 OA
BRANCH  10  12
ATOM     12  O   UNL     1       9.307   9.912  19.485  0.00  0.00    +0.000 OA
BRANCH  12  14
ATOM     13  C   UNL     1      10.665  11.571  20.511  0.00  0.00    +0.000 C 
ATOM     14  C   UNL     1       9.386  10.762  20.637  0.00  0.00    +0.000 C 
ENDBRANCH  12  14
ENDBRANCH  10  12
ENDBRANCH   8  10
ENDBRANCH   6   9
ENDBRANCH   5   6
BRANCH   5  15
ATOM     15  C   UNL     1       7.217   4.685  17.235  0.00  0.00    +0.000 C 
BRANCH  15  16
ATOM     16  C   UNL     1       6.091   4.245  16.291  0.00  0.00    +0.000 C 
BRANCH  16  17
ATOM     17  C   UNL     1       6.377   4.211  14.808  0.00  0.00    +0.000 A 
ATOM     18  C   UNL     1       5.649   3.455  13.883  0.00  0.00    +0.000 A 
ATOM     19  C   UNL     1       5.989   3.476  12.527  0.00  0.00    +0.000 A 
ATOM     20  C   UNL     1       7.056   4.253  12.078  0.00  0.00    +0.000 A 
ATOM     21  C   UNL     1       7.784   5.017  12.987  0.00  0.00    +0.000 A 
ATOM     22  C   UNL     1       7.446   4.995  14.339  0.00  0.00    +0.000 A 
ENDBRANCH  16  17
ENDBRANCH  15  16
ENDBRANCH   5  15
ENDBRANCH   1   5
BRANCH   2  23
ATOM     23  C   UNL     1       3.293   5.491  19.446  0.00  0.00    +0.000 C 
BRANCH  23  24
ATOM     24  N   UNL     1       2.755   6.803  19.073  0.00  0.00    +0.000 N 
ATOM     25  C   UNL     1       1.959   7.518  19.936  0.00  0.00    +0.000 C 
ATOM     26  O   UNL     1       1.758   7.167  21.091  0.00  0.00    +0.000 OA
ATOM     27  N   UNL     1       1.427   8.665  19.377  0.00  0.00    +0.000 N 
ATOM     28  C   UNL     1       1.694   9.189  18.030  0.00  0.00    +0.000 C 
ATOM     29  C   UNL     1       2.075  10.669  18.092  0.00  0.00    +0.000 C 
ATOM     30  O   UNL     1       1.069  11.431  18.771  0.00  0.00    +0.000 OA
ATOM     31  C   UNL     1       0.908  10.960  20.121  0.00  0.00    +0.000 C 
ATOM     32  C   UNL     1       0.486   9.486  20.147  0.00  0.00    +0.000 C 
ATOM     33  H   UNL     1       2.385   6.825  18.140  0.00  0.00    +0.000 HD
ENDBRANCH  23  24
BRANCH  23  34
ATOM     34  C   UNL     1       2.526   4.362  18.723  0.00  0.00    +0.000 C 
BRANCH  34  35
ATOM     35  C   UNL     1       1.980   3.195  19.581  0.00  0.00    +0.000 C 
ATOM     36  C   UNL     1       1.308   3.637  20.877  0.00  0.00    +0.000 C 
ATOM     37  C   UNL     1       0.982   2.379  18.754  0.00  0.00    +0.000 C 
ENDBRANCH  34  35
ENDBRANCH  23  34
ENDBRANCH   2  23
TORSDOF 13
ENDMDL
MODEL 9
REMARK VINA RESULT:      -7.3      3.118      8.500
REMARK  Name = 
REMARK  16 active torsions:
REMARK  status: ('A' for Active; 'I' for Inactive)
REMARK    1  A    between atoms: C_1  and  C_2
REMARK    2  A    between atoms: C_2  and  O_3
REMARK    3  A    between atoms: O_3  and  C_4
REMARK    4  A    between atoms: C_4  and  C_6
REMARK    5  A    between atoms: C_7  and  C_8
REMARK    6  A    between atoms: C_8  and  C_10
REMARK    7  A    between atoms: C_10  and  C_11
REMARK    8  A    between atoms: C_10  and  N_19
REMARK    9  A    between atoms: C_11  and  C_12
REMARK   10  A    between atoms: C_12  and  C_13
REMARK   11  A    between atoms: C_20  and  C_22
REMARK   12  A    between atoms: C_22  and  C_23
REMARK   13  A    between atoms: C_22  and  N_27
REMARK   14  A    between atoms: C_23  and  C_24
REMARK   15  A    between atoms: C_24  and  C_25
REMARK   16  A    between atoms: C_24  and  C_26
REMARK                            x       y       z     vdW  Elec       q    Type
REMARK                         _______ _______ _______ _____ _____    ______ ____
ROOT
ATOM      1  N   UNL     1       1.701   8.428  18.966  0.00  0.00    +0.000 N 
ATOM      2  C   UNL     1       1.832   7.664  20.103  0.00  0.00    +0.000 C 
ATOM      3  O   UNL     1       1.723   8.149  21.229  0.00  0.00    +0.000 OA
ATOM      4  H   UNL     1       1.823   7.982  18.061  0.00  0.00    +0.000 HD
ENDROOT
BRANCH   1   5
ATOM      5  C   UNL     1       1.348   9.840  19.039  0.00  0.00    +0.000 C 
BRANCH   5   6
ATOM      6  C   UNL     1      -0.171   9.947  19.199  0.00  0.00    +0.000 C 
ATOM      7  O   UNL     1      -0.722  10.110  20.286  0.00  0.00    +0.000 OA
BRANCH   6   9
ATOM      8  C   UNL     1      -2.280  10.113  17.928  0.00  0.00    +0.000 C 
ATOM      9  C   UNL     1      -0.955   9.928  17.930  0.00  0.00    +0.000 C 
BRANCH   8  10
ATOM     10  C   UNL     1      -2.932  10.361  16.625  0.00  0.00    +0.000 C 
ATOM     11  O   UNL     1      -2.689   9.756  15.596  0.00  0.00    +0.000 OA
BRANCH  10  12
ATOM     12  O   UNL     1      -3.671  11.484  16.760  0.00  0.00    +0.000 OA
BRANCH  12  14
ATOM     13  C   UNL     1      -5.861  11.793  17.632  0.00  0.00    +0.000 C 
ATOM     14  C   UNL     1      -4.401  11.579  17.991  0.00  0.00    +0.000 C 
ENDBRANCH  12  14
ENDBRANCH  10  12
ENDBRANCH   8  10
ENDBRANCH   6   9
ENDBRANCH   5   6
BRANCH   5  15
ATOM     15  C   UNL     1       1.852  10.612  17.812  0.00  0.00    +0.000 C 
BRANCH  15  16
ATOM     16  C   UNL     1       2.607  11.878  18.235  0.00  0.00    +0.000 C 
BRANCH  16  17
ATOM     17  C   UNL     1       1.800  13.071  18.690  0.00  0.00    +0.000 A 
ATOM     18  C   UNL     1       0.467  13.302  18.333  0.00  0.00    +0.000 A 
ATOM     19  C   UNL     1      -0.203  14.439  18.794  0.00  0.00    +0.000 A 
ATOM     20  C   UNL     1       0.447  15.357  19.617  0.00  0.00    +0.000 A 
ATOM     21  C   UNL     1       1.771  15.135  19.987  0.00  0.00    +0.000 A 
ATOM     22  C   UNL     1       2.440  14.002  19.527  0.00  0.00    +0.000 A 
ENDBRANCH  16  17
ENDBRANCH  15  16
ENDBRANCH   5  15
ENDBRANCH   1   5
BRANCH   2  23
ATOM     23  C   UNL     1       2.182   6.175  19.896  0.00  0.00    +0.000 C 
BRANCH  23  24
ATOM     24  N   UNL     1       3.575   5.901  19.527  0.00  0.00    +0.000 N 
ATOM     25  C   UNL     1       3.890   5.316  18.323  0.00  0.00    +0.000 C 
ATOM     26  O   UNL     1       3.055   5.108  17.454  0.00  0.00    +0.000 OA
ATOM     27  N   UNL     1       5.230   5.005  18.193  0.00  0.00    +0.000 N 
ATOM     28  C   UNL     1       6.298   5.304  19.159  0.00  0.00    +0.000 C 
ATOM     29  C   UNL     1       7.478   5.985  18.465  0.00  0.00    +0.000 C 
ATOM     30  O   UNL     1       7.956   5.195  17.369  0.00  0.00    +0.000 OA
ATOM     31  C   UNL     1       6.916   5.010  16.392  0.00  0.00    +0.000 C 
ATOM     32  C   UNL     1       5.705   4.295  17.000  0.00  0.00    +0.000 C 
ATOM     33  H   UNL     1       4.108   5.497  20.275  0.00  0.00    +0.000 HD
ENDBRANCH  23  24
BRANCH  23  34
ATOM     34  C   UNL     1       1.770   5.335  21.125  0.00  0.00    +0.000 C 
BRANCH  34  35
ATOM     35  C   UNL     1       1.328   3.872  20.882  0.00  0.00    +0.000 C 
ATOM     36  C   UNL     1       0.871   3.588  19.454  0.00  0.00    +0.000 C 
ATOM     37  C   UNL     1       2.480   2.926  21.235  0.00  0.00    +0.000 C 
ENDBRANCH  34  35
ENDBRANCH  23  34
ENDBRANCH   2  23
TORSDOF 13
ENDMDL
