MODEL 1
REMARK VINA RESULT:      -7.2      0.000      0.000
REMARK  Name = 
REMARK  9 active torsions:
REMARK  status: ('A' for Active; 'I' for Inactive)
REMARK    1  A    between atoms: C_1  and  C_2
REMARK    2  A    between atoms: C_2  and  C_3
REMARK    3  A    between atoms: C_3  and  C_4
REMARK    4  A    between atoms: C_4  and  C_6
REMARK    5  A    between atoms: C_11  and  C_12
REMARK    6  A    between atoms: C_12  and  O_13
REMARK    7  A    between atoms: C_17  and  N_18
REMARK    8  A    between atoms: N_18  and  C_19
REMARK    9  A    between atoms: C_24  and  C_25
REMARK                            x       y       z     vdW  Elec       q    Type
REMARK                         _______ _______ _______ _____ _____    ______ ____
ROOT
ATOM      1  C   UNL     1       2.210   5.178  20.123  0.00  0.00    +0.000 A 
ATOM      2  C   UNL     1       1.414   5.906  20.993  0.00  0.00    +0.000 A 
ATOM      3  N   UNL     1       1.153   7.228  20.877  0.00  0.00    +0.000 NA
ATOM      4  C   UNL     1       1.633   7.878  19.809  0.00  0.00    +0.000 A 
ATOM      5  C   UNL     1       1.391   9.245  19.718  0.00  0.00    +0.000 A 
ATOM      6  C   UNL     1       1.835  10.021  18.638  0.00  0.00    +0.000 A 
ATOM      7  C   UNL     1       2.455   9.371  17.577  0.00  0.00    +0.000 A 
ATOM      8  C   UNL     1       2.702   8.000  17.649  0.00  0.00    +0.000 A 
ATOM      9  C   UNL     1       2.374   7.234  18.796  0.00  0.00    +0.000 A 
ATOM     10  C   UNL     1       2.731   5.859  18.997  0.00  0.00    +0.000 A 
ENDROOT
BRANCH   1  11
ATOM     11  C   UNL     1       2.504   3.731  20.395  0.00  0.00    +0.000 C 
ATOM     12  O   UNL     1       3.647   3.402  20.719  0.00  0.00    +0.000 OA
BRANCH  11  13
ATOM     13  C   UNL     1       1.406   2.685  20.220  0.00  0.00    +0.000 C 
BRANCH  13  15
ATOM     14  C   UNL     1       2.192   2.128  17.889  0.00  0.00    +0.000 C 
ATOM     15  C   UNL     1       1.000   2.507  18.757  0.00  0.00    +0.000 C 
ENDBRANCH  13  15
ENDBRANCH  11  13
ENDBRANCH   1  11
BRANCH  10  16
ATOM     16  N   UNL     1       3.607   5.184  18.085  0.00  0.00    +0.000 N 
ATOM     17  H   UNL     1       3.221   4.267  17.815  0.00  0.00    +0.000 HD
BRANCH  16  18
ATOM     18  C   UNL     1       5.027   5.104  18.092  0.00  0.00    +0.000 A 
ATOM     19  C   UNL     1       5.789   5.561  19.181  0.00  0.00    +0.000 A 
ATOM     20  C   UNL     1       7.185   5.542  19.147  0.00  0.00    +0.000 A 
ATOM     21  C   UNL     1       7.844   5.029  18.038  0.00  0.00    +0.000 A 
ATOM     22  C   UNL     1       7.109   4.544  16.958  0.00  0.00    +0.000 A 
ATOM     23  C   UNL     1       5.704   4.582  16.969  0.00  0.00    +0.000 A 
ATOM     24  C   UNL     1       4.954   4.104  15.754  0.00  0.00    +0.000 C 
ENDBRANCH  16  18
ENDBRANCH  10  16
BRANCH   6  25
ATOM     25  C   UNL     1       1.578  11.504  18.606  0.00  0.00    +0.000 C 
BRANCH  25  26
ATOM     26  O   UNL     1       2.414  12.156  17.656  0.00  0.00    +0.000 OA
ATOM     27  H   UNL     1       1.844  12.741  17.129  0.00  0.00    +0.000 HD
ENDBRANCH  25  26
ENDBRANCH   6  25
TORSDOF 7
ENDMDL
MODEL 2
REMARK VINA RESULT:      -7.0      1.655      2.032
REMARK  Name = 
REMARK  9 active torsions:
REMARK  status: ('A' for Active; 'I' for Inactive)
REMARK    1  A    between atoms: C_1  and  C_2
REMARK    2  A    between atoms: C_2  and  C_3
REMARK    3  A    between atoms: C_3  and  C_4
REMARK    4  A    between atoms: C_4  and  C_6
REMARK    5  A    between atoms: C_11  and  C_12
REMARK    6  A    between atoms: C_12  and  O_13
REMARK    7  A    between atoms: C_17  and  N_18
REMARK    8  A    between atoms: N_18  and  C_19
REMARK    9  A    between atoms: C_24  and  C_25
REMARK                            x       y       z     vdW  Elec       q    Type
REMARK                         _______ _______ _______ _____ _____    ______ ____
ROOT
ATOM      1  C   UNL     1       3.192   3.927  19.915  0.00  0.00    +0.000 A 
ATOM      2  C   UNL     1       2.250   4.012  20.930  0.00  0.00    +0.000 A 
ATOM      3  N   UNL     1       1.580   5.136  21.268  0.00  0.00    +0.000 NA
ATOM      4  C   UNL     1       1.776   6.238  20.530  0.00  0.00    +0.000 A 
ATOM      5  C   UNL     1       1.110   7.399  20.909  0.00  0.00    +0.000 A 
ATOM      6  C   UNL     1       1.231   8.604  20.203  0.00  0.00    +0.000 A 
ATOM      7  C   UNL     1       1.971   8.600  19.026  0.00  0.00    +0.000 A 
ATOM      8  C   UNL     1       2.642   7.443  18.628  0.00  0.00    +0.000 A 
ATOM      9  C   UNL     1       2.631   6.260  19.409  0.00  0.00    +0.000 A 
ATOM     10  C   UNL     1       3.413   5.089  19.139  0.00  0.00    +0.000 A 
ENDROOT
BRANCH   1  11
ATOM     11  C   UNL     1       3.942   2.648  19.682  0.00  0.00    +0.000 C 
ATOM     12  O   UNL     1       5.058   2.506  20.185  0.00  0.00    +0.000 OA
BRANCH  11  13
ATOM     13  C   UNL     1       3.339   1.564  18.791  0.00  0.00    +0.000 C 
BRANCH  13  15
ATOM     14  C   UNL     1       0.883   2.045  18.486  0.00  0.00    +0.000 C 
ATOM     15  C   UNL     1       2.265   2.114  17.852  0.00  0.00    +0.000 C 
ENDBRANCH  13  15
ENDBRANCH  11  13
ENDBRANCH   1  11
BRANCH  10  16
ATOM     16  N   UNL     1       4.411   5.091  18.109  0.00  0.00    +0.000 N 
ATOM     17  H   UNL     1       4.495   4.158  17.676  0.00  0.00    +0.000 HD
BRANCH  16  18
ATOM     18  C   UNL     1       5.684   5.725  18.089  0.00  0.00    +0.000 A 
ATOM     19  C   UNL     1       6.636   5.506  19.099  0.00  0.00    +0.000 A 
ATOM     20  C   UNL     1       7.855   6.189  19.107  0.00  0.00    +0.000 A 
ATOM     21  C   UNL     1       8.158   7.075  18.082  0.00  0.00    +0.000 A 
ATOM     22  C   UNL     1       7.241   7.286  17.054  0.00  0.00    +0.000 A 
ATOM     23  C   UNL     1       6.000   6.625  17.049  0.00  0.00    +0.000 A 
ATOM     24  C   UNL     1       5.017   6.932  15.952  0.00  0.00    +0.000 C 
ENDBRANCH  16  18
ENDBRANCH  10  16
BRANCH   6  25
ATOM     25  C   UNL     1       0.518   9.842  20.675  0.00  0.00    +0.000 C 
BRANCH  25  26
ATOM     26  O   UNL     1      -0.617  10.131  19.865  0.00  0.00    +0.000 OA
ATOM     27  H   UNL     1      -0.547  11.063  19.598  0.00  0.00    +0.000 HD
ENDBRANCH  25  26
ENDBRANCH   6  25
TORSDOF 7
ENDMDL
MODEL 3
REMARK VINA RESULT:      -7.0      2.298      4.651
REMARK  Name = 
REMARK  9 active torsions:
REMARK  status: ('A' for Active; 'I' for Inactive)
REMARK    1  A    between atoms: C_1  and  C_2
REMARK    2  A    between atoms: C_2  and  C_3
REMARK    3  A    between atoms: C_3  and  C_4
REMARK    4  A    between atoms: C_4  and  C_6
REMARK    5  A    between atoms: C_11  and  C_12
REMARK    6  A    between atoms: C_12  and  O_13
REMARK    7  A    between atoms: C_17  and  N_18
REMARK    8  A    between atoms: N_18  and  C_19
REMARK    9  A    between atoms: C_24  and  C_25
REMARK                            x       y       z     vdW  Elec       q    Type
REMARK                         _______ _______ _______ _____ _____    ______ ____
ROOT
ATOM      1  C   UNL     1       3.057   7.471  18.070  0.00  0.00    +0.000 A 
ATOM      2  C   UNL     1       2.535   8.616  17.488  0.00  0.00    +0.000 A 
ATOM      3  N   UNL     1       1.668   9.461  18.089  0.00  0.00    +0.000 NA
ATOM      4  C   UNL     1       1.335   9.226  19.366  0.00  0.00    +0.000 A 
ATOM      5  C   UNL     1       0.414  10.080  19.963  0.00  0.00    +0.000 A 
ATOM      6  C   UNL     1       0.004   9.936  21.296  0.00  0.00    +0.000 A 
ATOM      7  C   UNL     1       0.622   8.959  22.068  0.00  0.00    +0.000 A 
ATOM      8  C   UNL     1       1.553   8.097  21.487  0.00  0.00    +0.000 A 
ATOM      9  C   UNL     1       1.871   8.153  20.106  0.00  0.00    +0.000 A 
ATOM     10  C   UNL     1       2.701   7.209  19.415  0.00  0.00    +0.000 A 
ENDROOT
BRANCH   1  11
ATOM     11  C   UNL     1       3.946   6.555  17.280  0.00  0.00    +0.000 C 
ATOM     12  O   UNL     1       3.566   5.407  17.042  0.00  0.00    +0.000 OA
BRANCH  11  13
ATOM     13  C   UNL     1       5.321   7.036  16.825  0.00  0.00    +0.000 C 
BRANCH  13  15
ATOM     14  C   UNL     1       7.547   6.799  17.986  0.00  0.00    +0.000 C 
ATOM     15  C   UNL     1       6.438   6.075  17.236  0.00  0.00    +0.000 C 
ENDBRANCH  13  15
ENDBRANCH  11  13
ENDBRANCH   1  11
BRANCH  10  16
ATOM     16  N   UNL     1       3.158   6.015  20.064  0.00  0.00    +0.000 N 
ATOM     17  H   UNL     1       4.183   5.927  19.994  0.00  0.00    +0.000 HD
BRANCH  16  18
ATOM     18  C   UNL     1       2.582   4.715  20.067  0.00  0.00    +0.000 A 
ATOM     19  C   UNL     1       1.222   4.508  20.354  0.00  0.00    +0.000 A 
ATOM     20  C   UNL     1       0.683   3.222  20.425  0.00  0.00    +0.000 A 
ATOM     21  C   UNL     1       1.488   2.119  20.171  0.00  0.00    +0.000 A 
ATOM     22  C   UNL     1       2.833   2.301  19.857  0.00  0.00    +0.000 A 
ATOM     23  C   UNL     1       3.394   3.589  19.809  0.00  0.00    +0.000 A 
ATOM     24  C   UNL     1       4.865   3.733  19.527  0.00  0.00    +0.000 C 
ENDBRANCH  16  18
ENDBRANCH  10  16
BRANCH   6  25
ATOM     25  C   UNL     1      -1.024  10.865  21.885  0.00  0.00    +0.000 C 
BRANCH  25  26
ATOM     26  O   UNL     1      -0.633  11.323  23.175  0.00  0.00    +0.000 OA
ATOM     27  H   UNL     1       0.330  11.210  23.238  0.00  0.00    +0.000 HD
ENDBRANCH  25  26
ENDBRANCH   6  25
TORSDOF 7
ENDMDL
MODEL 4
REMARK VINA RESULT:      -6.9      1.945      4.538
REMARK  Name = 
REMARK  9 active torsions:
REMARK  status: ('A' for Active; 'I' for Inactive)
REMARK    1  A    between atoms: C_1  and  C_2
REMARK    2  A    between atoms: C_2  and  C_3
REMARK    3  A    between atoms: C_3  and  C_4
REMARK    4  A    between atoms: C_4  and  C_6
REMARK    5  A    between atoms: C_11  and  C_12
REMARK    6  A    between atoms: C_12  and  O_13
REMARK    7  A    between atoms: C_17  and  N_18
REMARK    8  A    between atoms: N_18  and  C_19
REMARK    9  A    between atoms: C_24  and  C_25
REMARK                            x       y       z     vdW  Elec       q    Type
REMARK                         _______ _______ _______ _____ _____    ______ ____
ROOT
ATOM      1  C   UNL     1       5.083   5.678  17.114  0.00  0.00    +0.000 A 
ATOM      2  C   UNL     1       4.981   6.789  16.290  0.00  0.00    +0.000 A 
ATOM      3  N   UNL     1       4.099   7.798  16.462  0.00  0.00    +0.000 NA
ATOM      4  C   UNL     1       3.309   7.773  17.544  0.00  0.00    +0.000 A 
ATOM      5  C   UNL     1       2.380   8.797  17.693  0.00  0.00    +0.000 A 
ATOM      6  C   UNL     1       1.512   8.877  18.792  0.00  0.00    +0.000 A 
ATOM      7  C   UNL     1       1.664   7.946  19.813  0.00  0.00    +0.000 A 
ATOM      8  C   UNL     1       2.595   6.915  19.683  0.00  0.00    +0.000 A 
ATOM      9  C   UNL     1       3.380   6.752  18.514  0.00  0.00    +0.000 A 
ATOM     10  C   UNL     1       4.245   5.637  18.253  0.00  0.00    +0.000 A 
ENDROOT
BRANCH   1  11
ATOM     11  C   UNL     1       6.041   4.571  16.779  0.00  0.00    +0.000 C 
ATOM     12  O   UNL     1       7.018   4.382  17.507  0.00  0.00    +0.000 OA
BRANCH  11  13
ATOM     13  C   UNL     1       5.824   3.730  15.524  0.00  0.00    +0.000 C 
BRANCH  13  15
ATOM     14  C   UNL     1       6.129   3.579  13.026  0.00  0.00    +0.000 C 
ATOM     15  C   UNL     1       6.494   4.340  14.292  0.00  0.00    +0.000 C 
ENDBRANCH  13  15
ENDBRANCH  11  13
ENDBRANCH   1  11
BRANCH  10  16
ATOM     16  N   UNL     1       4.256   4.495  19.119  0.00  0.00    +0.000 N 
ATOM     17  H   UNL     1       4.953   3.802  18.805  0.00  0.00    +0.000 HD
BRANCH  16  18
ATOM     18  C   UNL     1       3.166   3.811  19.723  0.00  0.00    +0.000 A 
ATOM     19  C   UNL     1       2.952   3.840  21.112  0.00  0.00    +0.000 A 
ATOM     20  C   UNL     1       1.921   3.106  21.703  0.00  0.00    +0.000 A 
ATOM     21  C   UNL     1       1.059   2.361  20.908  0.00  0.00    +0.000 A 
ATOM     22  C   UNL     1       1.234   2.341  19.526  0.00  0.00    +0.000 A 
ATOM     23  C   UNL     1       2.285   3.053  18.922  0.00  0.00    +0.000 A 
ATOM     24  C   UNL     1       2.472   2.951  17.432  0.00  0.00    +0.000 C 
ENDBRANCH  16  18
ENDBRANCH  10  16
BRANCH   6  25
ATOM     25  C   UNL     1       0.499   9.986  18.888  0.00  0.00    +0.000 C 
BRANCH  25  26
ATOM     26  O   UNL     1      -0.242  10.120  17.680  0.00  0.00    +0.000 OA
ATOM     27  H   UNL     1      -0.640  11.007  17.686  0.00  0.00    +0.000 HD
ENDBRANCH  25  26
ENDBRANCH   6  25
TORSDOF 7
ENDMDL
MODEL 5
REMARK VINA RESULT:      -6.9      1.054      1.054
REMARK  Name = 
REMARK  9 active torsions:
REMARK  status: ('A' for Active; 'I' for Inactive)
REMARK    1  A    between atoms: C_1  and  C_2
REMARK    2  A    between atoms: C_2  and  C_3
REMARK    3  A    between atoms: C_3  and  C_4
REMARK    4  A    between atoms: C_4  and  C_6
REMARK    5  A    between atoms: C_11  and  C_12
REMARK    6  A    between atoms: C_12  and  O_13
REMARK    7  A    between atoms: C_17  and  N_18
REMARK    8  A    between atoms: N_18  and  C_19
REMARK    9  A    between atoms: C_24  and  C_25
REMARK                            x       y       z     vdW  Elec       q    Type
REMARK                         _______ _______ _______ _____ _____    ______ ____
ROOT
ATOM      1  C   UNL     1       2.290   5.175  20.093  0.00  0.00    +0.000 A 
ATOM      2  C   UNL     1       1.372   5.750  20.960  0.00  0.00    +0.000 A 
ATOM      3  N   UNL     1       0.985   7.045  20.926  0.00  0.00    +0.000 NA
ATOM      4  C   UNL     1       1.459   7.823  19.944  0.00  0.00    +0.000 A 
ATOM      5  C   UNL     1       1.083   9.162  19.939  0.00  0.00    +0.000 A 
ATOM      6  C   UNL     1       1.509  10.064  18.953  0.00  0.00    +0.000 A 
ATOM      7  C   UNL     1       2.255   9.565  17.891  0.00  0.00    +0.000 A 
ATOM      8  C   UNL     1       2.636   8.223  17.876  0.00  0.00    +0.000 A 
ATOM      9  C   UNL     1       2.321   7.339  18.939  0.00  0.00    +0.000 A 
ATOM     10  C   UNL     1       2.804   5.994  19.060  0.00  0.00    +0.000 A 
ENDROOT
BRANCH   1  11
ATOM     11  C   UNL     1       2.714   3.747  20.276  0.00  0.00    +0.000 C 
ATOM     12  O   UNL     1       3.898   3.498  20.508  0.00  0.00    +0.000 OA
BRANCH  11  13
ATOM     13  C   UNL     1       1.691   2.624  20.125  0.00  0.00    +0.000 C 
BRANCH  13  15
ATOM     14  C   UNL     1       2.332   2.229  17.718  0.00  0.00    +0.000 C 
ATOM     15  C   UNL     1       1.187   2.486  18.688  0.00  0.00    +0.000 C 
ENDBRANCH  13  15
ENDBRANCH  11  13
ENDBRANCH   1  11
BRANCH  10  16
ATOM     16  N   UNL     1       3.798   5.484  18.161  0.00  0.00    +0.000 N 
ATOM     17  H   UNL     1       3.612   4.496  17.930  0.00  0.00    +0.000 HD
BRANCH  16  18
ATOM     18  C   UNL     1       5.203   5.704  18.152  0.00  0.00    +0.000 A 
ATOM     19  C   UNL     1       6.004   5.421  19.272  0.00  0.00    +0.000 A 
ATOM     20  C   UNL     1       7.371   5.708  19.277  0.00  0.00    +0.000 A 
ATOM     21  C   UNL     1       7.968   6.248  18.145  0.00  0.00    +0.000 A 
ATOM     22  C   UNL     1       7.199   6.510  17.013  0.00  0.00    +0.000 A 
ATOM     23  C   UNL     1       5.818   6.251  17.005  0.00  0.00    +0.000 A 
ATOM     24  C   UNL     1       5.017   6.609  15.782  0.00  0.00    +0.000 C 
ENDBRANCH  16  18
ENDBRANCH  10  16
BRANCH   6  25
ATOM     25  C   UNL     1       1.104  11.512  19.014  0.00  0.00    +0.000 C 
BRANCH  25  26
ATOM     26  O   UNL     1      -0.016  11.703  19.872  0.00  0.00    +0.000 OA
ATOM     27  H   UNL     1      -0.743  12.040  19.321  0.00  0.00    +0.000 HD
ENDBRANCH  25  26
ENDBRANCH   6  25
TORSDOF 7
ENDMDL
MODEL 6
REMARK VINA RESULT:      -6.9      1.122      1.376
REMARK  Name = 
REMARK  9 active torsions:
REMARK  status: ('A' for Active; 'I' for Inactive)
REMARK    1  A    between atoms: C_1  and  C_2
REMARK    2  A    between atoms: C_2  and  C_3
REMARK    3  A    between atoms: C_3  and  C_4
REMARK    4  A    between atoms: C_4  and  C_6
REMARK    5  A    between atoms: C_11  and  C_12
REMARK    6  A    between atoms: C_12  and  O_13
REMARK    7  A    between atoms: C_17  and  N_18
REMARK    8  A    between atoms: N_18  and  C_19
REMARK    9  A    between atoms: C_24  and  C_25
REMARK                            x       y       z     vdW  Elec       q    Type
REMARK                         _______ _______ _______ _____ _____    ______ ____
ROOT
ATOM      1  C   UNL     1       2.443   5.618  19.711  0.00  0.00    +0.000 A 
ATOM      2  C   UNL     1       1.751   6.107  20.809  0.00  0.00    +0.000 A 
ATOM      3  N   UNL     1       1.325   7.382  20.947  0.00  0.00    +0.000 NA
ATOM      4  C   UNL     1       1.514   8.228  19.925  0.00  0.00    +0.000 A 
ATOM      5  C   UNL     1       1.106   9.548  20.091  0.00  0.00    +0.000 A 
ATOM      6  C   UNL     1       1.243  10.514  19.084  0.00  0.00    +0.000 A 
ATOM      7  C   UNL     1       1.717  10.102  17.844  0.00  0.00    +0.000 A 
ATOM      8  C   UNL     1       2.127   8.781  17.658  0.00  0.00    +0.000 A 
ATOM      9  C   UNL     1       2.115   7.834  18.712  0.00  0.00    +0.000 A 
ATOM     10  C   UNL     1       2.657   6.508  18.632  0.00  0.00    +0.000 A 
ENDROOT
BRANCH   1  11
ATOM     11  C   UNL     1       2.946   4.204  19.700  0.00  0.00    +0.000 C 
ATOM     12  O   UNL     1       4.123   3.983  19.995  0.00  0.00    +0.000 OA
BRANCH  11  13
ATOM     13  C   UNL     1       2.016   3.068  19.281  0.00  0.00    +0.000 C 
BRANCH  13  15
ATOM     14  C   UNL     1       1.518   2.543  21.696  0.00  0.00    +0.000 C 
ATOM     15  C   UNL     1       0.925   2.797  20.317  0.00  0.00    +0.000 C 
ENDBRANCH  13  15
ENDBRANCH  11  13
ENDBRANCH   1  11
BRANCH  10  16
ATOM     16  N   UNL     1       3.412   6.088  17.488  0.00  0.00    +0.000 N 
ATOM     17  H   UNL     1       2.989   5.253  17.054  0.00  0.00    +0.000 HD
BRANCH  16  18
ATOM     18  C   UNL     1       4.822   6.038  17.308  0.00  0.00    +0.000 A 
ATOM     19  C   UNL     1       5.641   7.152  17.560  0.00  0.00    +0.000 A 
ATOM     20  C   UNL     1       7.014   7.113  17.311  0.00  0.00    +0.000 A 
ATOM     21  C   UNL     1       7.600   5.945  16.841  0.00  0.00    +0.000 A 
ATOM     22  C   UNL     1       6.813   4.819  16.611  0.00  0.00    +0.000 A 
ATOM     23  C   UNL     1       5.425   4.854  16.832  0.00  0.00    +0.000 A 
ATOM     24  C   UNL     1       4.606   3.632  16.509  0.00  0.00    +0.000 C 
ENDBRANCH  16  18
ENDBRANCH  10  16
BRANCH   6  25
ATOM     25  C   UNL     1       0.818  11.937  19.327  0.00  0.00    +0.000 C 
BRANCH  25  26
ATOM     26  O   UNL     1       1.037  12.749  18.179  0.00  0.00    +0.000 OA
ATOM     27  H   UNL     1       1.439  12.181  17.500  0.00  0.00    +0.000 HD
ENDBRANCH  25  26
ENDBRANCH   6  25
TORSDOF 7
ENDMDL
MODEL 7
REMARK VINA RESULT:      -6.9      2.268      5.581
REMARK  Name = 
REMARK  9 active torsions:
REMARK  status: ('A' for Active; 'I' for Inactive)
REMARK    1  A    between atoms: C_1  and  C_2
REMARK    2  A    between atoms: C_2  and  C_3
REMARK    3  A    between atoms: C_3  and  C_4
REMARK    4  A    between atoms: C_4  and  C_6
REMARK    5  A    between atoms: C_11  and  C_12
REMARK    6  A    between atoms: C_12  and  O_13
REMARK    7  A    between atoms: C_17  and  N_18
REMARK    8  A    between atoms: N_18  and  C_19
REMARK    9  A    between atoms: C_24  and  C_25
REMARK                            x       y       z     vdW  Elec       q    Type
REMARK                         _______ _______ _______ _____ _____    ______ ____
ROOT
ATOM      1  C   UNL     1       2.204   4.173  19.060  0.00  0.00    +0.000 A 
ATOM      2  C   UNL     1       2.393   3.074  18.237  0.00  0.00    +0.000 A 
ATOM      3  N   UNL     1       3.250   3.029  17.192  0.00  0.00    +0.000 NA
ATOM      4  C   UNL     1       4.034   4.093  16.970  0.00  0.00    +0.000 A 
ATOM      5  C   UNL     1       4.887   4.052  15.872  0.00  0.00    +0.000 A 
ATOM      6  C   UNL     1       5.759   5.102  15.552  0.00  0.00    +0.000 A 
ATOM      7  C   UNL     1       5.836   6.178  16.430  0.00  0.00    +0.000 A 
ATOM      8  C   UNL     1       4.992   6.233  17.540  0.00  0.00    +0.000 A 
ATOM      9  C   UNL     1       4.015   5.237  17.793  0.00  0.00    +0.000 A 
ATOM     10  C   UNL     1       3.020   5.305  18.825  0.00  0.00    +0.000 A 
ENDROOT
BRANCH   1  11
ATOM     11  C   UNL     1       1.161   4.143  20.139  0.00  0.00    +0.000 C 
ATOM     12  O   UNL     1       0.427   5.122  20.292  0.00  0.00    +0.000 OA
BRANCH  11  13
ATOM     13  C   UNL     1       1.053   2.930  21.060  0.00  0.00    +0.000 C 
BRANCH  13  15
ATOM     14  C   UNL     1       3.405   2.090  21.402  0.00  0.00    +0.000 C 
ATOM     15  C   UNL     1       2.231   2.829  22.028  0.00  0.00    +0.000 C 
ENDBRANCH  13  15
ENDBRANCH  11  13
ENDBRANCH   1  11
BRANCH  10  16
ATOM     16  N   UNL     1       2.844   6.497  19.602  0.00  0.00    +0.000 N 
ATOM     17  H   UNL     1       2.611   6.268  20.580  0.00  0.00    +0.000 HD
BRANCH  16  18
ATOM     18  C   UNL     1       2.202   7.716  19.248  0.00  0.00    +0.000 A 
ATOM     19  C   UNL     1       2.294   8.252  17.952  0.00  0.00    +0.000 A 
ATOM     20  C   UNL     1       1.719   9.485  17.635  0.00  0.00    +0.000 A 
ATOM     21  C   UNL     1       1.008  10.186  18.601  0.00  0.00    +0.000 A 
ATOM     22  C   UNL     1       0.879   9.660  19.884  0.00  0.00    +0.000 A 
ATOM     23  C   UNL     1       1.475   8.433  20.223  0.00  0.00    +0.000 A 
ATOM     24  C   UNL     1       1.362   7.935  21.639  0.00  0.00    +0.000 C 
ENDBRANCH  16  18
ENDBRANCH  10  16
BRANCH   6  25
ATOM     25  C   UNL     1       6.635   5.024  14.331  0.00  0.00    +0.000 C 
BRANCH  25  26
ATOM     26  O   UNL     1       7.928   5.563  14.582  0.00  0.00    +0.000 OA
ATOM     27  H   UNL     1       7.824   6.248  15.264  0.00  0.00    +0.000 HD
ENDBRANCH  25  26
ENDBRANCH   6  25
TORSDOF 7
ENDMDL
MODEL 8
REMARK VINA RESULT:      -6.8      1.794      4.625
REMARK  Name = 
REMARK  9 active torsions:
REMARK  status: ('A' for Active; 'I' for Inactive)
REMARK    1  A    between atoms: C_1  and  C_2
REMARK    2  A    between atoms: C_2  and  C_3
REMARK    3  A    between atoms: C_3  and  C_4
REMARK    4  A    between atoms: C_4  and  C_6
REMARK    5  A    between atoms: C_11  and  C_12
REMARK    6  A    between atoms: C_12  and  O_13
REMARK    7  A    between atoms: C_17  and  N_18
REMARK    8  A    between atoms: N_18  and  C_19
REMARK    9  A    between atoms: C_24  and  C_25
REMARK                            x       y       z     vdW  Elec       q    Type
REMARK                         _______ _______ _______ _____ _____    ______ ____
ROOT
ATOM      1  C   UNL     1       4.943   5.667  17.076  0.00  0.00    +0.000 A 
ATOM      2  C   UNL     1       4.838   6.782  16.258  0.00  0.00    +0.000 A 
ATOM      3  N   UNL     1       3.978   7.806  16.456  0.00  0.00    +0.000 NA
ATOM      4  C   UNL     1       3.216   7.791  17.559  0.00  0.00    +0.000 A 
ATOM      5  C   UNL     1       2.309   8.830  17.735  0.00  0.00    +0.000 A 
ATOM      6  C   UNL     1       1.472   8.921  18.856  0.00  0.00    +0.000 A 
ATOM      7  C   UNL     1       1.635   7.985  19.871  0.00  0.00    +0.000 A 
ATOM      8  C   UNL     1       2.544   6.938  19.714  0.00  0.00    +0.000 A 
ATOM      9  C   UNL     1       3.296   6.766  18.524  0.00  0.00    +0.000 A 
ATOM     10  C   UNL     1       4.134   5.638  18.237  0.00  0.00    +0.000 A 
ENDROOT
BRANCH   1  11
ATOM     11  C   UNL     1       5.873   4.546  16.714  0.00  0.00    +0.000 C 
ATOM     12  O   UNL     1       5.404   3.501  16.257  0.00  0.00    +0.000 OA
BRANCH  11  13
ATOM     13  C   UNL     1       7.372   4.691  16.959  0.00  0.00    +0.000 C 
BRANCH  13  15
ATOM     14  C   UNL     1       7.911   6.626  18.484  0.00  0.00    +0.000 C 
ATOM     15  C   UNL     1       7.688   5.123  18.392  0.00  0.00    +0.000 C 
ENDBRANCH  13  15
ENDBRANCH  11  13
ENDBRANCH   1  11
BRANCH  10  16
ATOM     16  N   UNL     1       4.149   4.493  19.099  0.00  0.00    +0.000 N 
ATOM     17  H   UNL     1       4.803   3.776  18.748  0.00  0.00    +0.000 HD
BRANCH  16  18
ATOM     18  C   UNL     1       3.068   3.847  19.759  0.00  0.00    +0.000 A 
ATOM     19  C   UNL     1       2.955   3.836  21.160  0.00  0.00    +0.000 A 
ATOM     20  C   UNL     1       1.928   3.138  21.799  0.00  0.00    +0.000 A 
ATOM     21  C   UNL     1       0.971   2.470  21.045  0.00  0.00    +0.000 A 
ATOM     22  C   UNL     1       1.046   2.492  19.654  0.00  0.00    +0.000 A 
ATOM     23  C   UNL     1       2.090   3.168  19.000  0.00  0.00    +0.000 A 
ATOM     24  C   UNL     1       2.165   3.111  17.497  0.00  0.00    +0.000 C 
ENDBRANCH  16  18
ENDBRANCH  10  16
BRANCH   6  25
ATOM     25  C   UNL     1       0.481  10.047  18.981  0.00  0.00    +0.000 C 
BRANCH  25  26
ATOM     26  O   UNL     1      -0.100  10.371  17.723  0.00  0.00    +0.000 OA
ATOM     27  H   UNL     1      -0.716  11.108  17.874  0.00  0.00    +0.000 HD
ENDBRANCH  25  26
ENDBRANCH   6  25
TORSDOF 7
ENDMDL
MODEL 9
REMARK VINA RESULT:      -6.7      1.523      1.649
REMARK  Name = 
REMARK  9 active torsions:
REMARK  status: ('A' for Active; 'I' for Inactive)
REMARK    1  A    between atoms: C_1  and  C_2
REMARK    2  A    between atoms: C_2  and  C_3
REMARK    3  A    between atoms: C_3  and  C_4
REMARK    4  A    between atoms: C_4  and  C_6
REMARK    5  A    between atoms: C_11  and  C_12
REMARK    6  A    between atoms: C_12  and  O_13
REMARK    7  A    between atoms: C_17  and  N_18
REMARK    8  A    between atoms: N_18  and  C_19
REMARK    9  A    between atoms: C_24  and  C_25
REMARK                            x       y       z     vdW  Elec       q    Type
REMARK                         _______ _______ _______ _____ _____    ______ ____
ROOT
ATOM      1  C   UNL     1       3.082   4.715  19.698  0.00  0.00    +0.000 A 
ATOM      2  C   UNL     1       2.416   4.966  20.888  0.00  0.00    +0.000 A 
ATOM      3  N   UNL     1       1.814   6.134  21.204  0.00  0.00    +0.000 NA
ATOM      4  C   UNL     1       1.788   7.105  20.280  0.00  0.00    +0.000 A 
ATOM      5  C   UNL     1       1.199   8.315  20.628  0.00  0.00    +0.000 A 
ATOM      6  C   UNL     1       1.106   9.394  19.738  0.00  0.00    +0.000 A 
ATOM      7  C   UNL     1       1.534   9.200  18.429  0.00  0.00    +0.000 A 
ATOM      8  C   UNL     1       2.123   7.990  18.061  0.00  0.00    +0.000 A 
ATOM      9  C   UNL     1       2.341   6.944  18.993  0.00  0.00    +0.000 A 
ATOM     10  C   UNL     1       3.070   5.739  18.722  0.00  0.00    +0.000 A 
ENDROOT
BRANCH   1  11
ATOM     11  C   UNL     1       3.792   3.409  19.486  0.00  0.00    +0.000 C 
ATOM     12  O   UNL     1       5.023   3.382  19.525  0.00  0.00    +0.000 OA
BRANCH  11  13
ATOM     13  C   UNL     1       2.989   2.148  19.179  0.00  0.00    +0.000 C 
BRANCH  13  15
ATOM     14  C   UNL     1       0.513   2.423  18.789  0.00  0.00    +0.000 C 
ATOM     15  C   UNL     1       1.891   2.396  18.144  0.00  0.00    +0.000 C 
ENDBRANCH  13  15
ENDBRANCH  11  13
ENDBRANCH   1  11
BRANCH  10  16
ATOM     16  N   UNL     1       3.785   5.572  17.490  0.00  0.00    +0.000 N 
ATOM     17  H   UNL     1       3.519   4.689  17.027  0.00  0.00    +0.000 HD
BRANCH  16  18
ATOM     18  C   UNL     1       5.145   5.858  17.191  0.00  0.00    +0.000 A 
ATOM     19  C   UNL     1       5.770   7.034  17.641  0.00  0.00    +0.000 A 
ATOM     20  C   UNL     1       7.085   7.338  17.281  0.00  0.00    +0.000 A 
ATOM     21  C   UNL     1       7.812   6.452  16.498  0.00  0.00    +0.000 A 
ATOM     22  C   UNL     1       7.222   5.266  16.065  0.00  0.00    +0.000 A 
ATOM     23  C   UNL     1       5.891   4.960  16.397  0.00  0.00    +0.000 A 
ATOM     24  C   UNL     1       5.277   3.698  15.854  0.00  0.00    +0.000 C 
ENDBRANCH  16  18
ENDBRANCH  10  16
BRANCH   6  25
ATOM     25  C   UNL     1       0.491  10.696  20.175  0.00  0.00    +0.000 C 
BRANCH  25  26
ATOM     26  O   UNL     1       1.005  11.118  21.434  0.00  0.00    +0.000 OA
ATOM     27  H   UNL     1       0.294  11.002  22.086  0.00  0.00    +0.000 HD
ENDBRANCH  25  26
ENDBRANCH   6  25
TORSDOF 7
ENDMDL
