MODEL 1
REMARK VINA RESULT:      -7.4      0.000      0.000
REMARK  Name = 
REMARK  10 active torsions:
REMARK  status: ('A' for Active; 'I' for Inactive)
REMARK    1  A    between atoms: C_1  and  C_2
REMARK    2  A    between atoms: C_2  and  C_3
REMARK    3  A    between atoms: C_3  and  C_4
REMARK    4  A    between atoms: C_4  and  C_5
REMARK    5  A    between atoms: C_8  and  S_9
REMARK    6  A    between atoms: S_9  and  N_12
REMARK    7  A    between atoms: N_12  and  C_13
REMARK    8  A    between atoms: C_13  and  C_14
REMARK    9  A    between atoms: C_14  and  C_15
REMARK   10  A    between atoms: C_15  and  N_16
REMARK                            x       y       z     vdW  Elec       q    Type
REMARK                         _______ _______ _______ _____ _____    ______ ____
ROOT
ATOM      1  S   UNL     1       7.133   5.175  16.407  0.00  0.00    +0.000 S 
ATOM      2  O   UNL     1       8.052   4.224  16.956  0.00  0.00    +0.000 OA
ATOM      3  O   UNL     1       7.453   6.588  16.311  0.00  0.00    +0.000 OA
ENDROOT
BRANCH   1   7
ATOM      4  C   UNL     1       5.780   3.633  12.341  0.00  0.00    +0.000 A 
ATOM      5  C   UNL     1       4.982   3.471  13.481  0.00  0.00    +0.000 A 
ATOM      6  C   UNL     1       5.381   4.025  14.690  0.00  0.00    +0.000 A 
ATOM      7  C   UNL     1       6.642   4.614  14.806  0.00  0.00    +0.000 A 
ATOM      8  C   UNL     1       7.472   4.743  13.690  0.00  0.00    +0.000 A 
ATOM      9  C   UNL     1       7.035   4.246  12.457  0.00  0.00    +0.000 A 
BRANCH   4  10
ATOM     10  C   UNL     1       5.216   3.305  10.980  0.00  0.00    +0.000 C 
BRANCH  10  11
ATOM     11  C   UNL     1       3.687   3.282  11.080  0.00  0.00    +0.000 C 
BRANCH  11  13
ATOM     12  C   UNL     1       2.604   4.683   9.319  0.00  0.00    +0.000 C 
ATOM     13  C   UNL     1       3.035   3.280   9.707  0.00  0.00    +0.000 C 
ENDBRANCH  11  13
ENDBRANCH  10  11
ENDBRANCH   4  10
ENDBRANCH   1   7
BRANCH   1  14
ATOM     14  N   UNL     1       5.715   5.091  17.382  0.00  0.00    +0.000 NA
ATOM     15  H   UNL     1       5.325   4.143  17.305  0.00  0.00    +0.000 HD
BRANCH  14  16
ATOM     16  C   UNL     1       5.934   5.529  18.773  0.00  0.00    +0.000 C 
BRANCH  16  17
ATOM     17  C   UNL     1       4.682   5.319  19.602  0.00  0.00    +0.000 C 
BRANCH  17  18
ATOM     18  C   UNL     1       3.430   5.299  18.720  0.00  0.00    +0.000 C 
BRANCH  18  19
ATOM     19  N   UNL     1       2.512   4.238  19.108  0.00  0.00    +0.000 N 
ATOM     20  C   UNL     1       1.816   4.240  20.370  0.00  0.00    +0.000 C 
ATOM     21  C   UNL     1       1.063   2.925  20.362  0.00  0.00    +0.000 C 
ATOM     22  C   UNL     1       0.763   2.699  18.888  0.00  0.00    +0.000 C 
ATOM     23  C   UNL     1       1.945   3.342  18.206  0.00  0.00    +0.000 C 
ATOM     24  O   UNL     1       2.283   3.163  17.045  0.00  0.00    +0.000 OA
ENDBRANCH  18  19
ENDBRANCH  17  18
ENDBRANCH  16  17
ENDBRANCH  14  16
ENDBRANCH   1  14
TORSDOF 9
ENDMDL
MODEL 2
REMARK VINA RESULT:      -7.4      3.583      6.689
REMARK  Name = 
REMARK  10 active torsions:
REMARK  status: ('A' for Active; 'I' for Inactive)
REMARK    1  A    between atoms: C_1  and  C_2
REMARK    2  A    between atoms: C_2  and  C_3
REMARK    3  A    between atoms: C_3  and  C_4
REMARK    4  A    between atoms: C_4  and  C_5
REMARK    5  A    between atoms: C_8  and  S_9
REMARK    6  A    between atoms: S_9  and  N_12
REMARK    7  A    between atoms: N_12  and  C_13
REMARK    8  A    between atoms: C_13  and  C_14
REMARK    9  A    between atoms: C_14  and  C_15
REMARK   10  A    between atoms: C_15  and  N_16
REMARK                            x       y       z     vdW  Elec       q    Type
REMARK                         _______ _______ _______ _____ _____    ______ ____
ROOT
ATOM      1  S   UNL     1       5.829   4.927  17.938  0.00  0.00    +0.000 S 
ATOM      2  O   UNL     1       6.495   5.457  16.787  0.00  0.00    +0.000 OA
ATOM      3  O   UNL     1       6.541   4.606  19.162  0.00  0.00    +0.000 OA
ENDROOT
BRANCH   1   7
ATOM      4  C   UNL     1       2.318   7.595  19.077  0.00  0.00    +0.000 A 
ATOM      5  C   UNL     1       2.662   6.479  19.850  0.00  0.00    +0.000 A 
ATOM      6  C   UNL     1       3.788   5.733  19.527  0.00  0.00    +0.000 A 
ATOM      7  C   UNL     1       4.490   6.003  18.351  0.00  0.00    +0.000 A 
ATOM      8  C   UNL     1       4.133   7.084  17.542  0.00  0.00    +0.000 A 
ATOM      9  C   UNL     1       3.040   7.876  17.909  0.00  0.00    +0.000 A 
BRANCH   4  10
ATOM     10  C   UNL     1       1.292   8.574  19.592  0.00  0.00    +0.000 C 
BRANCH  10  11
ATOM     11  C   UNL     1       0.905   8.169  21.019  0.00  0.00    +0.000 C 
BRANCH  11  13
ATOM     12  C   UNL     1       0.125   9.449  23.016  0.00  0.00    +0.000 C 
ATOM     13  C   UNL     1       1.258   9.253  22.024  0.00  0.00    +0.000 C 
ENDBRANCH  11  13
ENDBRANCH  10  11
ENDBRANCH   4  10
ENDBRANCH   1   7
BRANCH   1  14
ATOM     14  N   UNL     1       5.097   3.452  17.432  0.00  0.00    +0.000 NA
ATOM     15  H   UNL     1       4.793   2.938  18.268  0.00  0.00    +0.000 HD
BRANCH  14  16
ATOM     16  C   UNL     1       4.029   3.640  16.432  0.00  0.00    +0.000 C 
BRANCH  16  17
ATOM     17  C   UNL     1       2.712   3.098  16.950  0.00  0.00    +0.000 C 
BRANCH  17  18
ATOM     18  C   UNL     1       2.936   2.018  18.013  0.00  0.00    +0.000 C 
BRANCH  18  19
ATOM     19  N   UNL     1       2.568   2.484  19.342  0.00  0.00    +0.000 N 
ATOM     20  C   UNL     1       1.197   2.681  19.741  0.00  0.00    +0.000 C 
ATOM     21  C   UNL     1       1.312   3.241  21.144  0.00  0.00    +0.000 C 
ATOM     22  C   UNL     1       2.580   2.593  21.679  0.00  0.00    +0.000 C 
ATOM     23  C   UNL     1       3.424   2.439  20.439  0.00  0.00    +0.000 C 
ATOM     24  O   UNL     1       4.627   2.228  20.417  0.00  0.00    +0.000 OA
ENDBRANCH  18  19
ENDBRANCH  17  18
ENDBRANCH  16  17
ENDBRANCH  14  16
ENDBRANCH   1  14
TORSDOF 9
ENDMDL
MODEL 3
REMARK VINA RESULT:      -7.3      4.610      8.715
REMARK  Name = 
REMARK  10 active torsions:
REMARK  status: ('A' for Active; 'I' for Inactive)
REMARK    1  A    between atoms: C_1  and  C_2
REMARK    2  A    between atoms: C_2  and  C_3
REMARK    3  A    between atoms: C_3  and  C_4
REMARK    4  A    between atoms: C_4  and  C_5
REMARK    5  A    between atoms: C_8  and  S_9
REMARK    6  A    between atoms: S_9  and  N_12
REMARK    7  A    between atoms: N_12  and  C_13
REMARK    8  A    between atoms: C_13  and  C_14
REMARK    9  A    between atoms: C_14  and  C_15
REMARK   10  A    between atoms: C_15  and  N_16
REMARK                            x       y       z     vdW  Elec       q    Type
REMARK                         _______ _______ _______ _____ _____    ______ ____
ROOT
ATOM      1  S   UNL     1       6.760   6.039  16.803  0.00  0.00    +0.000 S 
ATOM      2  O   UNL     1       7.826   5.325  17.438  0.00  0.00    +0.000 OA
ATOM      3  O   UNL     1       6.393   5.805  15.418  0.00  0.00    +0.000 OA
ENDROOT
BRANCH   1   7
ATOM      4  C   UNL     1       3.049   5.452  19.378  0.00  0.00    +0.000 A 
ATOM      5  C   UNL     1       4.186   4.652  19.550  0.00  0.00    +0.000 A 
ATOM      6  C   UNL     1       5.332   4.908  18.809  0.00  0.00    +0.000 A 
ATOM      7  C   UNL     1       5.306   5.864  17.791  0.00  0.00    +0.000 A 
ATOM      8  C   UNL     1       4.165   6.640  17.574  0.00  0.00    +0.000 A 
ATOM      9  C   UNL     1       3.036   6.426  18.371  0.00  0.00    +0.000 A 
BRANCH   4  10
ATOM     10  C   UNL     1       1.923   5.377  20.380  0.00  0.00    +0.000 C 
BRANCH  10  11
ATOM     11  C   UNL     1       2.174   4.181  21.305  0.00  0.00    +0.000 C 
BRANCH  11  13
ATOM     12  C   UNL     1       0.881   2.897  19.597  0.00  0.00    +0.000 C 
ATOM     13  C   UNL     1       1.155   3.075  21.080  0.00  0.00    +0.000 C 
ENDBRANCH  11  13
ENDBRANCH  10  11
ENDBRANCH   4  10
ENDBRANCH   1   7
BRANCH   1  14
ATOM     14  N   UNL     1       7.181   7.707  16.891  0.00  0.00    +0.000 NA
ATOM     15  H   UNL     1       6.320   8.263  16.824  0.00  0.00    +0.000 HD
BRANCH  14  16
ATOM     16  C   UNL     1       8.010   8.041  18.064  0.00  0.00    +0.000 C 
BRANCH  16  17
ATOM     17  C   UNL     1       8.382   9.510  18.054  0.00  0.00    +0.000 C 
BRANCH  17  18
ATOM     18  C   UNL     1       9.166   9.893  19.313  0.00  0.00    +0.000 C 
BRANCH  18  19
ATOM     19  N   UNL     1      10.114  10.967  19.054  0.00  0.00    +0.000 N 
ATOM     20  C   UNL     1      10.458  11.389  17.720  0.00  0.00    +0.000 C 
ATOM     21  C   UNL     1      11.519  12.448  17.945  0.00  0.00    +0.000 C 
ATOM     22  C   UNL     1      11.122  13.066  19.278  0.00  0.00    +0.000 C 
ATOM     23  C   UNL     1      10.493  11.906  20.008  0.00  0.00    +0.000 C 
ATOM     24  O   UNL     1      10.283  11.851  21.211  0.00  0.00    +0.000 OA
ENDBRANCH  18  19
ENDBRANCH  17  18
ENDBRANCH  16  17
ENDBRANCH  14  16
ENDBRANCH   1  14
TORSDOF 9
ENDMDL
MODEL 4
REMARK VINA RESULT:      -7.2      1.141      1.422
REMARK  Name = 
REMARK  10 active torsions:
REMARK  status: ('A' for Active; 'I' for Inactive)
REMARK    1  A    between atoms: C_1  and  C_2
REMARK    2  A    between atoms: C_2  and  C_3
REMARK    3  A    between atoms: C_3  and  C_4
REMARK    4  A    between atoms: C_4  and  C_5
REMARK    5  A    between atoms: C_8  and  S_9
REMARK    6  A    between atoms: S_9  and  N_12
REMARK    7  A    between atoms: N_12  and  C_13
REMARK    8  A    between atoms: C_13  and  C_14
REMARK    9  A    between atoms: C_14  and  C_15
REMARK   10  A    between atoms: C_15  and  N_16
REMARK                            x       y       z     vdW  Elec       q    Type
REMARK                         _______ _______ _______ _____ _____    ______ ____
ROOT
ATOM      1  S   UNL     1       7.291   5.441  16.474  0.00  0.00    +0.000 S 
ATOM      2  O   UNL     1       8.007   4.443  17.207  0.00  0.00    +0.000 OA
ATOM      3  O   UNL     1       7.875   6.732  16.157  0.00  0.00    +0.000 OA
ENDROOT
BRANCH   1   7
ATOM      4  C   UNL     1       5.721   3.483  12.673  0.00  0.00    +0.000 A 
ATOM      5  C   UNL     1       5.035   3.363  13.889  0.00  0.00    +0.000 A 
ATOM      6  C   UNL     1       5.491   4.040  15.012  0.00  0.00    +0.000 A 
ATOM      7  C   UNL     1       6.711   4.719  14.970  0.00  0.00    +0.000 A 
ATOM      8  C   UNL     1       7.433   4.810  13.778  0.00  0.00    +0.000 A 
ATOM      9  C   UNL     1       6.934   4.185  12.631  0.00  0.00    +0.000 A 
BRANCH   4  10
ATOM     10  C   UNL     1       5.072   3.006  11.397  0.00  0.00    +0.000 C 
BRANCH  10  11
ATOM     11  C   UNL     1       3.804   3.833  11.159  0.00  0.00    +0.000 C 
BRANCH  11  13
ATOM     12  C   UNL     1       2.437   4.748   9.279  0.00  0.00    +0.000 C 
ATOM     13  C   UNL     1       3.189   3.536   9.801  0.00  0.00    +0.000 C 
ENDBRANCH  11  13
ENDBRANCH  10  11
ENDBRANCH   4  10
ENDBRANCH   1   7
BRANCH   1  14
ATOM     14  N   UNL     1       5.877   5.791  17.394  0.00  0.00    +0.000 NA
ATOM     15  H   UNL     1       5.061   5.429  16.885  0.00  0.00    +0.000 HD
BRANCH  14  16
ATOM     16  C   UNL     1       5.957   5.325  18.791  0.00  0.00    +0.000 C 
BRANCH  16  17
ATOM     17  C   UNL     1       4.571   5.072  19.350  0.00  0.00    +0.000 C 
BRANCH  17  18
ATOM     18  C   UNL     1       4.277   3.572  19.446  0.00  0.00    +0.000 C 
BRANCH  18  19
ATOM     19  N   UNL     1       2.846   3.302  19.457  0.00  0.00    +0.000 N 
ATOM     20  C   UNL     1       2.210   2.464  18.473  0.00  0.00    +0.000 C 
ATOM     21  C   UNL     1       0.740   2.546  18.833  0.00  0.00    +0.000 C 
ATOM     22  C   UNL     1       0.757   2.732  20.343  0.00  0.00    +0.000 C 
ATOM     23  C   UNL     1       2.033   3.504  20.569  0.00  0.00    +0.000 C 
ATOM     24  O   UNL     1       2.324   4.120  21.583  0.00  0.00    +0.000 OA
ENDBRANCH  18  19
ENDBRANCH  17  18
ENDBRANCH  16  17
ENDBRANCH  14  16
ENDBRANCH   1  14
TORSDOF 9
ENDMDL
MODEL 5
REMARK VINA RESULT:      -7.2      4.366      8.158
REMARK  Name = 
REMARK  10 active torsions:
REMARK  status: ('A' for Active; 'I' for Inactive)
REMARK    1  A    between atoms: C_1  and  C_2
REMARK    2  A    between atoms: C_2  and  C_3
REMARK    3  A    between atoms: C_3  and  C_4
REMARK    4  A    between atoms: C_4  and  C_5
REMARK    5  A    between atoms: C_8  and  S_9
REMARK    6  A    between atoms: S_9  and  N_12
REMARK    7  A    between atoms: N_12  and  C_13
REMARK    8  A    between atoms: C_13  and  C_14
REMARK    9  A    between atoms: C_14  and  C_15
REMARK   10  A    between atoms: C_15  and  N_16
REMARK                            x       y       z     vdW  Elec       q    Type
REMARK                         _______ _______ _______ _____ _____    ______ ____
ROOT
ATOM      1  S   UNL     1       7.080   5.297  17.310  0.00  0.00    +0.000 S 
ATOM      2  O   UNL     1       8.170   4.535  17.840  0.00  0.00    +0.000 OA
ATOM      3  O   UNL     1       7.036   5.714  15.920  0.00  0.00    +0.000 OA
ENDROOT
BRANCH   1   7
ATOM      4  C   UNL     1       3.272   3.024  18.346  0.00  0.00    +0.000 A 
ATOM      5  C   UNL     1       4.325   3.133  19.264  0.00  0.00    +0.000 A 
ATOM      6  C   UNL     1       5.438   3.903  18.953  0.00  0.00    +0.000 A 
ATOM      7  C   UNL     1       5.576   4.445  17.673  0.00  0.00    +0.000 A 
ATOM      8  C   UNL     1       4.557   4.306  16.729  0.00  0.00    +0.000 A 
ATOM      9  C   UNL     1       3.406   3.589  17.071  0.00  0.00    +0.000 A 
BRANCH   4  10
ATOM     10  C   UNL     1       1.948   2.451  18.791  0.00  0.00    +0.000 C 
BRANCH  10  11
ATOM     11  C   UNL     1       1.028   3.610  19.192  0.00  0.00    +0.000 C 
BRANCH  11  13
ATOM     12  C   UNL     1       1.794   5.536  20.586  0.00  0.00    +0.000 C 
ATOM     13  C   UNL     1       1.320   4.093  20.604  0.00  0.00    +0.000 C 
ENDBRANCH  11  13
ENDBRANCH  10  11
ENDBRANCH   4  10
ENDBRANCH   1   7
BRANCH   1  14
ATOM     14  N   UNL     1       7.021   6.753  18.228  0.00  0.00    +0.000 NA
ATOM     15  H   UNL     1       7.370   6.554  19.174  0.00  0.00    +0.000 HD
BRANCH  14  16
ATOM     16  C   UNL     1       7.699   7.887  17.573  0.00  0.00    +0.000 C 
BRANCH  16  17
ATOM     17  C   UNL     1       8.611   8.600  18.551  0.00  0.00    +0.000 C 
BRANCH  17  18
ATOM     18  C   UNL     1       8.576  10.117  18.337  0.00  0.00    +0.000 C 
BRANCH  18  19
ATOM     19  N   UNL     1       9.791  10.759  18.817  0.00  0.00    +0.000 N 
ATOM     20  C   UNL     1      10.747  11.367  17.928  0.00  0.00    +0.000 C 
ATOM     21  C   UNL     1      11.859  11.816  18.854  0.00  0.00    +0.000 C 
ATOM     22  C   UNL     1      11.129  12.140  20.149  0.00  0.00    +0.000 C 
ATOM     23  C   UNL     1       9.978  11.166  20.135  0.00  0.00    +0.000 C 
ATOM     24  O   UNL     1       9.288  10.863  21.097  0.00  0.00    +0.000 OA
ENDBRANCH  18  19
ENDBRANCH  17  18
ENDBRANCH  16  17
ENDBRANCH  14  16
ENDBRANCH   1  14
TORSDOF 9
ENDMDL
MODEL 6
REMARK VINA RESULT:      -7.2      3.596      6.068
REMARK  Name = 
REMARK  10 active torsions:
REMARK  status: ('A' for Active; 'I' for Inactive)
REMARK    1  A    between atoms: C_1  and  C_2
REMARK    2  A    between atoms: C_2  and  C_3
REMARK    3  A    between atoms: C_3  and  C_4
REMARK    4  A    between atoms: C_4  and  C_5
REMARK    5  A    between atoms: C_8  and  S_9
REMARK    6  A    between atoms: S_9  and  N_12
REMARK    7  A    between atoms: N_12  and  C_13
REMARK    8  A    between atoms: C_13  and  C_14
REMARK    9  A    between atoms: C_14  and  C_15
REMARK   10  A    between atoms: C_15  and  N_16
REMARK                            x       y       z     vdW  Elec       q    Type
REMARK                         _______ _______ _______ _____ _____    ______ ____
ROOT
ATOM      1  S   UNL     1       6.018   5.072  18.278  0.00  0.00    +0.000 S 
ATOM      2  O   UNL     1       6.876   5.479  17.206  0.00  0.00    +0.000 OA
ATOM      3  O   UNL     1       6.498   4.943  19.642  0.00  0.00    +0.000 OA
ENDROOT
BRANCH   1   7
ATOM      4  C   UNL     1       2.450   7.902  18.249  0.00  0.00    +0.000 A 
ATOM      5  C   UNL     1       3.494   8.040  17.326  0.00  0.00    +0.000 A 
ATOM      6  C   UNL     1       4.527   7.113  17.303  0.00  0.00    +0.000 A 
ATOM      7  C   UNL     1       4.604   6.130  18.292  0.00  0.00    +0.000 A 
ATOM      8  C   UNL     1       3.596   6.006  19.251  0.00  0.00    +0.000 A 
ATOM      9  C   UNL     1       2.520   6.899  19.226  0.00  0.00    +0.000 A 
BRANCH   4  10
ATOM     10  C   UNL     1       1.189   8.714  18.082  0.00  0.00    +0.000 C 
BRANCH  10  11
ATOM     11  C   UNL     1       1.554  10.201  18.167  0.00  0.00    +0.000 C 
BRANCH  11  13
ATOM     12  C   UNL     1      -0.068  10.072  20.062  0.00  0.00    +0.000 C 
ATOM     13  C   UNL     1       0.555  10.975  19.012  0.00  0.00    +0.000 C 
ENDBRANCH  11  13
ENDBRANCH  10  11
ENDBRANCH   4  10
ENDBRANCH   1   7
BRANCH   1  14
ATOM     14  N   UNL     1       5.424   3.512  17.851  0.00  0.00    +0.000 NA
ATOM     15  H   UNL     1       4.996   3.089  18.683  0.00  0.00    +0.000 HD
BRANCH  14  16
ATOM     16  C   UNL     1       4.539   3.525  16.671  0.00  0.00    +0.000 C 
BRANCH  16  17
ATOM     17  C   UNL     1       3.117   3.184  17.069  0.00  0.00    +0.000 C 
BRANCH  17  18
ATOM     18  C   UNL     1       3.075   1.950  17.976  0.00  0.00    +0.000 C 
BRANCH  18  19
ATOM     19  N   UNL     1       2.473   2.249  19.267  0.00  0.00    +0.000 N 
ATOM     20  C   UNL     1       3.256   2.622  20.417  0.00  0.00    +0.000 C 
ATOM     21  C   UNL     1       2.226   2.747  21.523  0.00  0.00    +0.000 C 
ATOM     22  C   UNL     1       0.975   3.206  20.788  0.00  0.00    +0.000 C 
ATOM     23  C   UNL     1       1.126   2.556  19.436  0.00  0.00    +0.000 C 
ATOM     24  O   UNL     1       0.235   2.408  18.613  0.00  0.00    +0.000 OA
ENDBRANCH  18  19
ENDBRANCH  17  18
ENDBRANCH  16  17
ENDBRANCH  14  16
ENDBRANCH   1  14
TORSDOF 9
ENDMDL
MODEL 7
REMARK VINA RESULT:      -7.1      4.446      8.395
REMARK  Name = 
REMARK  10 active torsions:
REMARK  status: ('A' for Active; 'I' for Inactive)
REMARK    1  A    between atoms: C_1  and  C_2
REMARK    2  A    between atoms: C_2  and  C_3
REMARK    3  A    between atoms: C_3  and  C_4
REMARK    4  A    between atoms: C_4  and  C_5
REMARK    5  A    between atoms: C_8  and  S_9
REMARK    6  A    between atoms: S_9  and  N_12
REMARK    7  A    between atoms: N_12  and  C_13
REMARK    8  A    between atoms: C_13  and  C_14
REMARK    9  A    between atoms: C_14  and  C_15
REMARK   10  A    between atoms: C_15  and  N_16
REMARK                            x       y       z     vdW  Elec       q    Type
REMARK                         _______ _______ _______ _____ _____    ______ ____
ROOT
ATOM      1  S   UNL     1       6.646   5.798  17.069  0.00  0.00    +0.000 S 
ATOM      2  O   UNL     1       7.328   4.555  16.867  0.00  0.00    +0.000 OA
ATOM      3  O   UNL     1       6.290   6.669  15.963  0.00  0.00    +0.000 OA
ENDROOT
BRANCH   1   7
ATOM      4  C   UNL     1       2.815   5.100  19.430  0.00  0.00    +0.000 A 
ATOM      5  C   UNL     1       2.792   5.723  18.176  0.00  0.00    +0.000 A 
ATOM      6  C   UNL     1       3.963   5.847  17.441  0.00  0.00    +0.000 A 
ATOM      7  C   UNL     1       5.186   5.485  18.012  0.00  0.00    +0.000 A 
ATOM      8  C   UNL     1       5.234   4.906  19.281  0.00  0.00    +0.000 A 
ATOM      9  C   UNL     1       4.042   4.718  19.989  0.00  0.00    +0.000 A 
BRANCH   4  10
ATOM     10  C   UNL     1       1.519   4.693  20.088  0.00  0.00    +0.000 C 
BRANCH  10  11
ATOM     11  C   UNL     1       1.738   3.360  20.811  0.00  0.00    +0.000 C 
BRANCH  11  13
ATOM     12  C   UNL     1       0.692   2.306  18.802  0.00  0.00    +0.000 C 
ATOM     13  C   UNL     1       1.802   2.197  19.833  0.00  0.00    +0.000 C 
ENDBRANCH  11  13
ENDBRANCH  10  11
ENDBRANCH   4  10
ENDBRANCH   1   7
BRANCH   1  14
ATOM     14  N   UNL     1       7.663   6.742  18.089  0.00  0.00    +0.000 NA
ATOM     15  H   UNL     1       8.541   6.229  18.236  0.00  0.00    +0.000 HD
BRANCH  14  16
ATOM     16  C   UNL     1       7.858   8.122  17.607  0.00  0.00    +0.000 C 
BRANCH  16  17
ATOM     17  C   UNL     1       8.616   8.943  18.631  0.00  0.00    +0.000 C 
BRANCH  17  18
ATOM     18  C   UNL     1       8.934  10.343  18.094  0.00  0.00    +0.000 C 
BRANCH  18  19
ATOM     19  N   UNL     1       9.690  11.131  19.056  0.00  0.00    +0.000 N 
ATOM     20  C   UNL     1       9.388  11.129  20.465  0.00  0.00    +0.000 C 
ATOM     21  C   UNL     1      10.361  12.140  21.039  0.00  0.00    +0.000 C 
ATOM     22  C   UNL     1      11.571  12.021  20.125  0.00  0.00    +0.000 C 
ATOM     23  C   UNL     1      10.952  11.657  18.799  0.00  0.00    +0.000 C 
ATOM     24  O   UNL     1      11.502  11.735  17.710  0.00  0.00    +0.000 OA
ENDBRANCH  18  19
ENDBRANCH  17  18
ENDBRANCH  16  17
ENDBRANCH  14  16
ENDBRANCH   1  14
TORSDOF 9
ENDMDL
MODEL 8
REMARK VINA RESULT:      -7.1      4.347      8.164
REMARK  Name = 
REMARK  10 active torsions:
REMARK  status: ('A' for Active; 'I' for Inactive)
REMARK    1  A    between atoms: C_1  and  C_2
REMARK    2  A    between atoms: C_2  and  C_3
REMARK    3  A    between atoms: C_3  and  C_4
REMARK    4  A    between atoms: C_4  and  C_5
REMARK    5  A    between atoms: C_8  and  S_9
REMARK    6  A    between atoms: S_9  and  N_12
REMARK    7  A    between atoms: N_12  and  C_13
REMARK    8  A    between atoms: C_13  and  C_14
REMARK    9  A    between atoms: C_14  and  C_15
REMARK   10  A    between atoms: C_15  and  N_16
REMARK                            x       y       z     vdW  Elec       q    Type
REMARK                         _______ _______ _______ _____ _____    ______ ____
ROOT
ATOM      1  S   UNL     1       6.747   5.868  16.695  0.00  0.00    +0.000 S 
ATOM      2  O   UNL     1       7.754   5.231  17.489  0.00  0.00    +0.000 OA
ATOM      3  O   UNL     1       6.735   5.776  15.246  0.00  0.00    +0.000 OA
ENDROOT
BRANCH   1   7
ATOM      4  C   UNL     1       2.643   4.482  18.101  0.00  0.00    +0.000 A 
ATOM      5  C   UNL     1       3.329   3.805  17.084  0.00  0.00    +0.000 A 
ATOM      6  C   UNL     1       4.614   4.199  16.735  0.00  0.00    +0.000 A 
ATOM      7  C   UNL     1       5.164   5.356  17.289  0.00  0.00    +0.000 A 
ATOM      8  C   UNL     1       4.475   6.071  18.270  0.00  0.00    +0.000 A 
ATOM      9  C   UNL     1       3.209   5.630  18.671  0.00  0.00    +0.000 A 
BRANCH   4  10
ATOM     10  C   UNL     1       1.390   3.879  18.688  0.00  0.00    +0.000 C 
BRANCH  10  11
ATOM     11  C   UNL     1       1.243   4.372  20.132  0.00  0.00    +0.000 C 
BRANCH  11  13
ATOM     12  C   UNL     1       2.727   2.682  21.218  0.00  0.00    +0.000 C 
ATOM     13  C   UNL     1       1.312   3.223  21.125  0.00  0.00    +0.000 C 
ENDBRANCH  11  13
ENDBRANCH  10  11
ENDBRANCH   4  10
ENDBRANCH   1   7
BRANCH   1  14
ATOM     14  N   UNL     1       6.851   7.551  17.048  0.00  0.00    +0.000 NA
ATOM     15  H   UNL     1       5.946   7.861  17.421  0.00  0.00    +0.000 HD
BRANCH  14  16
ATOM     16  C   UNL     1       7.997   7.899  17.908  0.00  0.00    +0.000 C 
BRANCH  16  17
ATOM     17  C   UNL     1       8.066   9.398  18.124  0.00  0.00    +0.000 C 
BRANCH  17  18
ATOM     18  C   UNL     1       9.338   9.791  18.882  0.00  0.00    +0.000 C 
BRANCH  18  19
ATOM     19  N   UNL     1       9.204  11.091  19.524  0.00  0.00    +0.000 N 
ATOM     20  C   UNL     1       9.286  11.259  20.953  0.00  0.00    +0.000 C 
ATOM     21  C   UNL     1       9.008  12.735  21.153  0.00  0.00    +0.000 C 
ATOM     22  C   UNL     1       9.565  13.373  19.889  0.00  0.00    +0.000 C 
ATOM     23  C   UNL     1       9.347  12.301  18.852  0.00  0.00    +0.000 C 
ATOM     24  O   UNL     1       9.379  12.463  17.641  0.00  0.00    +0.000 OA
ENDBRANCH  18  19
ENDBRANCH  17  18
ENDBRANCH  16  17
ENDBRANCH  14  16
ENDBRANCH   1  14
TORSDOF 9
ENDMDL
MODEL 9
REMARK VINA RESULT:      -7.1      1.297      1.643
REMARK  Name = 
REMARK  10 active torsions:
REMARK  status: ('A' for Active; 'I' for Inactive)
REMARK    1  A    between atoms: C_1  and  C_2
REMARK    2  A    between atoms: C_2  and  C_3
REMARK    3  A    between atoms: C_3  and  C_4
REMARK    4  A    between atoms: C_4  and  C_5
REMARK    5  A    between atoms: C_8  and  S_9
REMARK    6  A    between atoms: S_9  and  N_12
REMARK    7  A    between atoms: N_12  and  C_13
REMARK    8  A    between atoms: C_13  and  C_14
REMARK    9  A    between atoms: C_14  and  C_15
REMARK   10  A    between atoms: C_15  and  N_16
REMARK                            x       y       z     vdW  Elec       q    Type
REMARK                         _______ _______ _______ _____ _____    ______ ____
ROOT
ATOM      1  S   UNL     1       6.278   6.582  17.114  0.00  0.00    +0.000 S 
ATOM      2  O   UNL     1       7.496   7.334  17.059  0.00  0.00    +0.000 OA
ATOM      3  O   UNL     1       4.983   7.222  17.262  0.00  0.00    +0.000 OA
ENDROOT
BRANCH   1   7
ATOM      4  C   UNL     1       6.015   3.778  13.535  0.00  0.00    +0.000 A 
ATOM      5  C   UNL     1       5.020   3.791  14.522  0.00  0.00    +0.000 A 
ATOM      6  C   UNL     1       5.084   4.715  15.556  0.00  0.00    +0.000 A 
ATOM      7  C   UNL     1       6.210   5.529  15.698  0.00  0.00    +0.000 A 
ATOM      8  C   UNL     1       7.234   5.496  14.749  0.00  0.00    +0.000 A 
ATOM      9  C   UNL     1       7.132   4.613  13.669  0.00  0.00    +0.000 A 
BRANCH   4  10
ATOM     10  C   UNL     1       5.796   2.997  12.263  0.00  0.00    +0.000 C 
BRANCH  10  11
ATOM     11  C   UNL     1       4.955   3.850  11.307  0.00  0.00    +0.000 C 
BRANCH  11  13
ATOM     12  C   UNL     1       2.998   3.836   9.755  0.00  0.00    +0.000 C 
ATOM     13  C   UNL     1       3.639   3.171  10.961  0.00  0.00    +0.000 C 
ENDBRANCH  11  13
ENDBRANCH  10  11
ENDBRANCH   4  10
ENDBRANCH   1   7
BRANCH   1  14
ATOM     14  N   UNL     1       6.427   5.528  18.468  0.00  0.00    +0.000 NA
ATOM     15  H   UNL     1       7.021   5.984  19.171  0.00  0.00    +0.000 HD
BRANCH  14  16
ATOM     16  C   UNL     1       5.129   5.069  18.998  0.00  0.00    +0.000 C 
BRANCH  16  17
ATOM     17  C   UNL     1       5.132   3.566  19.190  0.00  0.00    +0.000 C 
BRANCH  17  18
ATOM     18  C   UNL     1       3.908   2.920  18.534  0.00  0.00    +0.000 C 
BRANCH  18  19
ATOM     19  N   UNL     1       2.713   3.072  19.352  0.00  0.00    +0.000 N 
ATOM     20  C   UNL     1       2.683   2.724  20.749  0.00  0.00    +0.000 C 
ATOM     21  C   UNL     1       1.241   2.966  21.145  0.00  0.00    +0.000 C 
ATOM     22  C   UNL     1       0.815   4.113  20.239  0.00  0.00    +0.000 C 
ATOM     23  C   UNL     1       1.633   3.874  18.995  0.00  0.00    +0.000 C 
ATOM     24  O   UNL     1       1.423   4.370  17.898  0.00  0.00    +0.000 OA
ENDBRANCH  18  19
ENDBRANCH  17  18
ENDBRANCH  16  17
ENDBRANCH  14  16
ENDBRANCH   1  14
TORSDOF 9
ENDMDL
