MODEL 1
REMARK VINA RESULT:      -9.2      0.000      0.000
REMARK  Name = 
REMARK  5 active torsions:
REMARK  status: ('A' for Active; 'I' for Inactive)
REMARK    1  A    between atoms: C_2  and  C_3
REMARK    2  A    between atoms: C_3  and  C_4
REMARK    3  A    between atoms: C_7  and  O_8
REMARK    4  A    between atoms: N_15  and  C_16
REMARK    5  A    between atoms: C_20  and  C_21
REMARK                            x       y       z     vdW  Elec       q    Type
REMARK                         _______ _______ _______ _____ _____    ______ ____
ROOT
ATOM      1  O   UNL     1       2.038   8.312  17.677  0.00  0.00    +0.000 OA
ATOM      2  C   UNL     1       1.859   8.305  18.895  0.00  0.00    +0.000 C 
ATOM      3  N   UNL     1       1.209   9.295  19.614  0.00  0.00    +0.000 N 
ATOM      4  H   UNL     1       1.307   9.277  20.624  0.00  0.00    +0.000 HD
ENDROOT
BRANCH   3   5
ATOM      5  C   UNL     1       0.614  10.452  19.062  0.00  0.00    +0.000 A 
ATOM      6  C   UNL     1       1.208  11.713  19.110  0.00  0.00    +0.000 A 
ATOM      7  C   UNL     1       0.523  12.839  18.654  0.00  0.00    +0.000 A 
ATOM      8  C   UNL     1      -0.777  12.712  18.171  0.00  0.00    +0.000 A 
ATOM      9  C   UNL     1      -1.387  11.452  18.092  0.00  0.00    +0.000 A 
ATOM     10  C   UNL     1      -0.647  10.321  18.469  0.00  0.00    +0.000 A 
BRANCH   9  11
ATOM     11  C   UNL     1      -2.790  11.384  17.667  0.00  0.00    +0.000 A 
ATOM     12  N   UNL     1      -3.189  11.106  16.439  0.00  0.00    +0.000 NA
ATOM     13  N   UNL     1      -4.551  11.218  16.377  0.00  0.00    +0.000 NA
ATOM     14  C   UNL     1      -4.988  11.581  17.562  0.00  0.00    +0.000 A 
ATOM     15  N   UNL     1      -3.911  11.707  18.412  0.00  0.00    +0.000 N 
ATOM     16  C   UNL     1      -3.945  12.145  19.793  0.00  0.00    +0.000 C 
ATOM     17  C   UNL     1      -4.935  13.262  20.085  0.00  0.00    +0.000 C 
ATOM     18  C   UNL     1      -6.371  12.779  20.259  0.00  0.00    +0.000 C 
ATOM     19  C   UNL     1      -6.788  11.627  19.345  0.00  0.00    +0.000 C 
ATOM     20  C   UNL     1      -6.416  11.858  17.887  0.00  0.00    +0.000 C 
ENDBRANCH   9  11
ENDBRANCH   3   5
BRANCH   2  21
ATOM     21  C   UNL     1       2.331   7.104  19.690  0.00  0.00    +0.000 C 
BRANCH  21  22
ATOM     22  C   UNL     1       2.964   6.008  18.882  0.00  0.00    +0.000 A 
ATOM     23  N   UNL     1       4.063   6.392  18.182  0.00  0.00    +0.000 NA
ATOM     24  N   UNL     1       4.743   5.493  17.434  0.00  0.00    +0.000 NA
ATOM     25  C   UNL     1       4.315   4.220  17.399  0.00  0.00    +0.000 A 
ATOM     26  C   UNL     1       3.186   3.752  18.065  0.00  0.00    +0.000 A 
ATOM     27  C   UNL     1       2.755   2.412  18.010  0.00  0.00    +0.000 A 
ATOM     28  C   UNL     1       1.617   1.995  18.700  0.00  0.00    +0.000 A 
ATOM     29  C   UNL     1       0.879   2.918  19.430  0.00  0.00    +0.000 A 
ATOM     30  C   UNL     1       1.286   4.251  19.490  0.00  0.00    +0.000 A 
ATOM     31  C   UNL     1       2.459   4.694  18.829  0.00  0.00    +0.000 A 
BRANCH  25  32
ATOM     32  O   UNL     1       5.084   3.395  16.635  0.00  0.00    +0.000 OA
ATOM     33  H   UNL     1       5.639   2.969  17.312  0.00  0.00    +0.000 HD
ENDBRANCH  25  32
ENDBRANCH  21  22
ENDBRANCH   2  21
TORSDOF 5
ENDMDL
MODEL 2
REMARK VINA RESULT:      -9.2      3.222      5.309
REMARK  Name = 
REMARK  5 active torsions:
REMARK  status: ('A' for Active; 'I' for Inactive)
REMARK    1  A    between atoms: C_2  and  C_3
REMARK    2  A    between atoms: C_3  and  C_4
REMARK    3  A    between atoms: C_7  and  O_8
REMARK    4  A    between atoms: N_15  and  C_16
REMARK    5  A    between atoms: C_20  and  C_21
REMARK                            x       y       z     vdW  Elec       q    Type
REMARK                         _______ _______ _______ _____ _____    ______ ____
ROOT
ATOM      1  O   UNL     1       2.403   7.449  19.621  0.00  0.00    +0.000 OA
ATOM      2  C   UNL     1       2.560   7.678  18.422  0.00  0.00    +0.000 C 
ATOM      3  N   UNL     1       1.940   8.694  17.714  0.00  0.00    +0.000 N 
ATOM      4  H   UNL     1       1.988   8.653  16.700  0.00  0.00    +0.000 HD
ENDROOT
BRANCH   3   5
ATOM      5  C   UNL     1       1.059   9.654  18.261  0.00  0.00    +0.000 A 
ATOM      6  C   UNL     1      -0.294   9.727  17.927  0.00  0.00    +0.000 A 
ATOM      7  C   UNL     1      -1.089  10.766  18.407  0.00  0.00    +0.000 A 
ATOM      8  C   UNL     1      -0.526  11.759  19.205  0.00  0.00    +0.000 A 
ATOM      9  C   UNL     1       0.825  11.697  19.573  0.00  0.00    +0.000 A 
ATOM     10  C   UNL     1       1.586  10.593  19.155  0.00  0.00    +0.000 A 
BRANCH   9  11
ATOM     11  C   UNL     1       1.393  12.817  20.332  0.00  0.00    +0.000 A 
ATOM     12  N   UNL     1       1.016  13.163  21.550  0.00  0.00    +0.000 NA
ATOM     13  N   UNL     1       1.683  14.300  21.916  0.00  0.00    +0.000 NA
ATOM     14  C   UNL     1       2.458  14.661  20.917  0.00  0.00    +0.000 A 
ATOM     15  N   UNL     1       2.303  13.759  19.888  0.00  0.00    +0.000 N 
ATOM     16  C   UNL     1       2.929  13.820  18.582  0.00  0.00    +0.000 C 
ATOM     17  C   UNL     1       3.049  15.218  17.996  0.00  0.00    +0.000 C 
ATOM     18  C   UNL     1       4.232  16.012  18.541  0.00  0.00    +0.000 C 
ATOM     19  C   UNL     1       4.542  15.790  20.021  0.00  0.00    +0.000 C 
ATOM     20  C   UNL     1       3.309  15.885  20.909  0.00  0.00    +0.000 C 
ENDBRANCH   9  11
ENDBRANCH   3   5
BRANCH   2  21
ATOM     21  C   UNL     1       3.545   6.828  17.644  0.00  0.00    +0.000 C 
BRANCH  21  22
ATOM     22  C   UNL     1       3.874   5.499  18.261  0.00  0.00    +0.000 A 
ATOM     23  N   UNL     1       5.158   5.382  18.688  0.00  0.00    +0.000 NA
ATOM     24  N   UNL     1       5.576   4.244  19.287  0.00  0.00    +0.000 NA
ATOM     25  C   UNL     1       4.701   3.238  19.453  0.00  0.00    +0.000 A 
ATOM     26  C   UNL     1       3.379   3.267  19.022  0.00  0.00    +0.000 A 
ATOM     27  C   UNL     1       2.480   2.197  19.205  0.00  0.00    +0.000 A 
ATOM     28  C   UNL     1       1.163   2.281  18.757  0.00  0.00    +0.000 A 
ATOM     29  C   UNL     1       0.734   3.424  18.094  0.00  0.00    +0.000 A 
ATOM     30  C   UNL     1       1.611   4.490  17.897  0.00  0.00    +0.000 A 
ATOM     31  C   UNL     1       2.944   4.447  18.375  0.00  0.00    +0.000 A 
BRANCH  25  32
ATOM     32  O   UNL     1       5.220   2.148  20.086  0.00  0.00    +0.000 OA
ATOM     33  H   UNL     1       5.395   1.555  19.335  0.00  0.00    +0.000 HD
ENDBRANCH  25  32
ENDBRANCH  21  22
ENDBRANCH   2  21
TORSDOF 5
ENDMDL
MODEL 3
REMARK VINA RESULT:      -9.1      3.589     10.397
REMARK  Name = 
REMARK  5 active torsions:
REMARK  status: ('A' for Active; 'I' for Inactive)
REMARK    1  A    between atoms: C_2  and  C_3
REMARK    2  A    between atoms: C_3  and  C_4
REMARK    3  A    between atoms: C_7  and  O_8
REMARK    4  A    between atoms: N_15  and  C_16
REMARK    5  A    between atoms: C_20  and  C_21
REMARK                            x       y       z     vdW  Elec       q    Type
REMARK                         _______ _______ _______ _____ _____    ______ ____
ROOT
ATOM      1  O   UNL     1       3.574   8.734  17.653  0.00  0.00    +0.000 OA
ATOM      2  C   UNL     1       2.578   8.071  17.939  0.00  0.00    +0.000 C 
ATOM      3  N   UNL     1       2.562   6.702  18.156  0.00  0.00    +0.000 N 
ATOM      4  H   UNL     1       1.657   6.244  18.179  0.00  0.00    +0.000 HD
ENDROOT
BRANCH   3   5
ATOM      5  C   UNL     1       3.693   5.854  18.121  0.00  0.00    +0.000 A 
ATOM      6  C   UNL     1       4.180   5.184  19.244  0.00  0.00    +0.000 A 
ATOM      7  C   UNL     1       5.366   4.455  19.176  0.00  0.00    +0.000 A 
ATOM      8  C   UNL     1       6.089   4.415  17.987  0.00  0.00    +0.000 A 
ATOM      9  C   UNL     1       5.610   5.061  16.839  0.00  0.00    +0.000 A 
ATOM     10  C   UNL     1       4.367   5.712  16.904  0.00  0.00    +0.000 A 
BRANCH   9  11
ATOM     11  C   UNL     1       6.456   5.071  15.640  0.00  0.00    +0.000 A 
ATOM     12  N   UNL     1       7.526   5.829  15.485  0.00  0.00    +0.000 NA
ATOM     13  N   UNL     1       8.017   5.652  14.220  0.00  0.00    +0.000 NA
ATOM     14  C   UNL     1       7.238   4.798  13.593  0.00  0.00    +0.000 A 
ATOM     15  N   UNL     1       6.231   4.408  14.447  0.00  0.00    +0.000 N 
ATOM     16  C   UNL     1       5.127   3.522  14.135  0.00  0.00    +0.000 C 
ATOM     17  C   UNL     1       4.550   3.688  12.738  0.00  0.00    +0.000 C 
ATOM     18  C   UNL     1       5.355   2.979  11.654  0.00  0.00    +0.000 C 
ATOM     19  C   UNL     1       6.870   3.000  11.846  0.00  0.00    +0.000 C 
ATOM     20  C   UNL     1       7.411   4.386  12.171  0.00  0.00    +0.000 C 
ENDBRANCH   9  11
ENDBRANCH   3   5
BRANCH   2  21
ATOM     21  C   UNL     1       1.258   8.790  18.128  0.00  0.00    +0.000 C 
BRANCH  21  22
ATOM     22  C   UNL     1       0.915   9.142  19.547  0.00  0.00    +0.000 A 
ATOM     23  N   UNL     1       1.523   8.363  20.480  0.00  0.00    +0.000 NA
ATOM     24  N   UNL     1       1.320   8.593  21.797  0.00  0.00    +0.000 NA
ATOM     25  C   UNL     1       0.513   9.603  22.164  0.00  0.00    +0.000 A 
ATOM     26  C   UNL     1      -0.166  10.428  21.274  0.00  0.00    +0.000 A 
ATOM     27  C   UNL     1      -1.010  11.480  21.683  0.00  0.00    +0.000 A 
ATOM     28  C   UNL     1      -1.665  12.281  20.749  0.00  0.00    +0.000 A 
ATOM     29  C   UNL     1      -1.507  12.024  19.392  0.00  0.00    +0.000 A 
ATOM     30  C   UNL     1      -0.681  10.983  18.968  0.00  0.00    +0.000 A 
ATOM     31  C   UNL     1       0.025  10.178  19.896  0.00  0.00    +0.000 A 
BRANCH  25  32
ATOM     32  O   UNL     1       0.397   9.760  23.512  0.00  0.00    +0.000 OA
ATOM     33  H   UNL     1      -0.271   9.085  23.727  0.00  0.00    +0.000 HD
ENDBRANCH  25  32
ENDBRANCH  21  22
ENDBRANCH   2  21
TORSDOF 5
ENDMDL
MODEL 4
REMARK VINA RESULT:      -9.1      1.071      1.145
REMARK  Name = 
REMARK  5 active torsions:
REMARK  status: ('A' for Active; 'I' for Inactive)
REMARK    1  A    between atoms: C_2  and  C_3
REMARK    2  A    between atoms: C_3  and  C_4
REMARK    3  A    between atoms: C_7  and  O_8
REMARK    4  A    between atoms: N_15  and  C_16
REMARK    5  A    between atoms: C_20  and  C_21
REMARK                            x       y       z     vdW  Elec       q    Type
REMARK                         _______ _______ _______ _____ _____    ______ ____
ROOT
ATOM      1  O   UNL     1      -0.252   8.707  21.016  0.00  0.00    +0.000 OA
ATOM      2  C   UNL     1       0.840   8.617  20.456  0.00  0.00    +0.000 C 
ATOM      3  N   UNL     1       1.316   9.483  19.485  0.00  0.00    +0.000 N 
ATOM      4  H   UNL     1       2.131   9.188  18.957  0.00  0.00    +0.000 HD
ENDROOT
BRANCH   3   5
ATOM      5  C   UNL     1       0.641  10.630  19.009  0.00  0.00    +0.000 A 
ATOM      6  C   UNL     1       1.147  11.924  19.142  0.00  0.00    +0.000 A 
ATOM      7  C   UNL     1       0.385  13.027  18.759  0.00  0.00    +0.000 A 
ATOM      8  C   UNL     1      -0.904  12.842  18.264  0.00  0.00    +0.000 A 
ATOM      9  C   UNL     1      -1.426  11.551  18.100  0.00  0.00    +0.000 A 
ATOM     10  C   UNL     1      -0.608  10.451  18.405  0.00  0.00    +0.000 A 
BRANCH   9  11
ATOM     11  C   UNL     1      -2.821  11.414  17.667  0.00  0.00    +0.000 A 
ATOM     12  N   UNL     1      -3.197  11.072  16.448  0.00  0.00    +0.000 NA
ATOM     13  N   UNL     1      -4.562  11.131  16.370  0.00  0.00    +0.000 NA
ATOM     14  C   UNL     1      -5.023  11.526  17.537  0.00  0.00    +0.000 A 
ATOM     15  N   UNL     1      -3.960  11.726  18.389  0.00  0.00    +0.000 N 
ATOM     16  C   UNL     1      -4.023  12.220  19.750  0.00  0.00    +0.000 C 
ATOM     17  C   UNL     1      -5.055  13.310  19.988  0.00  0.00    +0.000 C 
ATOM     18  C   UNL     1      -6.475  12.782  20.169  0.00  0.00    +0.000 C 
ATOM     19  C   UNL     1      -6.841  11.580  19.301  0.00  0.00    +0.000 C 
ATOM     20  C   UNL     1      -6.464  11.764  17.837  0.00  0.00    +0.000 C 
ENDBRANCH   9  11
ENDBRANCH   3   5
BRANCH   2  21
ATOM     21  C   UNL     1       1.783   7.509  20.881  0.00  0.00    +0.000 C 
BRANCH  21  22
ATOM     22  C   UNL     1       2.287   6.634  19.770  0.00  0.00    +0.000 A 
ATOM     23  N   UNL     1       3.047   7.281  18.848  0.00  0.00    +0.000 NA
ATOM     24  N   UNL     1       3.585   6.602  17.810  0.00  0.00    +0.000 NA
ATOM     25  C   UNL     1       3.358   5.281  17.711  0.00  0.00    +0.000 A 
ATOM     26  C   UNL     1       2.573   4.550  18.596  0.00  0.00    +0.000 A 
ATOM     27  C   UNL     1       2.346   3.164  18.468  0.00  0.00    +0.000 A 
ATOM     28  C   UNL     1       1.552   2.479  19.386  0.00  0.00    +0.000 A 
ATOM     29  C   UNL     1       0.951   3.174  20.428  0.00  0.00    +0.000 A 
ATOM     30  C   UNL     1       1.157   4.546  20.567  0.00  0.00    +0.000 A 
ATOM     31  C   UNL     1       1.989   5.260  19.670  0.00  0.00    +0.000 A 
BRANCH  25  32
ATOM     32  O   UNL     1       3.964   4.692  16.642  0.00  0.00    +0.000 OA
ATOM     33  H   UNL     1       3.670   3.769  16.739  0.00  0.00    +0.000 HD
ENDBRANCH  25  32
ENDBRANCH  21  22
ENDBRANCH   2  21
TORSDOF 5
ENDMDL
MODEL 5
REMARK VINA RESULT:      -9.0      2.797      3.981
REMARK  Name = 
REMARK  5 active torsions:
REMARK  status: ('A' for Active; 'I' for Inactive)
REMARK    1  A    between atoms: C_2  and  C_3
REMARK    2  A    between atoms: C_3  and  C_4
REMARK    3  A    between atoms: C_7  and  O_8
REMARK    4  A    between atoms: N_15  and  C_16
REMARK    5  A    between atoms: C_20  and  C_21
REMARK                            x       y       z     vdW  Elec       q    Type
REMARK                         _______ _______ _______ _____ _____    ______ ____
ROOT
ATOM      1  O   UNL     1       2.226   7.949  19.634  0.00  0.00    +0.000 OA
ATOM      2  C   UNL     1       2.112   8.096  18.418  0.00  0.00    +0.000 C 
ATOM      3  N   UNL     1       1.790   9.285  17.783  0.00  0.00    +0.000 N 
ATOM      4  H   UNL     1       1.524   9.234  16.804  0.00  0.00    +0.000 HD
ENDROOT
BRANCH   3   5
ATOM      5  C   UNL     1       1.580  10.526  18.425  0.00  0.00    +0.000 A 
ATOM      6  C   UNL     1       2.317  11.673  18.131  0.00  0.00    +0.000 A 
ATOM      7  C   UNL     1       2.145  12.838  18.877  0.00  0.00    +0.000 A 
ATOM      8  C   UNL     1       1.252  12.853  19.945  0.00  0.00    +0.000 A 
ATOM      9  C   UNL     1       0.484  11.720  20.247  0.00  0.00    +0.000 A 
ATOM     10  C   UNL     1       0.604  10.588  19.426  0.00  0.00    +0.000 A 
BRANCH   9  11
ATOM     11  C   UNL     1      -0.370  11.756  21.440  0.00  0.00    +0.000 A 
ATOM     12  N   UNL     1      -0.102  11.129  22.572  0.00  0.00    +0.000 NA
ATOM     13  N   UNL     1      -1.150  11.301  23.434  0.00  0.00    +0.000 NA
ATOM     14  C   UNL     1      -2.068  12.019  22.827  0.00  0.00    +0.000 A 
ATOM     15  N   UNL     1      -1.625  12.325  21.560  0.00  0.00    +0.000 N 
ATOM     16  C   UNL     1      -2.356  13.050  20.539  0.00  0.00    +0.000 C 
ATOM     17  C   UNL     1      -3.844  12.744  20.479  0.00  0.00    +0.000 C 
ATOM     18  C   UNL     1      -4.666  13.492  21.524  0.00  0.00    +0.000 C 
ATOM     19  C   UNL     1      -3.991  13.668  22.883  0.00  0.00    +0.000 C 
ATOM     20  C   UNL     1      -3.388  12.378  23.421  0.00  0.00    +0.000 C 
ENDBRANCH   9  11
ENDBRANCH   3   5
BRANCH   2  21
ATOM     21  C   UNL     1       2.392   6.912  17.514  0.00  0.00    +0.000 C 
BRANCH  21  22
ATOM     22  C   UNL     1       3.296   5.862  18.093  0.00  0.00    +0.000 A 
ATOM     23  N   UNL     1       2.647   4.857  18.736  0.00  0.00    +0.000 NA
ATOM     24  N   UNL     1       3.343   3.834  19.280  0.00  0.00    +0.000 NA
ATOM     25  C   UNL     1       4.683   3.829  19.170  0.00  0.00    +0.000 A 
ATOM     26  C   UNL     1       5.424   4.830  18.551  0.00  0.00    +0.000 A 
ATOM     27  C   UNL     1       6.830   4.803  18.451  0.00  0.00    +0.000 A 
ATOM     28  C   UNL     1       7.524   5.833  17.816  0.00  0.00    +0.000 A 
ATOM     29  C   UNL     1       6.824   6.916  17.299  0.00  0.00    +0.000 A 
ATOM     30  C   UNL     1       5.434   6.963  17.395  0.00  0.00    +0.000 A 
ATOM     31  C   UNL     1       4.701   5.913  18.001  0.00  0.00    +0.000 A 
BRANCH  25  32
ATOM     32  O   UNL     1       5.283   2.742  19.732  0.00  0.00    +0.000 OA
ATOM     33  H   UNL     1       5.230   2.096  19.006  0.00  0.00    +0.000 HD
ENDBRANCH  25  32
ENDBRANCH  21  22
ENDBRANCH   2  21
TORSDOF 5
ENDMDL
MODEL 6
REMARK VINA RESULT:      -8.9      2.838     10.084
REMARK  Name = 
REMARK  5 active torsions:
REMARK  status: ('A' for Active; 'I' for Inactive)
REMARK    1  A    between atoms: C_2  and  C_3
REMARK    2  A    between atoms: C_3  and  C_4
REMARK    3  A    between atoms: C_7  and  O_8
REMARK    4  A    between atoms: N_15  and  C_16
REMARK    5  A    between atoms: C_20  and  C_21
REMARK                            x       y       z     vdW  Elec       q    Type
REMARK                         _______ _______ _______ _____ _____    ______ ____
ROOT
ATOM      1  O   UNL     1      -0.327   8.876  21.127  0.00  0.00    +0.000 OA
ATOM      2  C   UNL     1       0.537   9.447  20.462  0.00  0.00    +0.000 C 
ATOM      3  N   UNL     1       1.650   8.838  19.905  0.00  0.00    +0.000 N 
ATOM      4  H   UNL     1       2.389   9.443  19.560  0.00  0.00    +0.000 HD
ENDROOT
BRANCH   3   5
ATOM      5  C   UNL     1       1.951   7.459  19.977  0.00  0.00    +0.000 A 
ATOM      6  C   UNL     1       1.179   6.544  20.694  0.00  0.00    +0.000 A 
ATOM      7  C   UNL     1       1.589   5.218  20.826  0.00  0.00    +0.000 A 
ATOM      8  C   UNL     1       2.793   4.805  20.263  0.00  0.00    +0.000 A 
ATOM      9  C   UNL     1       3.576   5.698  19.519  0.00  0.00    +0.000 A 
ATOM     10  C   UNL     1       3.100   7.004  19.319  0.00  0.00    +0.000 A 
BRANCH   9  11
ATOM     11  C   UNL     1       4.881   5.240  19.029  0.00  0.00    +0.000 A 
ATOM     12  N   UNL     1       5.933   5.018  19.796  0.00  0.00    +0.000 NA
ATOM     13  N   UNL     1       7.000   4.693  19.004  0.00  0.00    +0.000 NA
ATOM     14  C   UNL     1       6.608   4.732  17.750  0.00  0.00    +0.000 A 
ATOM     15  N   UNL     1       5.277   5.082  17.713  0.00  0.00    +0.000 N 
ATOM     16  C   UNL     1       4.472   5.296  16.526  0.00  0.00    +0.000 C 
ATOM     17  C   UNL     1       5.193   5.984  15.379  0.00  0.00    +0.000 C 
ATOM     18  C   UNL     1       6.066   5.046  14.552  0.00  0.00    +0.000 C 
ATOM     19  C   UNL     1       6.787   3.956  15.344  0.00  0.00    +0.000 C 
ATOM     20  C   UNL     1       7.500   4.489  16.580  0.00  0.00    +0.000 C 
ENDBRANCH   9  11
ENDBRANCH   3   5
BRANCH   2  21
ATOM     21  C   UNL     1       0.369  10.924  20.170  0.00  0.00    +0.000 C 
BRANCH  21  22
ATOM     22  C   UNL     1      -1.040  11.370  19.904  0.00  0.00    +0.000 A 
ATOM     23  N   UNL     1      -1.573  12.152  20.878  0.00  0.00    +0.000 NA
ATOM     24  N   UNL     1      -2.826  12.643  20.749  0.00  0.00    +0.000 NA
ATOM     25  C   UNL     1      -3.529  12.346  19.643  0.00  0.00    +0.000 A 
ATOM     26  C   UNL     1      -3.067  11.533  18.613  0.00  0.00    +0.000 A 
ATOM     27  C   UNL     1      -3.825  11.234  17.462  0.00  0.00    +0.000 A 
ATOM     28  C   UNL     1      -3.312  10.415  16.457  0.00  0.00    +0.000 A 
ATOM     29  C   UNL     1      -2.046   9.862  16.601  0.00  0.00    +0.000 A 
ATOM     30  C   UNL     1      -1.284  10.141  17.735  0.00  0.00    +0.000 A 
ATOM     31  C   UNL     1      -1.766  10.999  18.754  0.00  0.00    +0.000 A 
BRANCH  25  32
ATOM     32  O   UNL     1      -4.770  12.909  19.604  0.00  0.00    +0.000 OA
ATOM     33  H   UNL     1      -5.233  12.311  18.992  0.00  0.00    +0.000 HD
ENDBRANCH  25  32
ENDBRANCH  21  22
ENDBRANCH   2  21
TORSDOF 5
ENDMDL
MODEL 7
REMARK VINA RESULT:      -8.9      2.556      3.280
REMARK  Name = 
REMARK  5 active torsions:
REMARK  status: ('A' for Active; 'I' for Inactive)
REMARK    1  A    between atoms: C_2  and  C_3
REMARK    2  A    between atoms: C_3  and  C_4
REMARK    3  A    between atoms: C_7  and  O_8
REMARK    4  A    between atoms: N_15  and  C_16
REMARK    5  A    between atoms: C_20  and  C_21
REMARK                            x       y       z     vdW  Elec       q    Type
REMARK                         _______ _______ _______ _____ _____    ______ ____
ROOT
ATOM      1  O   UNL     1       2.005   8.161  19.405  0.00  0.00    +0.000 OA
ATOM      2  C   UNL     1       2.024   8.464  18.213  0.00  0.00    +0.000 C 
ATOM      3  N   UNL     1       1.836   9.740  17.709  0.00  0.00    +0.000 N 
ATOM      4  H   UNL     1       1.669   9.828  16.711  0.00  0.00    +0.000 HD
ENDROOT
BRANCH   3   5
ATOM      5  C   UNL     1       1.631  10.905  18.483  0.00  0.00    +0.000 A 
ATOM      6  C   UNL     1       2.386  12.068  18.329  0.00  0.00    +0.000 A 
ATOM      7  C   UNL     1       2.218  13.145  19.198  0.00  0.00    +0.000 A 
ATOM      8  C   UNL     1       1.309  13.053  20.249  0.00  0.00    +0.000 A 
ATOM      9  C   UNL     1       0.522  11.904  20.412  0.00  0.00    +0.000 A 
ATOM     10  C   UNL     1       0.641  10.868  19.471  0.00  0.00    +0.000 A 
BRANCH   9  11
ATOM     11  C   UNL     1      -0.349  11.818  21.590  0.00  0.00    +0.000 A 
ATOM     12  N   UNL     1      -0.112  11.055  22.642  0.00  0.00    +0.000 NA
ATOM     13  N   UNL     1      -1.169  11.149  23.505  0.00  0.00    +0.000 NA
ATOM     14  C   UNL     1      -2.062  11.955  22.976  0.00  0.00    +0.000 A 
ATOM     15  N   UNL     1      -1.593  12.398  21.759  0.00  0.00    +0.000 N 
ATOM     16  C   UNL     1      -2.292  13.255  20.823  0.00  0.00    +0.000 C 
ATOM     17  C   UNL     1      -3.785  12.994  20.708  0.00  0.00    +0.000 C 
ATOM     18  C   UNL     1      -4.608  13.632  21.823  0.00  0.00    +0.000 C 
ATOM     19  C   UNL     1      -3.950  13.630  23.202  0.00  0.00    +0.000 C 
ATOM     20  C   UNL     1      -3.383  12.272  23.591  0.00  0.00    +0.000 C 
ENDBRANCH   9  11
ENDBRANCH   3   5
BRANCH   2  21
ATOM     21  C   UNL     1       2.328   7.383  17.195  0.00  0.00    +0.000 C 
BRANCH  21  22
ATOM     22  C   UNL     1       3.349   6.368  17.622  0.00  0.00    +0.000 A 
ATOM     23  N   UNL     1       4.628   6.824  17.618  0.00  0.00    +0.000 NA
ATOM     24  N   UNL     1       5.641   6.017  18.007  0.00  0.00    +0.000 NA
ATOM     25  C   UNL     1       5.359   4.763  18.398  0.00  0.00    +0.000 A 
ATOM     26  C   UNL     1       4.082   4.211  18.407  0.00  0.00    +0.000 A 
ATOM     27  C   UNL     1       3.812   2.890  18.819  0.00  0.00    +0.000 A 
ATOM     28  C   UNL     1       2.511   2.388  18.811  0.00  0.00    +0.000 A 
ATOM     29  C   UNL     1       1.467   3.189  18.364  0.00  0.00    +0.000 A 
ATOM     30  C   UNL     1       1.717   4.496  17.946  0.00  0.00    +0.000 A 
ATOM     31  C   UNL     1       3.023   5.044  17.979  0.00  0.00    +0.000 A 
BRANCH  25  32
ATOM     32  O   UNL     1       6.448   4.044  18.790  0.00  0.00    +0.000 OA
ATOM     33  H   UNL     1       6.935   3.961  17.952  0.00  0.00    +0.000 HD
ENDBRANCH  25  32
ENDBRANCH  21  22
ENDBRANCH   2  21
TORSDOF 5
ENDMDL
MODEL 8
REMARK VINA RESULT:      -8.9      2.661      9.972
REMARK  Name = 
REMARK  5 active torsions:
REMARK  status: ('A' for Active; 'I' for Inactive)
REMARK    1  A    between atoms: C_2  and  C_3
REMARK    2  A    between atoms: C_3  and  C_4
REMARK    3  A    between atoms: C_7  and  O_8
REMARK    4  A    between atoms: N_15  and  C_16
REMARK    5  A    between atoms: C_20  and  C_21
REMARK                            x       y       z     vdW  Elec       q    Type
REMARK                         _______ _______ _______ _____ _____    ______ ____
ROOT
ATOM      1  O   UNL     1       1.472   8.922  17.381  0.00  0.00    +0.000 OA
ATOM      2  C   UNL     1       1.419   9.466  18.484  0.00  0.00    +0.000 C 
ATOM      3  N   UNL     1       1.624   8.832  19.699  0.00  0.00    +0.000 N 
ATOM      4  H   UNL     1       1.352   9.334  20.538  0.00  0.00    +0.000 HD
ENDROOT
BRANCH   3   5
ATOM      5  C   UNL     1       1.963   7.470  19.865  0.00  0.00    +0.000 A 
ATOM      6  C   UNL     1       1.232   6.593  20.667  0.00  0.00    +0.000 A 
ATOM      7  C   UNL     1       1.679   5.291  20.887  0.00  0.00    +0.000 A 
ATOM      8  C   UNL     1       2.881   4.866  20.327  0.00  0.00    +0.000 A 
ATOM      9  C   UNL     1       3.623   5.721  19.500  0.00  0.00    +0.000 A 
ATOM     10  C   UNL     1       3.108   6.996  19.216  0.00  0.00    +0.000 A 
BRANCH   9  11
ATOM     11  C   UNL     1       4.928   5.259  19.014  0.00  0.00    +0.000 A 
ATOM     12  N   UNL     1       5.984   5.055  19.781  0.00  0.00    +0.000 NA
ATOM     13  N   UNL     1       7.050   4.720  18.992  0.00  0.00    +0.000 NA
ATOM     14  C   UNL     1       6.654   4.736  17.739  0.00  0.00    +0.000 A 
ATOM     15  N   UNL     1       5.321   5.080  17.699  0.00  0.00    +0.000 N 
ATOM     16  C   UNL     1       4.511   5.269  16.512  0.00  0.00    +0.000 C 
ATOM     17  C   UNL     1       5.226   5.940  15.351  0.00  0.00    +0.000 C 
ATOM     18  C   UNL     1       6.100   4.991  14.538  0.00  0.00    +0.000 C 
ATOM     19  C   UNL     1       6.827   3.919  15.347  0.00  0.00    +0.000 C 
ATOM     20  C   UNL     1       7.542   4.476  16.570  0.00  0.00    +0.000 C 
ENDBRANCH   9  11
ENDBRANCH   3   5
BRANCH   2  21
ATOM     21  C   UNL     1       1.164  10.958  18.545  0.00  0.00    +0.000 C 
BRANCH  21  22
ATOM     22  C   UNL     1      -0.185  11.358  19.069  0.00  0.00    +0.000 A 
ATOM     23  N   UNL     1      -0.157  11.966  20.283  0.00  0.00    +0.000 NA
ATOM     24  N   UNL     1      -1.303  12.399  20.855  0.00  0.00    +0.000 NA
ATOM     25  C   UNL     1      -2.464  12.221  20.201  0.00  0.00    +0.000 A 
ATOM     26  C   UNL     1      -2.582  11.586  18.969  0.00  0.00    +0.000 A 
ATOM     27  C   UNL     1      -3.812  11.408  18.304  0.00  0.00    +0.000 A 
ATOM     28  C   UNL     1      -3.873  10.767  17.068  0.00  0.00    +0.000 A 
ATOM     29  C   UNL     1      -2.710  10.270  16.492  0.00  0.00    +0.000 A 
ATOM     30  C   UNL     1      -1.485  10.431  17.139  0.00  0.00    +0.000 A 
ATOM     31  C   UNL     1      -1.389  11.111  18.378  0.00  0.00    +0.000 A 
BRANCH  25  32
ATOM     32  O   UNL     1      -3.552  12.714  20.856  0.00  0.00    +0.000 OA
ATOM     33  H   UNL     1      -4.117  11.924  20.913  0.00  0.00    +0.000 HD
ENDBRANCH  25  32
ENDBRANCH  21  22
ENDBRANCH   2  21
TORSDOF 5
ENDMDL
MODEL 9
REMARK VINA RESULT:      -8.9      3.004      4.610
REMARK  Name = 
REMARK  5 active torsions:
REMARK  status: ('A' for Active; 'I' for Inactive)
REMARK    1  A    between atoms: C_2  and  C_3
REMARK    2  A    between atoms: C_3  and  C_4
REMARK    3  A    between atoms: C_7  and  O_8
REMARK    4  A    between atoms: N_15  and  C_16
REMARK    5  A    between atoms: C_20  and  C_21
REMARK                            x       y       z     vdW  Elec       q    Type
REMARK                         _______ _______ _______ _____ _____    ______ ____
ROOT
ATOM      1  O   UNL     1       1.192   5.289  17.874  0.00  0.00    +0.000 OA
ATOM      2  C   UNL     1       2.298   5.439  18.391  0.00  0.00    +0.000 C 
ATOM      3  N   UNL     1       2.816   6.644  18.839  0.00  0.00    +0.000 N 
ATOM      4  H   UNL     1       3.807   6.675  19.053  0.00  0.00    +0.000 HD
ENDROOT
BRANCH   3   5
ATOM      5  C   UNL     1       2.143   7.887  18.808  0.00  0.00    +0.000 A 
ATOM      6  C   UNL     1       2.190   8.754  17.717  0.00  0.00    +0.000 A 
ATOM      7  C   UNL     1       1.603  10.017  17.787  0.00  0.00    +0.000 A 
ATOM      8  C   UNL     1       0.988  10.431  18.966  0.00  0.00    +0.000 A 
ATOM      9  C   UNL     1       0.908   9.570  20.069  0.00  0.00    +0.000 A 
ATOM     10  C   UNL     1       1.423   8.269  19.945  0.00  0.00    +0.000 A 
BRANCH   9  11
ATOM     11  C   UNL     1       0.336  10.088  21.317  0.00  0.00    +0.000 A 
ATOM     12  N   UNL     1       0.523   9.547  22.508  0.00  0.00    +0.000 NA
ATOM     13  N   UNL     1      -0.226  10.228  23.428  0.00  0.00    +0.000 NA
ATOM     14  C   UNL     1      -0.886  11.176  22.800  0.00  0.00    +0.000 A 
ATOM     15  N   UNL     1      -0.571  11.123  21.461  0.00  0.00    +0.000 N 
ATOM     16  C   UNL     1      -1.123  11.953  20.408  0.00  0.00    +0.000 C 
ATOM     17  C   UNL     1      -2.604  12.266  20.552  0.00  0.00    +0.000 C 
ATOM     18  C   UNL     1      -2.899  13.400  21.528  0.00  0.00    +0.000 C 
ATOM     19  C   UNL     1      -1.999  13.452  22.761  0.00  0.00    +0.000 C 
ATOM     20  C   UNL     1      -1.855  12.103  23.452  0.00  0.00    +0.000 C 
ENDBRANCH   9  11
ENDBRANCH   3   5
BRANCH   2  21
ATOM     21  C   UNL     1       3.165   4.217  18.618  0.00  0.00    +0.000 C 
BRANCH  21  22
ATOM     22  C   UNL     1       4.645   4.456  18.540  0.00  0.00    +0.000 A 
ATOM     23  N   UNL     1       5.241   4.675  19.742  0.00  0.00    +0.000 NA
ATOM     24  N   UNL     1       6.576   4.877  19.814  0.00  0.00    +0.000 NA
ATOM     25  C   UNL     1       7.299   4.854  18.681  0.00  0.00    +0.000 A 
ATOM     26  C   UNL     1       6.764   4.663  17.412  0.00  0.00    +0.000 A 
ATOM     27  C   UNL     1       7.543   4.646  16.237  0.00  0.00    +0.000 A 
ATOM     28  C   UNL     1       6.955   4.447  14.988  0.00  0.00    +0.000 A 
ATOM     29  C   UNL     1       5.577   4.289  14.894  0.00  0.00    +0.000 A 
ATOM     30  C   UNL     1       4.790   4.310  16.045  0.00  0.00    +0.000 A 
ATOM     31  C   UNL     1       5.365   4.474  17.329  0.00  0.00    +0.000 A 
BRANCH  25  32
ATOM     32  O   UNL     1       8.634   5.046  18.870  0.00  0.00    +0.000 OA
ATOM     33  H   UNL     1       8.678   5.154  19.836  0.00  0.00    +0.000 HD
ENDBRANCH  25  32
ENDBRANCH  21  22
ENDBRANCH   2  21
TORSDOF 5
ENDMDL
