MODEL 1
REMARK VINA RESULT:      -7.1      0.000      0.000
REMARK  Name = 
REMARK  9 active torsions:
REMARK  status: ('A' for Active; 'I' for Inactive)
REMARK    1  A    between atoms: C_1  and  C_2
REMARK    2  A    between atoms: C_2  and  S_3
REMARK    3  A    between atoms: S_3  and  N_6
REMARK    4  A    between atoms: N_6  and  C_7
REMARK    5  A    between atoms: N_6  and  C_8
REMARK    6  A    between atoms: C_8  and  C_9
REMARK    7  A    between atoms: C_9  and  C_10
REMARK    8  A    between atoms: C_10  and  N_11
REMARK    9  A    between atoms: C_12  and  C_14
REMARK                            x       y       z     vdW  Elec       q    Type
REMARK                         _______ _______ _______ _____ _____    ______ ____
ROOT
ATOM      1  N   UNL     1       7.599   7.265  18.130  0.00  0.00    +0.000 N 
ATOM      2  C   UNL     1       7.428   5.978  18.583  0.00  0.00    +0.000 C 
ATOM      3  O   UNL     1       8.101   5.497  19.489  0.00  0.00    +0.000 OA
ATOM      4  H   UNL     1       7.038   7.563  17.332  0.00  0.00    +0.000 HD
ENDROOT
BRANCH   2   5
ATOM      5  C   UNL     1       6.370   5.152  17.916  0.00  0.00    +0.000 A 
ATOM      6  C   UNL     1       5.345   4.658  18.747  0.00  0.00    +0.000 A 
ATOM      7  C   UNL     1       4.321   3.897  18.207  0.00  0.00    +0.000 A 
ATOM      8 CL   UNL     1       3.072   3.287  19.219  0.00  0.00    +0.000 Cl
ATOM      9  C   UNL     1       4.301   3.626  16.844  0.00  0.00    +0.000 A 
ATOM     10  C   UNL     1       5.326   4.104  16.010  0.00  0.00    +0.000 A 
ATOM     11  C   UNL     1       5.308   3.830  14.639  0.00  0.00    +0.000 A 
ATOM     12  C   UNL     1       6.327   4.291  13.817  0.00  0.00    +0.000 A 
ATOM     13  C   UNL     1       7.341   5.017  14.399  0.00  0.00    +0.000 A 
ATOM     14  N   UNL     1       7.387   5.307  15.717  0.00  0.00    +0.000 NA
ATOM     15  C   UNL     1       6.391   4.872  16.537  0.00  0.00    +0.000 A 
ENDBRANCH   2   5
BRANCH   1  16
ATOM     16  C   UNL     1       8.640   8.150  18.603  0.00  0.00    +0.000 C 
BRANCH  16  17
ATOM     17  C   UNL     1       8.427   9.586  18.136  0.00  0.00    +0.000 C 
BRANCH  17  18
ATOM     18  C   UNL     1       9.266  10.631  18.870  0.00  0.00    +0.000 C 
BRANCH  18  19
ATOM     19  N   UNL     1       9.749  11.771  18.033  0.00  0.00    +0.000 NA
ATOM     20  C   UNL     1      11.225  11.750  17.865  0.00  0.00    +0.000 C 
BRANCH  19  21
ATOM     21  S   UNL     1       9.083  13.325  18.222  0.00  0.00    +0.000 S 
ATOM     22  O   UNL     1       7.795  13.372  17.563  0.00  0.00    +0.000 OA
ATOM     23  O   UNL     1      10.115  14.280  17.881  0.00  0.00    +0.000 OA
BRANCH  21  25
ATOM     24  C   UNL     1      10.091  13.844  20.715  0.00  0.00    +0.000 C 
ATOM     25  C   UNL     1       8.827  13.427  19.993  0.00  0.00    +0.000 C 
ENDBRANCH  21  25
ENDBRANCH  19  21
ENDBRANCH  18  19
ENDBRANCH  17  18
ENDBRANCH  16  17
ENDBRANCH   1  16
TORSDOF 7
ENDMDL
MODEL 2
REMARK VINA RESULT:      -7.0      5.476      6.380
REMARK  Name = 
REMARK  9 active torsions:
REMARK  status: ('A' for Active; 'I' for Inactive)
REMARK    1  A    between atoms: C_1  and  C_2
REMARK    2  A    between atoms: C_2  and  S_3
REMARK    3  A    between atoms: S_3  and  N_6
REMARK    4  A    between atoms: N_6  and  C_7
REMARK    5  A    between atoms: N_6  and  C_8
REMARK    6  A    between atoms: C_8  and  C_9
REMARK    7  A    between atoms: C_9  and  C_10
REMARK    8  A    between atoms: C_10  and  N_11
REMARK    9  A    between atoms: C_12  and  C_14
REMARK                            x       y       z     vdW  Elec       q    Type
REMARK                         _______ _______ _______ _____ _____    ______ ____
ROOT
ATOM      1  N   UNL     1       2.144   8.186  17.727  0.00  0.00    +0.000 N 
ATOM      2  C   UNL     1       2.348   7.233  18.697  0.00  0.00    +0.000 C 
ATOM      3  O   UNL     1       2.270   7.478  19.897  0.00  0.00    +0.000 OA
ATOM      4  H   UNL     1       2.289   7.909  16.756  0.00  0.00    +0.000 HD
ENDROOT
BRANCH   2   5
ATOM      5  C   UNL     1       2.685   5.847  18.237  0.00  0.00    +0.000 A 
ATOM      6  C   UNL     1       1.796   4.825  18.623  0.00  0.00    +0.000 A 
ATOM      7  C   UNL     1       2.028   3.518  18.227  0.00  0.00    +0.000 A 
ATOM      8 CL   UNL     1       0.949   2.267  18.702  0.00  0.00    +0.000 Cl
ATOM      9  C   UNL     1       3.134   3.215  17.442  0.00  0.00    +0.000 A 
ATOM     10  C   UNL     1       4.033   4.227  17.063  0.00  0.00    +0.000 A 
ATOM     11  C   UNL     1       5.148   3.923  16.276  0.00  0.00    +0.000 A 
ATOM     12  C   UNL     1       6.044   4.920  15.911  0.00  0.00    +0.000 A 
ATOM     13  C   UNL     1       5.793   6.199  16.351  0.00  0.00    +0.000 A 
ATOM     14  N   UNL     1       4.723   6.530  17.106  0.00  0.00    +0.000 NA
ATOM     15  C   UNL     1       3.829   5.568  17.465  0.00  0.00    +0.000 A 
ENDBRANCH   2   5
BRANCH   1  16
ATOM     16  C   UNL     1       1.908   9.583  18.012  0.00  0.00    +0.000 C 
BRANCH  16  17
ATOM     17  C   UNL     1       0.423   9.927  18.006  0.00  0.00    +0.000 C 
BRANCH  17  18
ATOM     18  C   UNL     1      -0.208  10.073  19.391  0.00  0.00    +0.000 C 
BRANCH  18  19
ATOM     19  N   UNL     1       0.611  10.819  20.394  0.00  0.00    +0.000 NA
ATOM     20  C   UNL     1       0.564  10.180  21.734  0.00  0.00    +0.000 C 
BRANCH  19  21
ATOM     21  S   UNL     1       0.602  12.521  20.424  0.00  0.00    +0.000 S 
ATOM     22  O   UNL     1       0.662  12.970  21.799  0.00  0.00    +0.000 OA
ATOM     23  O   UNL     1      -0.468  12.961  19.556  0.00  0.00    +0.000 OA
BRANCH  21  25
ATOM     24  C   UNL     1       1.915  13.568  18.261  0.00  0.00    +0.000 C 
ATOM     25  C   UNL     1       2.148  12.933  19.617  0.00  0.00    +0.000 C 
ENDBRANCH  21  25
ENDBRANCH  19  21
ENDBRANCH  18  19
ENDBRANCH  17  18
ENDBRANCH  16  17
ENDBRANCH   1  16
TORSDOF 7
ENDMDL
MODEL 3
REMARK VINA RESULT:      -7.0      6.194      7.030
REMARK  Name = 
REMARK  9 active torsions:
REMARK  status: ('A' for Active; 'I' for Inactive)
REMARK    1  A    between atoms: C_1  and  C_2
REMARK    2  A    between atoms: C_2  and  S_3
REMARK    3  A    between atoms: S_3  and  N_6
REMARK    4  A    between atoms: N_6  and  C_7
REMARK    5  A    between atoms: N_6  and  C_8
REMARK    6  A    between atoms: C_8  and  C_9
REMARK    7  A    between atoms: C_9  and  C_10
REMARK    8  A    between atoms: C_10  and  N_11
REMARK    9  A    between atoms: C_12  and  C_14
REMARK                            x       y       z     vdW  Elec       q    Type
REMARK                         _______ _______ _______ _____ _____    ______ ____
ROOT
ATOM      1  N   UNL     1       2.233   8.194  17.720  0.00  0.00    +0.000 N 
ATOM      2  C   UNL     1       2.434   7.234  18.683  0.00  0.00    +0.000 C 
ATOM      3  O   UNL     1       2.367   7.473  19.885  0.00  0.00    +0.000 OA
ATOM      4  H   UNL     1       2.368   7.922  16.747  0.00  0.00    +0.000 HD
ENDROOT
BRANCH   2   5
ATOM      5  C   UNL     1       2.752   5.847  18.213  0.00  0.00    +0.000 A 
ATOM      6  C   UNL     1       1.857   4.833  18.603  0.00  0.00    +0.000 A 
ATOM      7  C   UNL     1       2.071   3.525  18.198  0.00  0.00    +0.000 A 
ATOM      8 CL   UNL     1       0.984   2.283  18.678  0.00  0.00    +0.000 Cl
ATOM      9  C   UNL     1       3.167   3.215  17.401  0.00  0.00    +0.000 A 
ATOM     10  C   UNL     1       4.072   4.219  17.018  0.00  0.00    +0.000 A 
ATOM     11  C   UNL     1       5.177   3.908  16.219  0.00  0.00    +0.000 A 
ATOM     12  C   UNL     1       6.079   4.898  15.851  0.00  0.00    +0.000 A 
ATOM     13  C   UNL     1       5.845   6.177  16.300  0.00  0.00    +0.000 A 
ATOM     14  N   UNL     1       4.786   6.515  17.066  0.00  0.00    +0.000 NA
ATOM     15  C   UNL     1       3.886   5.560  17.429  0.00  0.00    +0.000 A 
ENDBRANCH   2   5
BRANCH   1  16
ATOM     16  C   UNL     1       2.015   9.593  18.015  0.00  0.00    +0.000 C 
BRANCH  16  17
ATOM     17  C   UNL     1       0.553   9.890  18.333  0.00  0.00    +0.000 C 
BRANCH  17  18
ATOM     18  C   UNL     1       0.328  11.083  19.262  0.00  0.00    +0.000 C 
BRANCH  18  19
ATOM     19  N   UNL     1       0.263  10.758  20.719  0.00  0.00    +0.000 NA
ATOM     20  C   UNL     1      -0.236   9.380  20.958  0.00  0.00    +0.000 C 
BRANCH  19  21
ATOM     21  S   UNL     1      -0.292  11.913  21.839  0.00  0.00    +0.000 S 
ATOM     22  O   UNL     1       0.556  13.084  21.770  0.00  0.00    +0.000 OA
ATOM     23  O   UNL     1      -0.495  11.229  23.098  0.00  0.00    +0.000 OA
BRANCH  21  25
ATOM     24  C   UNL     1      -2.004  13.809  20.853  0.00  0.00    +0.000 C 
ATOM     25  C   UNL     1      -1.909  12.336  21.194  0.00  0.00    +0.000 C 
ENDBRANCH  21  25
ENDBRANCH  19  21
ENDBRANCH  18  19
ENDBRANCH  17  18
ENDBRANCH  16  17
ENDBRANCH   1  16
TORSDOF 7
ENDMDL
MODEL 4
REMARK VINA RESULT:      -7.0      6.290      7.007
REMARK  Name = 
REMARK  9 active torsions:
REMARK  status: ('A' for Active; 'I' for Inactive)
REMARK    1  A    between atoms: C_1  and  C_2
REMARK    2  A    between atoms: C_2  and  S_3
REMARK    3  A    between atoms: S_3  and  N_6
REMARK    4  A    between atoms: N_6  and  C_7
REMARK    5  A    between atoms: N_6  and  C_8
REMARK    6  A    between atoms: C_8  and  C_9
REMARK    7  A    between atoms: C_9  and  C_10
REMARK    8  A    between atoms: C_10  and  N_11
REMARK    9  A    between atoms: C_12  and  C_14
REMARK                            x       y       z     vdW  Elec       q    Type
REMARK                         _______ _______ _______ _____ _____    ______ ____
ROOT
ATOM      1  N   UNL     1       2.182   8.223  17.753  0.00  0.00    +0.000 N 
ATOM      2  C   UNL     1       2.355   7.249  18.707  0.00  0.00    +0.000 C 
ATOM      3  O   UNL     1       2.264   7.473  19.910  0.00  0.00    +0.000 OA
ATOM      4  H   UNL     1       2.335   7.963  16.778  0.00  0.00    +0.000 HD
ENDROOT
BRANCH   2   5
ATOM      5  C   UNL     1       2.673   5.866  18.225  0.00  0.00    +0.000 A 
ATOM      6  C   UNL     1       1.784   4.846  18.617  0.00  0.00    +0.000 A 
ATOM      7  C   UNL     1       1.999   3.542  18.202  0.00  0.00    +0.000 A 
ATOM      8 CL   UNL     1       0.921   2.293  18.685  0.00  0.00    +0.000 Cl
ATOM      9  C   UNL     1       3.088   3.240  17.393  0.00  0.00    +0.000 A 
ATOM     10  C   UNL     1       3.987   4.250  17.007  0.00  0.00    +0.000 A 
ATOM     11  C   UNL     1       5.084   3.947  16.196  0.00  0.00    +0.000 A 
ATOM     12  C   UNL     1       5.980   4.942  15.825  0.00  0.00    +0.000 A 
ATOM     13  C   UNL     1       5.746   6.218  16.284  0.00  0.00    +0.000 A 
ATOM     14  N   UNL     1       4.693   6.547  17.062  0.00  0.00    +0.000 NA
ATOM     15  C   UNL     1       3.800   5.587  17.428  0.00  0.00    +0.000 A 
ENDBRANCH   2   5
BRANCH   1  16
ATOM     16  C   UNL     1       1.967   9.620  18.061  0.00  0.00    +0.000 C 
BRANCH  16  17
ATOM     17  C   UNL     1       0.501   9.925  18.347  0.00  0.00    +0.000 C 
BRANCH  17  18
ATOM     18  C   UNL     1       0.221  11.355  18.810  0.00  0.00    +0.000 C 
BRANCH  18  19
ATOM     19  N   UNL     1      -0.628  11.478  20.034  0.00  0.00    +0.000 NA
ATOM     20  C   UNL     1      -1.849  12.285  19.781  0.00  0.00    +0.000 C 
BRANCH  19  21
ATOM     21  S   UNL     1       0.084  11.734  21.558  0.00  0.00    +0.000 S 
ATOM     22  O   UNL     1       0.847  12.964  21.524  0.00  0.00    +0.000 OA
ATOM     23  O   UNL     1       0.713  10.493  21.953  0.00  0.00    +0.000 OA
BRANCH  21  25
ATOM     24  C   UNL     1      -1.295  13.315  23.318  0.00  0.00    +0.000 C 
ATOM     25  C   UNL     1      -1.341  11.972  22.618  0.00  0.00    +0.000 C 
ENDBRANCH  21  25
ENDBRANCH  19  21
ENDBRANCH  18  19
ENDBRANCH  17  18
ENDBRANCH  16  17
ENDBRANCH   1  16
TORSDOF 7
ENDMDL
MODEL 5
REMARK VINA RESULT:      -6.9      7.053      8.325
REMARK  Name = 
REMARK  9 active torsions:
REMARK  status: ('A' for Active; 'I' for Inactive)
REMARK    1  A    between atoms: C_1  and  C_2
REMARK    2  A    between atoms: C_2  and  S_3
REMARK    3  A    between atoms: S_3  and  N_6
REMARK    4  A    between atoms: N_6  and  C_7
REMARK    5  A    between atoms: N_6  and  C_8
REMARK    6  A    between atoms: C_8  and  C_9
REMARK    7  A    between atoms: C_9  and  C_10
REMARK    8  A    between atoms: C_10  and  N_11
REMARK    9  A    between atoms: C_12  and  C_14
REMARK                            x       y       z     vdW  Elec       q    Type
REMARK                         _______ _______ _______ _____ _____    ______ ____
ROOT
ATOM      1  N   UNL     1       1.919   8.110  18.517  0.00  0.00    +0.000 N 
ATOM      2  C   UNL     1       1.988   7.397  19.690  0.00  0.00    +0.000 C 
ATOM      3  O   UNL     1       1.743   7.893  20.786  0.00  0.00    +0.000 OA
ATOM      4  H   UNL     1       2.198   7.636  17.658  0.00  0.00    +0.000 HD
ENDROOT
BRANCH   2   5
ATOM      5  C   UNL     1       2.390   5.957  19.594  0.00  0.00    +0.000 A 
ATOM      6  C   UNL     1       1.841   5.088  20.557  0.00  0.00    +0.000 A 
ATOM      7  C   UNL     1       2.150   3.738  20.529  0.00  0.00    +0.000 A 
ATOM      8 CL   UNL     1       1.488   2.675  21.707  0.00  0.00    +0.000 Cl
ATOM      9  C   UNL     1       2.998   3.239  19.547  0.00  0.00    +0.000 A 
ATOM     10  C   UNL     1       3.560   4.101  18.590  0.00  0.00    +0.000 A 
ATOM     11  C   UNL     1       4.415   3.600  17.603  0.00  0.00    +0.000 A 
ATOM     12  C   UNL     1       4.981   4.453  16.665  0.00  0.00    +0.000 A 
ATOM     13  C   UNL     1       4.671   5.792  16.747  0.00  0.00    +0.000 A 
ATOM     14  N   UNL     1       3.844   6.308  17.681  0.00  0.00    +0.000 NA
ATOM     15  C   UNL     1       3.272   5.486  18.603  0.00  0.00    +0.000 A 
ENDBRANCH   2   5
BRANCH   1  16
ATOM     16  C   UNL     1       1.642   9.528  18.455  0.00  0.00    +0.000 C 
BRANCH  16  17
ATOM     17  C   UNL     1       0.268   9.819  17.861  0.00  0.00    +0.000 C 
BRANCH  17  18
ATOM     18  C   UNL     1      -0.794  10.244  18.876  0.00  0.00    +0.000 C 
BRANCH  18  19
ATOM     19  N   UNL     1      -1.767  11.271  18.394  0.00  0.00    +0.000 NA
ATOM     20  C   UNL     1      -1.849  12.433  19.315  0.00  0.00    +0.000 C 
BRANCH  19  21
ATOM     21  S   UNL     1      -3.256  10.800  17.719  0.00  0.00    +0.000 S 
ATOM     22  O   UNL     1      -4.298  11.678  18.210  0.00  0.00    +0.000 OA
ATOM     23  O   UNL     1      -3.369   9.367  17.883  0.00  0.00    +0.000 OA
BRANCH  21  25
ATOM     24  C   UNL     1      -2.716   9.844  15.210  0.00  0.00    +0.000 C 
ATOM     25  C   UNL     1      -3.012  11.120  15.973  0.00  0.00    +0.000 C 
ENDBRANCH  21  25
ENDBRANCH  19  21
ENDBRANCH  18  19
ENDBRANCH  17  18
ENDBRANCH  16  17
ENDBRANCH   1  16
TORSDOF 7
ENDMDL
MODEL 6
REMARK VINA RESULT:      -6.9      6.963      8.075
REMARK  Name = 
REMARK  9 active torsions:
REMARK  status: ('A' for Active; 'I' for Inactive)
REMARK    1  A    between atoms: C_1  and  C_2
REMARK    2  A    between atoms: C_2  and  S_3
REMARK    3  A    between atoms: S_3  and  N_6
REMARK    4  A    between atoms: N_6  and  C_7
REMARK    5  A    between atoms: N_6  and  C_8
REMARK    6  A    between atoms: C_8  and  C_9
REMARK    7  A    between atoms: C_9  and  C_10
REMARK    8  A    between atoms: C_10  and  N_11
REMARK    9  A    between atoms: C_12  and  C_14
REMARK                            x       y       z     vdW  Elec       q    Type
REMARK                         _______ _______ _______ _____ _____    ______ ____
ROOT
ATOM      1  N   UNL     1       2.162   8.216  17.785  0.00  0.00    +0.000 N 
ATOM      2  C   UNL     1       2.347   7.244  18.739  0.00  0.00    +0.000 C 
ATOM      3  O   UNL     1       2.179   7.447  19.937  0.00  0.00    +0.000 OA
ATOM      4  H   UNL     1       2.383   7.978  16.818  0.00  0.00    +0.000 HD
ENDROOT
BRANCH   2   5
ATOM      5  C   UNL     1       2.780   5.891  18.263  0.00  0.00    +0.000 A 
ATOM      6  C   UNL     1       1.929   4.814  18.579  0.00  0.00    +0.000 A 
ATOM      7  C   UNL     1       2.249   3.531  18.164  0.00  0.00    +0.000 A 
ATOM      8 CL   UNL     1       1.217   2.213  18.555  0.00  0.00    +0.000 Cl
ATOM      9  C   UNL     1       3.407   3.308  17.429  0.00  0.00    +0.000 A 
ATOM     10  C   UNL     1       4.268   4.374  17.119  0.00  0.00    +0.000 A 
ATOM     11  C   UNL     1       5.435   4.150  16.382  0.00  0.00    +0.000 A 
ATOM     12  C   UNL     1       6.293   5.201  16.087  0.00  0.00    +0.000 A 
ATOM     13  C   UNL     1       5.952   6.454  16.544  0.00  0.00    +0.000 A 
ATOM     14  N   UNL     1       4.831   6.708  17.252  0.00  0.00    +0.000 NA
ATOM     15  C   UNL     1       3.973   5.691  17.542  0.00  0.00    +0.000 A 
ENDBRANCH   2   5
BRANCH   1  16
ATOM     16  C   UNL     1       1.841   9.592  18.093  0.00  0.00    +0.000 C 
BRANCH  16  17
ATOM     17  C   UNL     1       0.371   9.909  17.839  0.00  0.00    +0.000 C 
BRANCH  17  18
ATOM     18  C   UNL     1      -0.366  10.529  19.026  0.00  0.00    +0.000 C 
BRANCH  18  19
ATOM     19  N   UNL     1      -1.507  11.429  18.675  0.00  0.00    +0.000 NA
ATOM     20  C   UNL     1      -1.933  12.260  19.829  0.00  0.00    +0.000 C 
BRANCH  19  21
ATOM     21  S   UNL     1      -2.784  10.865  17.701  0.00  0.00    +0.000 S 
ATOM     22  O   UNL     1      -2.961   9.446  17.928  0.00  0.00    +0.000 OA
ATOM     23  O   UNL     1      -2.561  11.371  16.365  0.00  0.00    +0.000 OA
BRANCH  21  25
ATOM     24  C   UNL     1      -5.478  10.947  18.181  0.00  0.00    +0.000 C 
ATOM     25  C   UNL     1      -4.199  11.735  18.373  0.00  0.00    +0.000 C 
ENDBRANCH  21  25
ENDBRANCH  19  21
ENDBRANCH  18  19
ENDBRANCH  17  18
ENDBRANCH  16  17
ENDBRANCH   1  16
TORSDOF 7
ENDMDL
MODEL 7
REMARK VINA RESULT:      -6.9      5.890      6.671
REMARK  Name = 
REMARK  9 active torsions:
REMARK  status: ('A' for Active; 'I' for Inactive)
REMARK    1  A    between atoms: C_1  and  C_2
REMARK    2  A    between atoms: C_2  and  S_3
REMARK    3  A    between atoms: S_3  and  N_6
REMARK    4  A    between atoms: N_6  and  C_7
REMARK    5  A    between atoms: N_6  and  C_8
REMARK    6  A    between atoms: C_8  and  C_9
REMARK    7  A    between atoms: C_9  and  C_10
REMARK    8  A    between atoms: C_10  and  N_11
REMARK    9  A    between atoms: C_12  and  C_14
REMARK                            x       y       z     vdW  Elec       q    Type
REMARK                         _______ _______ _______ _____ _____    ______ ____
ROOT
ATOM      1  N   UNL     1       2.066   8.156  17.799  0.00  0.00    +0.000 N 
ATOM      2  C   UNL     1       2.305   7.193  18.752  0.00  0.00    +0.000 C 
ATOM      3  O   UNL     1       2.221   7.414  19.956  0.00  0.00    +0.000 OA
ATOM      4  H   UNL     1       2.219   7.902  16.823  0.00  0.00    +0.000 HD
ENDROOT
BRANCH   2   5
ATOM      5  C   UNL     1       2.691   5.829  18.266  0.00  0.00    +0.000 A 
ATOM      6  C   UNL     1       1.855   4.766  18.659  0.00  0.00    +0.000 A 
ATOM      7  C   UNL     1       2.133   3.474  18.241  0.00  0.00    +0.000 A 
ATOM      8 CL   UNL     1       1.119   2.173  18.725  0.00  0.00    +0.000 Cl
ATOM      9  C   UNL     1       3.233   3.228  17.428  0.00  0.00    +0.000 A 
ATOM     10  C   UNL     1       4.079   4.282  17.042  0.00  0.00    +0.000 A 
ATOM     11  C   UNL     1       5.188   4.036  16.226  0.00  0.00    +0.000 A 
ATOM     12  C   UNL     1       6.031   5.074  15.854  0.00  0.00    +0.000 A 
ATOM     13  C   UNL     1       5.736   6.336  16.316  0.00  0.00    +0.000 A 
ATOM     14  N   UNL     1       4.671   6.611  17.098  0.00  0.00    +0.000 NA
ATOM     15  C   UNL     1       3.827   5.608  17.465  0.00  0.00    +0.000 A 
ENDBRANCH   2   5
BRANCH   1  16
ATOM     16  C   UNL     1       1.782   9.539  18.110  0.00  0.00    +0.000 C 
BRANCH  16  17
ATOM     17  C   UNL     1       0.285   9.802  18.237  0.00  0.00    +0.000 C 
BRANCH  17  18
ATOM     18  C   UNL     1      -0.086  11.242  18.593  0.00  0.00    +0.000 C 
BRANCH  18  19
ATOM     19  N   UNL     1      -0.563  11.455  19.992  0.00  0.00    +0.000 NA
ATOM     20  C   UNL     1      -1.804  12.269  20.037  0.00  0.00    +0.000 C 
BRANCH  19  21
ATOM     21  S   UNL     1       0.543  11.786  21.242  0.00  0.00    +0.000 S 
ATOM     22  O   UNL     1       1.171  10.550  21.659  0.00  0.00    +0.000 OA
ATOM     23  O   UNL     1      -0.135  12.624  22.206  0.00  0.00    +0.000 OA
BRANCH  21  25
ATOM     24  C   UNL     1       1.350  14.258  20.385  0.00  0.00    +0.000 C 
ATOM     25  C   UNL     1       1.768  12.802  20.419  0.00  0.00    +0.000 C 
ENDBRANCH  21  25
ENDBRANCH  19  21
ENDBRANCH  18  19
ENDBRANCH  17  18
ENDBRANCH  16  17
ENDBRANCH   1  16
TORSDOF 7
ENDMDL
MODEL 8
REMARK VINA RESULT:      -6.8      6.300      7.443
REMARK  Name = 
REMARK  9 active torsions:
REMARK  status: ('A' for Active; 'I' for Inactive)
REMARK    1  A    between atoms: C_1  and  C_2
REMARK    2  A    between atoms: C_2  and  S_3
REMARK    3  A    between atoms: S_3  and  N_6
REMARK    4  A    between atoms: N_6  and  C_7
REMARK    5  A    between atoms: N_6  and  C_8
REMARK    6  A    between atoms: C_8  and  C_9
REMARK    7  A    between atoms: C_9  and  C_10
REMARK    8  A    between atoms: C_10  and  N_11
REMARK    9  A    between atoms: C_12  and  C_14
REMARK                            x       y       z     vdW  Elec       q    Type
REMARK                         _______ _______ _______ _____ _____    ______ ____
ROOT
ATOM      1  N   UNL     1       2.339   8.403  17.682  0.00  0.00    +0.000 N 
ATOM      2  C   UNL     1       2.620   7.358  18.531  0.00  0.00    +0.000 C 
ATOM      3  O   UNL     1       2.425   7.414  19.741  0.00  0.00    +0.000 OA
ATOM      4  H   UNL     1       2.589   8.293  16.699  0.00  0.00    +0.000 HD
ENDROOT
BRANCH   2   5
ATOM      5  C   UNL     1       3.195   6.116  17.922  0.00  0.00    +0.000 A 
ATOM      6  C   UNL     1       4.316   6.289  17.087  0.00  0.00    +0.000 A 
ATOM      7  C   UNL     1       4.917   5.190  16.495  0.00  0.00    +0.000 A 
ATOM      8 CL   UNL     1       6.281   5.397  15.470  0.00  0.00    +0.000 Cl
ATOM      9  C   UNL     1       4.418   3.914  16.731  0.00  0.00    +0.000 A 
ATOM     10  C   UNL     1       3.292   3.734  17.553  0.00  0.00    +0.000 A 
ATOM     11  C   UNL     1       2.787   2.451  17.789  0.00  0.00    +0.000 A 
ATOM     12  C   UNL     1       1.667   2.273  18.590  0.00  0.00    +0.000 A 
ATOM     13  C   UNL     1       1.083   3.395  19.133  0.00  0.00    +0.000 A 
ATOM     14  N   UNL     1       1.548   4.646  18.933  0.00  0.00    +0.000 NA
ATOM     15  C   UNL     1       2.650   4.839  18.158  0.00  0.00    +0.000 A 
ENDBRANCH   2   5
BRANCH   1  16
ATOM     16  C   UNL     1       1.873   9.697  18.129  0.00  0.00    +0.000 C 
BRANCH  16  17
ATOM     17  C   UNL     1       0.353   9.755  18.233  0.00  0.00    +0.000 C 
BRANCH  17  18
ATOM     18  C   UNL     1      -0.191   9.813  19.660  0.00  0.00    +0.000 C 
BRANCH  18  19
ATOM     19  N   UNL     1      -0.829  11.106  20.052  0.00  0.00    +0.000 NA
ATOM     20  C   UNL     1      -1.552  11.734  18.917  0.00  0.00    +0.000 C 
BRANCH  19  21
ATOM     21  S   UNL     1      -0.008  12.204  21.060  0.00  0.00    +0.000 S 
ATOM     22  O   UNL     1      -0.136  13.538  20.511  0.00  0.00    +0.000 OA
ATOM     23  O   UNL     1       1.299  11.646  21.330  0.00  0.00    +0.000 OA
BRANCH  21  25
ATOM     24  C   UNL     1      -1.054  10.693  23.090  0.00  0.00    +0.000 C 
ATOM     25  C   UNL     1      -0.950  12.116  22.581  0.00  0.00    +0.000 C 
ENDBRANCH  21  25
ENDBRANCH  19  21
ENDBRANCH  18  19
ENDBRANCH  17  18
ENDBRANCH  16  17
ENDBRANCH   1  16
TORSDOF 7
ENDMDL
MODEL 9
REMARK VINA RESULT:      -6.8      6.277      7.466
REMARK  Name = 
REMARK  9 active torsions:
REMARK  status: ('A' for Active; 'I' for Inactive)
REMARK    1  A    between atoms: C_1  and  C_2
REMARK    2  A    between atoms: C_2  and  S_3
REMARK    3  A    between atoms: S_3  and  N_6
REMARK    4  A    between atoms: N_6  and  C_7
REMARK    5  A    between atoms: N_6  and  C_8
REMARK    6  A    between atoms: C_8  and  C_9
REMARK    7  A    between atoms: C_9  and  C_10
REMARK    8  A    between atoms: C_10  and  N_11
REMARK    9  A    between atoms: C_12  and  C_14
REMARK                            x       y       z     vdW  Elec       q    Type
REMARK                         _______ _______ _______ _____ _____    ______ ____
ROOT
ATOM      1  N   UNL     1       2.182   7.707  19.399  0.00  0.00    +0.000 N 
ATOM      2  C   UNL     1       2.687   7.635  18.122  0.00  0.00    +0.000 C 
ATOM      3  O   UNL     1       2.466   8.490  17.270  0.00  0.00    +0.000 OA
ATOM      4  H   UNL     1       2.365   6.923  20.024  0.00  0.00    +0.000 HD
ENDROOT
BRANCH   2   5
ATOM      5  C   UNL     1       3.534   6.445  17.786  0.00  0.00    +0.000 A 
ATOM      6  C   UNL     1       4.859   6.711  17.390  0.00  0.00    +0.000 A 
ATOM      7  C   UNL     1       5.712   5.665  17.076  0.00  0.00    +0.000 A 
ATOM      8 CL   UNL     1       7.328   5.986  16.585  0.00  0.00    +0.000 Cl
ATOM      9  C   UNL     1       5.263   4.353  17.159  0.00  0.00    +0.000 A 
ATOM     10  C   UNL     1       3.938   4.079  17.541  0.00  0.00    +0.000 A 
ATOM     11  C   UNL     1       3.484   2.759  17.622  0.00  0.00    +0.000 A 
ATOM     12  C   UNL     1       2.172   2.488  17.987  0.00  0.00    +0.000 A 
ATOM     13  C   UNL     1       1.349   3.557  18.261  0.00  0.00    +0.000 A 
ATOM     14  N   UNL     1       1.756   4.843  18.200  0.00  0.00    +0.000 NA
ATOM     15  C   UNL     1       3.041   5.127  17.854  0.00  0.00    +0.000 A 
ENDBRANCH   2   5
BRANCH   1  16
ATOM     16  C   UNL     1       1.272   8.739  19.844  0.00  0.00    +0.000 C 
BRANCH  16  17
ATOM     17  C   UNL     1       0.760   8.481  21.256  0.00  0.00    +0.000 C 
BRANCH  17  18
ATOM     18  C   UNL     1       1.268   9.461  22.314  0.00  0.00    +0.000 C 
BRANCH  18  19
ATOM     19  N   UNL     1       0.336  10.579  22.653  0.00  0.00    +0.000 NA
ATOM     20  C   UNL     1      -0.972  10.080  23.150  0.00  0.00    +0.000 C 
BRANCH  19  21
ATOM     21  S   UNL     1       0.233  11.952  21.652  0.00  0.00    +0.000 S 
ATOM     22  O   UNL     1       1.469  12.091  20.911  0.00  0.00    +0.000 OA
ATOM     23  O   UNL     1      -0.259  13.042  22.466  0.00  0.00    +0.000 OA
BRANCH  21  25
ATOM     24  C   UNL     1      -2.043  12.650  20.300  0.00  0.00    +0.000 C 
ATOM     25  C   UNL     1      -1.074  11.505  20.511  0.00  0.00    +0.000 C 
ENDBRANCH  21  25
ENDBRANCH  19  21
ENDBRANCH  18  19
ENDBRANCH  17  18
ENDBRANCH  16  17
ENDBRANCH   1  16
TORSDOF 7
ENDMDL
