MODEL 1
REMARK VINA RESULT:      -7.3      0.000      0.000
REMARK  Name = 
REMARK  10 active torsions:
REMARK  status: ('A' for Active; 'I' for Inactive)
REMARK    1  A    between atoms: C_1  and  C_2
REMARK    2  A    between atoms: C_2  and  C_3
REMARK    3  A    between atoms: C_3  and  C_4
REMARK    4  A    between atoms: C_4  and  C_5
REMARK    5  A    between atoms: C_5  and  C_6
REMARK    6  A    between atoms: C_6  and  C_7
REMARK    7  A    between atoms: C_7  and  C_8
REMARK    8  A    between atoms: C_8  and  O_9
REMARK    9  A    between atoms: O_9  and  C_10
REMARK   10  A    between atoms: C_10  and  C_12
REMARK                            x       y       z     vdW  Elec       q    Type
REMARK                         _______ _______ _______ _____ _____    ______ ____
ROOT
ATOM      1  C   UNL     1       1.521   8.560  19.614  0.00  0.00    +0.000 A 
ATOM      2  C   UNL     1       1.675   8.349  20.977  0.00  0.00    +0.000 A 
ATOM      3  C   UNL     1       0.934   9.132  21.854  0.00  0.00    +0.000 A 
ATOM      4  C   UNL     1       0.060  10.097  21.345  0.00  0.00    +0.000 A 
ATOM      5  C   UNL     1      -0.026  10.272  19.978  0.00  0.00    +0.000 A 
ATOM      6  N   UNL     1       0.695   9.522  19.099  0.00  0.00    +0.000 NA
ATOM      7  C   UNL     1      -0.936  11.312  19.418  0.00  0.00    +0.000 C 
ATOM      8  O   UNL     1      -1.067  11.500  18.210  0.00  0.00    +0.000 OA
ATOM      9  C   UNL     1      -1.725  12.166  20.394  0.00  0.00    +0.000 C 
ATOM     10  C   UNL     1      -1.609  11.935  21.711  0.00  0.00    +0.000 C 
ATOM     11  C   UNL     1      -0.759  10.881  22.265  0.00  0.00    +0.000 C 
ATOM     12  O   UNL     1      -0.715  10.614  23.462  0.00  0.00    +0.000 OA
ATOM     13  S   UNL     1      -2.557  12.858  22.822  0.00  0.00    +0.000 S 
ATOM     14  O   UNL     1      -1.716  13.363  23.893  0.00  0.00    +0.000 OA
ATOM     15  O   UNL     1      -3.770  12.120  23.129  0.00  0.00    +0.000 OA
ATOM     16  C   UNL     1      -3.048  14.283  21.907  0.00  0.00    +0.000 C 
ATOM     17  C   UNL     1      -3.595  13.840  20.574  0.00  0.00    +0.000 C 
ATOM     18  N   UNL     1      -2.538  13.156  19.848  0.00  0.00    +0.000 N 
ATOM     19  H   UNL     1      -2.664  13.061  18.829  0.00  0.00    +0.000 HD
ENDROOT
BRANCH   1  20
ATOM     20  C   UNL     1       2.360   7.748  18.666  0.00  0.00    +0.000 C 
ATOM     21  O   UNL     1       2.941   8.217  17.697  0.00  0.00    +0.000 OA
BRANCH  20  22
ATOM     22  O   UNL     1       2.280   6.439  18.999  0.00  0.00    +0.000 OA
BRANCH  22  23
ATOM     23  C   UNL     1       3.536   5.759  18.992  0.00  0.00    +0.000 C 
BRANCH  23  24
ATOM     24  C   UNL     1       3.801   5.089  17.650  0.00  0.00    +0.000 C 
BRANCH  24  25
ATOM     25  C   UNL     1       3.718   3.565  17.777  0.00  0.00    +0.000 C 
BRANCH  25  26
ATOM     26  C   UNL     1       2.279   3.058  17.660  0.00  0.00    +0.000 C 
BRANCH  26  27
ATOM     27  C   UNL     1       1.867   2.250  18.894  0.00  0.00    +0.000 C 
BRANCH  27  28
ATOM     28  C   UNL     1       0.833   3.003  19.733  0.00  0.00    +0.000 C 
BRANCH  28  30
ATOM     29  C   UNL     1       2.679   2.687  21.417  0.00  0.00    +0.000 C 
ATOM     30  C   UNL     1       1.204   3.002  21.216  0.00  0.00    +0.000 C 
ENDBRANCH  28  30
ENDBRANCH  27  28
ENDBRANCH  26  27
ENDBRANCH  25  26
ENDBRANCH  24  25
ENDBRANCH  23  24
ENDBRANCH  22  23
ENDBRANCH  20  22
ENDBRANCH   1  20
TORSDOF 9
ENDMDL
MODEL 2
REMARK VINA RESULT:      -7.2      1.669      2.750
REMARK  Name = 
REMARK  10 active torsions:
REMARK  status: ('A' for Active; 'I' for Inactive)
REMARK    1  A    between atoms: C_1  and  C_2
REMARK    2  A    between atoms: C_2  and  C_3
REMARK    3  A    between atoms: C_3  and  C_4
REMARK    4  A    between atoms: C_4  and  C_5
REMARK    5  A    between atoms: C_5  and  C_6
REMARK    6  A    between atoms: C_6  and  C_7
REMARK    7  A    between atoms: C_7  and  C_8
REMARK    8  A    between atoms: C_8  and  O_9
REMARK    9  A    between atoms: O_9  and  C_10
REMARK   10  A    between atoms: C_10  and  C_12
REMARK                            x       y       z     vdW  Elec       q    Type
REMARK                         _______ _______ _______ _____ _____    ______ ____
ROOT
ATOM      1  C   UNL     1       2.254   7.796  19.163  0.00  0.00    +0.000 A 
ATOM      2  C   UNL     1       1.873   8.390  17.967  0.00  0.00    +0.000 A 
ATOM      3  C   UNL     1       0.969   9.444  18.012  0.00  0.00    +0.000 A 
ATOM      4  C   UNL     1       0.476   9.875  19.247  0.00  0.00    +0.000 A 
ATOM      5  C   UNL     1       0.877   9.224  20.396  0.00  0.00    +0.000 A 
ATOM      6  N   UNL     1       1.757   8.184  20.377  0.00  0.00    +0.000 NA
ATOM      7  C   UNL     1       0.344   9.656  21.720  0.00  0.00    +0.000 C 
ATOM      8  O   UNL     1       0.679   9.125  22.778  0.00  0.00    +0.000 OA
ATOM      9  C   UNL     1      -0.654  10.799  21.745  0.00  0.00    +0.000 C 
ATOM     10  C   UNL     1      -0.991  11.402  20.594  0.00  0.00    +0.000 C 
ATOM     11  C   UNL     1      -0.432  11.018  19.298  0.00  0.00    +0.000 C 
ATOM     12  O   UNL     1      -0.675  11.621  18.257  0.00  0.00    +0.000 OA
ATOM     13  S   UNL     1      -2.074  12.747  20.626  0.00  0.00    +0.000 S 
ATOM     14  O   UNL     1      -3.116  12.571  19.629  0.00  0.00    +0.000 OA
ATOM     15  O   UNL     1      -1.296  13.974  20.663  0.00  0.00    +0.000 OA
ATOM     16  C   UNL     1      -2.894  12.620  22.182  0.00  0.00    +0.000 C 
ATOM     17  C   UNL     1      -1.862  12.406  23.259  0.00  0.00    +0.000 C 
ATOM     18  N   UNL     1      -1.167  11.158  22.989  0.00  0.00    +0.000 N 
ATOM     19  H   UNL     1      -0.654  10.735  23.777  0.00  0.00    +0.000 HD
ENDROOT
BRANCH   1  20
ATOM     20  C   UNL     1       3.194   6.623  19.111  0.00  0.00    +0.000 C 
ATOM     21  O   UNL     1       3.306   5.799  20.008  0.00  0.00    +0.000 OA
BRANCH  20  22
ATOM     22  O   UNL     1       3.941   6.691  17.985  0.00  0.00    +0.000 OA
BRANCH  22  23
ATOM     23  C   UNL     1       3.850   5.534  17.154  0.00  0.00    +0.000 C 
BRANCH  23  24
ATOM     24  C   UNL     1       4.928   4.514  17.496  0.00  0.00    +0.000 C 
BRANCH  24  25
ATOM     25  C   UNL     1       4.302   3.189  17.942  0.00  0.00    +0.000 C 
BRANCH  25  26
ATOM     26  C   UNL     1       2.818   3.106  17.577  0.00  0.00    +0.000 C 
BRANCH  26  27
ATOM     27  C   UNL     1       2.087   2.069  18.436  0.00  0.00    +0.000 C 
BRANCH  27  28
ATOM     28  C   UNL     1       0.726   2.590  18.899  0.00  0.00    +0.000 C 
BRANCH  28  30
ATOM     29  C   UNL     1       1.499   2.772  21.289  0.00  0.00    +0.000 C 
ATOM     30  C   UNL     1       0.858   3.502  20.118  0.00  0.00    +0.000 C 
ENDBRANCH  28  30
ENDBRANCH  27  28
ENDBRANCH  26  27
ENDBRANCH  25  26
ENDBRANCH  24  25
ENDBRANCH  23  24
ENDBRANCH  22  23
ENDBRANCH  20  22
ENDBRANCH   1  20
TORSDOF 9
ENDMDL
MODEL 3
REMARK VINA RESULT:      -7.2      3.080      5.052
REMARK  Name = 
REMARK  10 active torsions:
REMARK  status: ('A' for Active; 'I' for Inactive)
REMARK    1  A    between atoms: C_1  and  C_2
REMARK    2  A    between atoms: C_2  and  C_3
REMARK    3  A    between atoms: C_3  and  C_4
REMARK    4  A    between atoms: C_4  and  C_5
REMARK    5  A    between atoms: C_5  and  C_6
REMARK    6  A    between atoms: C_6  and  C_7
REMARK    7  A    between atoms: C_7  and  C_8
REMARK    8  A    between atoms: C_8  and  O_9
REMARK    9  A    between atoms: O_9  and  C_10
REMARK   10  A    between atoms: C_10  and  C_12
REMARK                            x       y       z     vdW  Elec       q    Type
REMARK                         _______ _______ _______ _____ _____    ______ ____
ROOT
ATOM      1  C   UNL     1       2.740   5.013  19.283  0.00  0.00    +0.000 A 
ATOM      2  C   UNL     1       2.168   4.949  20.546  0.00  0.00    +0.000 A 
ATOM      3  C   UNL     1       1.588   6.099  21.067  0.00  0.00    +0.000 A 
ATOM      4  C   UNL     1       1.592   7.275  20.312  0.00  0.00    +0.000 A 
ATOM      5  C   UNL     1       2.200   7.276  19.072  0.00  0.00    +0.000 A 
ATOM      6  N   UNL     1       2.781   6.163  18.543  0.00  0.00    +0.000 NA
ATOM      7  C   UNL     1       2.234   8.526  18.261  0.00  0.00    +0.000 C 
ATOM      8  O   UNL     1       2.745   8.582  17.144  0.00  0.00    +0.000 OA
ATOM      9  C   UNL     1       1.608   9.775  18.855  0.00  0.00    +0.000 C 
ATOM     10  C   UNL     1       1.018   9.704  20.059  0.00  0.00    +0.000 C 
ATOM     11  C   UNL     1       0.934   8.468  20.837  0.00  0.00    +0.000 C 
ATOM     12  O   UNL     1       0.324   8.382  21.898  0.00  0.00    +0.000 OA
ATOM     13  S   UNL     1       0.244  11.105  20.709  0.00  0.00    +0.000 S 
ATOM     14  O   UNL     1       0.664  11.314  22.084  0.00  0.00    +0.000 OA
ATOM     15  O   UNL     1      -1.169  11.059  20.374  0.00  0.00    +0.000 OA
ATOM     16  C   UNL     1       0.934  12.453  19.804  0.00  0.00    +0.000 C 
ATOM     17  C   UNL     1       0.883  12.127  18.333  0.00  0.00    +0.000 C 
ATOM     18  N   UNL     1       1.686  10.940  18.096  0.00  0.00    +0.000 N 
ATOM     19  H   UNL     1       1.986  10.771  17.124  0.00  0.00    +0.000 HD
ENDROOT
BRANCH   1  20
ATOM     20  C   UNL     1       3.412   3.782  18.739  0.00  0.00    +0.000 C 
ATOM     21  O   UNL     1       3.147   2.644  19.101  0.00  0.00    +0.000 OA
BRANCH  20  22
ATOM     22  O   UNL     1       4.396   4.144  17.884  0.00  0.00    +0.000 OA
BRANCH  22  23
ATOM     23  C   UNL     1       5.647   4.413  18.517  0.00  0.00    +0.000 C 
BRANCH  23  24
ATOM     24  C   UNL     1       6.517   5.330  17.667  0.00  0.00    +0.000 C 
BRANCH  24  25
ATOM     25  C   UNL     1       7.103   4.571  16.472  0.00  0.00    +0.000 C 
BRANCH  25  26
ATOM     26  C   UNL     1       6.600   5.127  15.138  0.00  0.00    +0.000 C 
BRANCH  26  27
ATOM     27  C   UNL     1       5.750   4.098  14.387  0.00  0.00    +0.000 C 
BRANCH  27  28
ATOM     28  C   UNL     1       6.382   3.727  13.044  0.00  0.00    +0.000 C 
BRANCH  28  30
ATOM     29  C   UNL     1       5.706   1.905  11.443  0.00  0.00    +0.000 C 
ATOM     30  C   UNL     1       5.331   3.253  12.040  0.00  0.00    +0.000 C 
ENDBRANCH  28  30
ENDBRANCH  27  28
ENDBRANCH  26  27
ENDBRANCH  25  26
ENDBRANCH  24  25
ENDBRANCH  23  24
ENDBRANCH  22  23
ENDBRANCH  20  22
ENDBRANCH   1  20
TORSDOF 9
ENDMDL
MODEL 4
REMARK VINA RESULT:      -7.1      2.877      4.611
REMARK  Name = 
REMARK  10 active torsions:
REMARK  status: ('A' for Active; 'I' for Inactive)
REMARK    1  A    between atoms: C_1  and  C_2
REMARK    2  A    between atoms: C_2  and  C_3
REMARK    3  A    between atoms: C_3  and  C_4
REMARK    4  A    between atoms: C_4  and  C_5
REMARK    5  A    between atoms: C_5  and  C_6
REMARK    6  A    between atoms: C_6  and  C_7
REMARK    7  A    between atoms: C_7  and  C_8
REMARK    8  A    between atoms: C_8  and  O_9
REMARK    9  A    between atoms: O_9  and  C_10
REMARK   10  A    between atoms: C_10  and  C_12
REMARK                            x       y       z     vdW  Elec       q    Type
REMARK                         _______ _______ _______ _____ _____    ______ ____
ROOT
ATOM      1  C   UNL     1       2.720   5.912  19.048  0.00  0.00    +0.000 A 
ATOM      2  C   UNL     1       2.192   5.713  20.316  0.00  0.00    +0.000 A 
ATOM      3  C   UNL     1       1.523   6.768  20.925  0.00  0.00    +0.000 A 
ATOM      4  C   UNL     1       1.398   7.986  20.250  0.00  0.00    +0.000 A 
ATOM      5  C   UNL     1       1.970   8.123  19.000  0.00  0.00    +0.000 A 
ATOM      6  N   UNL     1       2.636   7.106  18.386  0.00  0.00    +0.000 NA
ATOM      7  C   UNL     1       1.866   9.421  18.274  0.00  0.00    +0.000 C 
ATOM      8  O   UNL     1       2.339   9.596  17.152  0.00  0.00    +0.000 OA
ATOM      9  C   UNL     1       1.145  10.565  18.964  0.00  0.00    +0.000 C 
ATOM     10  C   UNL     1       0.597  10.362  20.172  0.00  0.00    +0.000 C 
ATOM     11  C   UNL     1       0.648   9.076  20.867  0.00  0.00    +0.000 C 
ATOM     12  O   UNL     1       0.078   8.866  21.933  0.00  0.00    +0.000 OA
ATOM     13  S   UNL     1      -0.284  11.640  20.930  0.00  0.00    +0.000 S 
ATOM     14  O   UNL     1       0.153  11.798  22.307  0.00  0.00    +0.000 OA
ATOM     15  O   UNL     1      -1.696  11.483  20.624  0.00  0.00    +0.000 OA
ATOM     16  C   UNL     1       0.254  13.102  20.103  0.00  0.00    +0.000 C 
ATOM     17  C   UNL     1       0.193  12.869  18.615  0.00  0.00    +0.000 C 
ATOM     18  N   UNL     1       1.095  11.779  18.282  0.00  0.00    +0.000 N 
ATOM     19  H   UNL     1       1.382  11.702  17.295  0.00  0.00    +0.000 HD
ENDROOT
BRANCH   1  20
ATOM     20  C   UNL     1       3.487   4.787  18.409  0.00  0.00    +0.000 C 
ATOM     21  O   UNL     1       3.086   4.150  17.445  0.00  0.00    +0.000 OA
BRANCH  20  22
ATOM     22  O   UNL     1       4.610   4.542  19.122  0.00  0.00    +0.000 OA
BRANCH  22  23
ATOM     23  C   UNL     1       5.803   4.512  18.338  0.00  0.00    +0.000 C 
BRANCH  23  24
ATOM     24  C   UNL     1       6.306   5.917  18.031  0.00  0.00    +0.000 C 
BRANCH  24  25
ATOM     25  C   UNL     1       6.962   5.970  16.648  0.00  0.00    +0.000 C 
BRANCH  25  26
ATOM     26  C   UNL     1       6.023   5.468  15.549  0.00  0.00    +0.000 C 
BRANCH  26  27
ATOM     27  C   UNL     1       6.716   4.448  14.641  0.00  0.00    +0.000 C 
BRANCH  27  28
ATOM     28  C   UNL     1       5.718   3.774  13.698  0.00  0.00    +0.000 C 
BRANCH  28  30
ATOM     29  C   UNL     1       7.377   4.569  11.977  0.00  0.00    +0.000 C 
ATOM     30  C   UNL     1       6.331   3.518  12.321  0.00  0.00    +0.000 C 
ENDBRANCH  28  30
ENDBRANCH  27  28
ENDBRANCH  26  27
ENDBRANCH  25  26
ENDBRANCH  24  25
ENDBRANCH  23  24
ENDBRANCH  22  23
ENDBRANCH  20  22
ENDBRANCH   1  20
TORSDOF 9
ENDMDL
MODEL 5
REMARK VINA RESULT:      -7.1      2.754      4.795
REMARK  Name = 
REMARK  10 active torsions:
REMARK  status: ('A' for Active; 'I' for Inactive)
REMARK    1  A    between atoms: C_1  and  C_2
REMARK    2  A    between atoms: C_2  and  C_3
REMARK    3  A    between atoms: C_3  and  C_4
REMARK    4  A    between atoms: C_4  and  C_5
REMARK    5  A    between atoms: C_5  and  C_6
REMARK    6  A    between atoms: C_6  and  C_7
REMARK    7  A    between atoms: C_7  and  C_8
REMARK    8  A    between atoms: C_8  and  O_9
REMARK    9  A    between atoms: O_9  and  C_10
REMARK   10  A    between atoms: C_10  and  C_12
REMARK                            x       y       z     vdW  Elec       q    Type
REMARK                         _______ _______ _______ _____ _____    ______ ____
ROOT
ATOM      1  C   UNL     1       2.630   4.868  19.063  0.00  0.00    +0.000 A 
ATOM      2  C   UNL     1       2.057   4.794  20.325  0.00  0.00    +0.000 A 
ATOM      3  C   UNL     1       1.521   5.951  20.876  0.00  0.00    +0.000 A 
ATOM      4  C   UNL     1       1.569   7.145  20.151  0.00  0.00    +0.000 A 
ATOM      5  C   UNL     1       2.176   7.155  18.911  0.00  0.00    +0.000 A 
ATOM      6  N   UNL     1       2.714   6.035  18.352  0.00  0.00    +0.000 NA
ATOM      7  C   UNL     1       2.255   8.424  18.132  0.00  0.00    +0.000 C 
ATOM      8  O   UNL     1       2.767   8.489  17.015  0.00  0.00    +0.000 OA
ATOM      9  C   UNL     1       1.677   9.679  18.759  0.00  0.00    +0.000 C 
ATOM     10  C   UNL     1       1.086   9.600  19.961  0.00  0.00    +0.000 C 
ATOM     11  C   UNL     1       0.957   8.348  20.707  0.00  0.00    +0.000 C 
ATOM     12  O   UNL     1       0.345   8.259  21.767  0.00  0.00    +0.000 OA
ATOM     13  S   UNL     1       0.366  11.012  20.648  0.00  0.00    +0.000 S 
ATOM     14  O   UNL     1       0.795  11.169  22.027  0.00  0.00    +0.000 OA
ATOM     15  O   UNL     1      -1.048  11.027  20.315  0.00  0.00    +0.000 OA
ATOM     16  C   UNL     1       1.106  12.356  19.777  0.00  0.00    +0.000 C 
ATOM     17  C   UNL     1       1.041  12.070  18.298  0.00  0.00    +0.000 C 
ATOM     18  N   UNL     1       1.799  10.860  18.029  0.00  0.00    +0.000 N 
ATOM     19  H   UNL     1       2.091  10.704  17.053  0.00  0.00    +0.000 HD
ENDROOT
BRANCH   1  20
ATOM     20  C   UNL     1       3.254   3.628  18.486  0.00  0.00    +0.000 C 
ATOM     21  O   UNL     1       2.681   2.550  18.405  0.00  0.00    +0.000 OA
BRANCH  20  22
ATOM     22  O   UNL     1       4.548   3.874  18.177  0.00  0.00    +0.000 OA
BRANCH  22  23
ATOM     23  C   UNL     1       5.399   4.033  19.313  0.00  0.00    +0.000 C 
BRANCH  23  24
ATOM     24  C   UNL     1       6.240   5.299  19.208  0.00  0.00    +0.000 C 
BRANCH  24  25
ATOM     25  C   UNL     1       7.289   5.165  18.100  0.00  0.00    +0.000 C 
BRANCH  25  26
ATOM     26  C   UNL     1       7.298   6.380  17.170  0.00  0.00    +0.000 C 
BRANCH  26  27
ATOM     27  C   UNL     1       5.875   6.819  16.808  0.00  0.00    +0.000 C 
BRANCH  27  28
ATOM     28  C   UNL     1       5.268   5.910  15.737  0.00  0.00    +0.000 C 
BRANCH  28  30
ATOM     29  C   UNL     1       6.108   3.865  14.532  0.00  0.00    +0.000 C 
ATOM     30  C   UNL     1       6.341   5.342  14.808  0.00  0.00    +0.000 C 
ENDBRANCH  28  30
ENDBRANCH  27  28
ENDBRANCH  26  27
ENDBRANCH  25  26
ENDBRANCH  24  25
ENDBRANCH  23  24
ENDBRANCH  22  23
ENDBRANCH  20  22
ENDBRANCH   1  20
TORSDOF 9
ENDMDL
MODEL 6
REMARK VINA RESULT:      -7.1      3.558      8.680
REMARK  Name = 
REMARK  10 active torsions:
REMARK  status: ('A' for Active; 'I' for Inactive)
REMARK    1  A    between atoms: C_1  and  C_2
REMARK    2  A    between atoms: C_2  and  C_3
REMARK    3  A    between atoms: C_3  and  C_4
REMARK    4  A    between atoms: C_4  and  C_5
REMARK    5  A    between atoms: C_5  and  C_6
REMARK    6  A    between atoms: C_6  and  C_7
REMARK    7  A    between atoms: C_7  and  C_8
REMARK    8  A    between atoms: C_8  and  O_9
REMARK    9  A    between atoms: O_9  and  C_10
REMARK   10  A    between atoms: C_10  and  C_12
REMARK                            x       y       z     vdW  Elec       q    Type
REMARK                         _______ _______ _______ _____ _____    ______ ____
ROOT
ATOM      1  C   UNL     1       1.096   9.425  20.306  0.00  0.00    +0.000 A 
ATOM      2  C   UNL     1       0.762   8.596  21.368  0.00  0.00    +0.000 A 
ATOM      3  C   UNL     1       1.181   7.272  21.330  0.00  0.00    +0.000 A 
ATOM      4  C   UNL     1       1.925   6.816  20.237  0.00  0.00    +0.000 A 
ATOM      5  C   UNL     1       2.202   7.688  19.202  0.00  0.00    +0.000 A 
ATOM      6  N   UNL     1       1.796   8.988  19.214  0.00  0.00    +0.000 NA
ATOM      7  C   UNL     1       2.974   7.214  18.018  0.00  0.00    +0.000 C 
ATOM      8  O   UNL     1       3.266   7.949  17.076  0.00  0.00    +0.000 OA
ATOM      9  C   UNL     1       3.410   5.760  17.990  0.00  0.00    +0.000 C 
ATOM     10  C   UNL     1       3.123   4.968  19.035  0.00  0.00    +0.000 C 
ATOM     11  C   UNL     1       2.412   5.440  20.223  0.00  0.00    +0.000 C 
ATOM     12  O   UNL     1       2.222   4.740  21.213  0.00  0.00    +0.000 OA
ATOM     13  S   UNL     1       3.676   3.332  19.038  0.00  0.00    +0.000 S 
ATOM     14  O   UNL     1       2.587   2.439  19.394  0.00  0.00    +0.000 OA
ATOM     15  O   UNL     1       4.941   3.265  19.750  0.00  0.00    +0.000 OA
ATOM     16  C   UNL     1       4.029   2.980  17.345  0.00  0.00    +0.000 C 
ATOM     17  C   UNL     1       4.865   4.101  16.781  0.00  0.00    +0.000 C 
ATOM     18  N   UNL     1       4.096   5.332  16.856  0.00  0.00    +0.000 N 
ATOM     19  H   UNL     1       4.406   6.108  16.252  0.00  0.00    +0.000 HD
ENDROOT
BRANCH   1  20
ATOM     20  C   UNL     1       0.601  10.844  20.323  0.00  0.00    +0.000 C 
ATOM     21  O   UNL     1       0.701  11.590  21.287  0.00  0.00    +0.000 OA
BRANCH  20  22
ATOM     22  O   UNL     1      -0.044  11.113  19.164  0.00  0.00    +0.000 OA
BRANCH  22  23
ATOM     23  C   UNL     1      -1.336  10.513  19.064  0.00  0.00    +0.000 C 
BRANCH  23  24
ATOM     24  C   UNL     1      -1.671  10.145  17.624  0.00  0.00    +0.000 C 
BRANCH  24  25
ATOM     25  C   UNL     1      -3.142   9.737  17.495  0.00  0.00    +0.000 C 
BRANCH  25  26
ATOM     26  C   UNL     1      -3.870  10.552  16.424  0.00  0.00    +0.000 C 
BRANCH  26  27
ATOM     27  C   UNL     1      -4.679  11.696  17.044  0.00  0.00    +0.000 C 
BRANCH  27  28
ATOM     28  C   UNL     1      -5.206  11.317  18.429  0.00  0.00    +0.000 C 
BRANCH  28  30
ATOM     29  C   UNL     1      -6.981   9.804  19.380  0.00  0.00    +0.000 C 
ATOM     30  C   UNL     1      -6.678  10.908  18.377  0.00  0.00    +0.000 C 
ENDBRANCH  28  30
ENDBRANCH  27  28
ENDBRANCH  26  27
ENDBRANCH  25  26
ENDBRANCH  24  25
ENDBRANCH  23  24
ENDBRANCH  22  23
ENDBRANCH  20  22
ENDBRANCH   1  20
TORSDOF 9
ENDMDL
MODEL 7
REMARK VINA RESULT:      -7.1      3.523      5.516
REMARK  Name = 
REMARK  10 active torsions:
REMARK  status: ('A' for Active; 'I' for Inactive)
REMARK    1  A    between atoms: C_1  and  C_2
REMARK    2  A    between atoms: C_2  and  C_3
REMARK    3  A    between atoms: C_3  and  C_4
REMARK    4  A    between atoms: C_4  and  C_5
REMARK    5  A    between atoms: C_5  and  C_6
REMARK    6  A    between atoms: C_6  and  C_7
REMARK    7  A    between atoms: C_7  and  C_8
REMARK    8  A    between atoms: C_8  and  O_9
REMARK    9  A    between atoms: O_9  and  C_10
REMARK   10  A    between atoms: C_10  and  C_12
REMARK                            x       y       z     vdW  Elec       q    Type
REMARK                         _______ _______ _______ _____ _____    ______ ____
ROOT
ATOM      1  C   UNL     1       2.951   5.215  18.880  0.00  0.00    +0.000 A 
ATOM      2  C   UNL     1       2.441   5.035  20.158  0.00  0.00    +0.000 A 
ATOM      3  C   UNL     1       1.816   6.111  20.777  0.00  0.00    +0.000 A 
ATOM      4  C   UNL     1       1.715   7.330  20.101  0.00  0.00    +0.000 A 
ATOM      5  C   UNL     1       2.266   7.448  18.841  0.00  0.00    +0.000 A 
ATOM      6  N   UNL     1       2.889   6.410  18.216  0.00  0.00    +0.000 NA
ATOM      7  C   UNL     1       2.188   8.747  18.114  0.00  0.00    +0.000 C 
ATOM      8  O   UNL     1       2.644   8.906  16.982  0.00  0.00    +0.000 OA
ATOM      9  C   UNL     1       1.515   9.914  18.814  0.00  0.00    +0.000 C 
ATOM     10  C   UNL     1       0.984   9.730  20.033  0.00  0.00    +0.000 C 
ATOM     11  C   UNL     1       1.011   8.443  20.730  0.00  0.00    +0.000 C 
ATOM     12  O   UNL     1       0.455   8.253  21.807  0.00  0.00    +0.000 OA
ATOM     13  S   UNL     1       0.157  11.035  20.805  0.00  0.00    +0.000 S 
ATOM     14  O   UNL     1       0.625  11.182  22.173  0.00  0.00    +0.000 OA
ATOM     15  O   UNL     1      -1.264  10.920  20.526  0.00  0.00    +0.000 OA
ATOM     16  C   UNL     1       0.723  12.478  19.964  0.00  0.00    +0.000 C 
ATOM     17  C   UNL     1       0.626  12.244  18.478  0.00  0.00    +0.000 C 
ATOM     18  N   UNL     1       1.488  11.127  18.131  0.00  0.00    +0.000 N 
ATOM     19  H   UNL     1       1.754  11.039  17.138  0.00  0.00    +0.000 HD
ENDROOT
BRANCH   1  20
ATOM     20  C   UNL     1       3.671   4.066  18.229  0.00  0.00    +0.000 C 
ATOM     21  O   UNL     1       3.175   2.962  18.054  0.00  0.00    +0.000 OA
BRANCH  20  22
ATOM     22  O   UNL     1       4.951   4.422  17.971  0.00  0.00    +0.000 OA
BRANCH  22  23
ATOM     23  C   UNL     1       5.703   4.775  19.133  0.00  0.00    +0.000 C 
BRANCH  23  24
ATOM     24  C   UNL     1       6.949   5.572  18.771  0.00  0.00    +0.000 C 
BRANCH  24  25
ATOM     25  C   UNL     1       6.628   6.634  17.714  0.00  0.00    +0.000 C 
BRANCH  25  26
ATOM     26  C   UNL     1       7.859   7.467  17.348  0.00  0.00    +0.000 C 
BRANCH  26  27
ATOM     27  C   UNL     1       7.678   8.937  17.739  0.00  0.00    +0.000 C 
BRANCH  27  28
ATOM     28  C   UNL     1       8.786   9.401  18.686  0.00  0.00    +0.000 C 
BRANCH  28  30
ATOM     29  C   UNL     1      10.416  11.239  19.239  0.00  0.00    +0.000 C 
ATOM     30  C   UNL     1       9.266  10.810  18.340  0.00  0.00    +0.000 C 
ENDBRANCH  28  30
ENDBRANCH  27  28
ENDBRANCH  26  27
ENDBRANCH  25  26
ENDBRANCH  24  25
ENDBRANCH  23  24
ENDBRANCH  22  23
ENDBRANCH  20  22
ENDBRANCH   1  20
TORSDOF 9
ENDMDL
MODEL 8
REMARK VINA RESULT:      -7.1      0.895      1.221
REMARK  Name = 
REMARK  10 active torsions:
REMARK  status: ('A' for Active; 'I' for Inactive)
REMARK    1  A    between atoms: C_1  and  C_2
REMARK    2  A    between atoms: C_2  and  C_3
REMARK    3  A    between atoms: C_3  and  C_4
REMARK    4  A    between atoms: C_4  and  C_5
REMARK    5  A    between atoms: C_5  and  C_6
REMARK    6  A    between atoms: C_6  and  C_7
REMARK    7  A    between atoms: C_7  and  C_8
REMARK    8  A    between atoms: C_8  and  O_9
REMARK    9  A    between atoms: O_9  and  C_10
REMARK   10  A    between atoms: C_10  and  C_12
REMARK                            x       y       z     vdW  Elec       q    Type
REMARK                         _______ _______ _______ _____ _____    ______ ____
ROOT
ATOM      1  C   UNL     1       1.122   9.241  19.491  0.00  0.00    +0.000 A 
ATOM      2  C   UNL     1       1.337   9.015  20.843  0.00  0.00    +0.000 A 
ATOM      3  C   UNL     1       0.570   9.723  21.761  0.00  0.00    +0.000 A 
ATOM      4  C   UNL     1      -0.388  10.631  21.302  0.00  0.00    +0.000 A 
ATOM      5  C   UNL     1      -0.532  10.827  19.943  0.00  0.00    +0.000 A 
ATOM      6  N   UNL     1       0.211  10.150  19.025  0.00  0.00    +0.000 NA
ATOM      7  C   UNL     1      -1.534  11.808  19.436  0.00  0.00    +0.000 C 
ATOM      8  O   UNL     1      -1.719  12.010  18.237  0.00  0.00    +0.000 OA
ATOM      9  C   UNL     1      -2.350  12.581  20.455  0.00  0.00    +0.000 C 
ATOM     10  C   UNL     1      -2.173  12.333  21.762  0.00  0.00    +0.000 C 
ATOM     11  C   UNL     1      -1.230  11.334  22.265  0.00  0.00    +0.000 C 
ATOM     12  O   UNL     1      -1.127  11.047  23.454  0.00  0.00    +0.000 OA
ATOM     13  S   UNL     1      -3.148  13.161  22.924  0.00  0.00    +0.000 S 
ATOM     14  O   UNL     1      -2.311  13.706  23.979  0.00  0.00    +0.000 OA
ATOM     15  O   UNL     1      -4.293  12.331  23.253  0.00  0.00    +0.000 OA
ATOM     16  C   UNL     1      -3.773  14.565  22.057  0.00  0.00    +0.000 C 
ATOM     17  C   UNL     1      -4.330  14.110  20.733  0.00  0.00    +0.000 C 
ATOM     18  N   UNL     1      -3.251  13.520  19.958  0.00  0.00    +0.000 N 
ATOM     19  H   UNL     1      -3.404  13.436  18.942  0.00  0.00    +0.000 HD
ENDROOT
BRANCH   1  20
ATOM     20  C   UNL     1       1.985   8.512  18.498  0.00  0.00    +0.000 C 
ATOM     21  O   UNL     1       2.129   8.860  17.334  0.00  0.00    +0.000 OA
BRANCH  20  22
ATOM     22  O   UNL     1       2.478   7.388  19.067  0.00  0.00    +0.000 OA
BRANCH  22  23
ATOM     23  C   UNL     1       2.608   6.288  18.165  0.00  0.00    +0.000 C 
BRANCH  23  24
ATOM     24  C   UNL     1       4.037   5.762  18.128  0.00  0.00    +0.000 C 
BRANCH  24  25
ATOM     25  C   UNL     1       4.293   4.797  19.290  0.00  0.00    +0.000 C 
BRANCH  25  26
ATOM     26  C   UNL     1       4.510   3.362  18.804  0.00  0.00    +0.000 C 
BRANCH  26  27
ATOM     27  C   UNL     1       3.379   2.437  19.264  0.00  0.00    +0.000 C 
BRANCH  27  28
ATOM     28  C   UNL     1       2.268   2.354  18.217  0.00  0.00    +0.000 C 
BRANCH  28  30
ATOM     29  C   UNL     1       1.043   3.217  20.241  0.00  0.00    +0.000 C 
ATOM     30  C   UNL     1       0.906   2.711  18.813  0.00  0.00    +0.000 C 
ENDBRANCH  28  30
ENDBRANCH  27  28
ENDBRANCH  26  27
ENDBRANCH  25  26
ENDBRANCH  24  25
ENDBRANCH  23  24
ENDBRANCH  22  23
ENDBRANCH  20  22
ENDBRANCH   1  20
TORSDOF 9
ENDMDL
MODEL 9
REMARK VINA RESULT:      -7.1      2.461      4.468
REMARK  Name = 
REMARK  10 active torsions:
REMARK  status: ('A' for Active; 'I' for Inactive)
REMARK    1  A    between atoms: C_1  and  C_2
REMARK    2  A    between atoms: C_2  and  C_3
REMARK    3  A    between atoms: C_3  and  C_4
REMARK    4  A    between atoms: C_4  and  C_5
REMARK    5  A    between atoms: C_5  and  C_6
REMARK    6  A    between atoms: C_6  and  C_7
REMARK    7  A    between atoms: C_7  and  C_8
REMARK    8  A    between atoms: C_8  and  O_9
REMARK    9  A    between atoms: O_9  and  C_10
REMARK   10  A    between atoms: C_10  and  C_12
REMARK                            x       y       z     vdW  Elec       q    Type
REMARK                         _______ _______ _______ _____ _____    ______ ____
ROOT
ATOM      1  C   UNL     1       2.238   6.485  19.916  0.00  0.00    +0.000 A 
ATOM      2  C   UNL     1       2.527   6.928  18.633  0.00  0.00    +0.000 A 
ATOM      3  C   UNL     1       2.196   8.234  18.295  0.00  0.00    +0.000 A 
ATOM      4  C   UNL     1       1.592   9.060  19.248  0.00  0.00    +0.000 A 
ATOM      5  C   UNL     1       1.309   8.547  20.499  0.00  0.00    +0.000 A 
ATOM      6  N   UNL     1       1.617   7.268  20.851  0.00  0.00    +0.000 NA
ATOM      7  C   UNL     1       0.645   9.406  21.521  0.00  0.00    +0.000 C 
ATOM      8  O   UNL     1       0.385   9.010  22.656  0.00  0.00    +0.000 OA
ATOM      9  C   UNL     1       0.278  10.825  21.126  0.00  0.00    +0.000 C 
ATOM     10  C   UNL     1       0.595  11.268  19.900  0.00  0.00    +0.000 C 
ATOM     11  C   UNL     1       1.295  10.448  18.910  0.00  0.00    +0.000 C 
ATOM     12  O   UNL     1       1.658  10.878  17.819  0.00  0.00    +0.000 OA
ATOM     13  S   UNL     1       0.242  12.904  19.470  0.00  0.00    +0.000 S 
ATOM     14  O   UNL     1      -0.424  12.947  18.179  0.00  0.00    +0.000 OA
ATOM     15  O   UNL     1       1.420  13.718  19.714  0.00  0.00    +0.000 OA
ATOM     16  C   UNL     1      -0.978  13.415  20.637  0.00  0.00    +0.000 C 
ATOM     17  C   UNL     1      -0.513  13.040  22.021  0.00  0.00    +0.000 C 
ATOM     18  N   UNL     1      -0.377  11.595  22.085  0.00  0.00    +0.000 N 
ATOM     19  H   UNL     1      -0.357  11.173  23.026  0.00  0.00    +0.000 HD
ENDROOT
BRANCH   1  20
ATOM     20  C   UNL     1       2.550   5.056  20.267  0.00  0.00    +0.000 C 
ATOM     21  O   UNL     1       2.121   4.489  21.262  0.00  0.00    +0.000 OA
BRANCH  20  22
ATOM     22  O   UNL     1       3.437   4.555  19.376  0.00  0.00    +0.000 OA
BRANCH  22  23
ATOM     23  C   UNL     1       3.059   3.295  18.823  0.00  0.00    +0.000 C 
BRANCH  23  24
ATOM     24  C   UNL     1       3.798   3.011  17.522  0.00  0.00    +0.000 C 
BRANCH  24  25
ATOM     25  C   UNL     1       4.563   4.251  17.050  0.00  0.00    +0.000 C 
BRANCH  25  26
ATOM     26  C   UNL     1       5.686   3.893  16.073  0.00  0.00    +0.000 C 
BRANCH  26  27
ATOM     27  C   UNL     1       7.017   4.526  16.493  0.00  0.00    +0.000 C 
BRANCH  27  28
ATOM     28  C   UNL     1       6.921   6.052  16.528  0.00  0.00    +0.000 C 
BRANCH  28  30
ATOM     29  C   UNL     1       7.833   8.082  17.707  0.00  0.00    +0.000 C 
ATOM     30  C   UNL     1       7.447   6.617  17.847  0.00  0.00    +0.000 C 
ENDBRANCH  28  30
ENDBRANCH  27  28
ENDBRANCH  26  27
ENDBRANCH  25  26
ENDBRANCH  24  25
ENDBRANCH  23  24
ENDBRANCH  22  23
ENDBRANCH  20  22
ENDBRANCH   1  20
TORSDOF 9
ENDMDL
