MODEL 1
REMARK VINA RESULT:      -8.3      0.000      0.000
REMARK  Name = 
REMARK  6 active torsions:
REMARK  status: ('A' for Active; 'I' for Inactive)
REMARK    1  A    between atoms: C_2  and  C_16
REMARK    2  A    between atoms: N_3  and  C_4
REMARK    3  A    between atoms: C_4  and  C_5
REMARK    4  A    between atoms: C_5  and  C_6
REMARK    5  A    between atoms: C_6  and  C_7
REMARK    6  A    between atoms: C_18  and  C_19
REMARK                            x       y       z     vdW  Elec       q    Type
REMARK                         _______ _______ _______ _____ _____    ______ ____
ROOT
ATOM      1  O   UNL     1       7.510   5.442  19.271  0.00  0.00    +0.000 OA
ATOM      2  C   UNL     1       7.572   6.094  18.235  0.00  0.00    +0.000 C 
ATOM      3  N   UNL     1       7.314   5.553  16.995  0.00  0.00    +0.000 N 
ATOM      4  H   UNL     1       7.492   6.118  16.178  0.00  0.00    +0.000 HD
ENDROOT
BRANCH   2   5
ATOM      5  C   UNL     1       7.940   7.492  18.216  0.00  0.00    +0.000 A 
ATOM      6  C   UNL     1       8.811   8.224  19.008  0.00  0.00    +0.000 A 
ATOM      7  C   UNL     1       8.787   9.581  18.584  0.00  0.00    +0.000 A 
ATOM      8  C   UNL     1       7.911   9.639  17.519  0.00  0.00    +0.000 A 
ATOM      9  N   UNL     1       7.421   8.376  17.295  0.00  0.00    +0.000 N 
ATOM     10  H   UNL     1       6.761   8.113  16.572  0.00  0.00    +0.000 HD
BRANCH   7  11
ATOM     11  C   UNL     1       9.520  10.716  19.129  0.00  0.00    +0.000 A 
ATOM     12  C   UNL     1       9.402  11.032  20.492  0.00  0.00    +0.000 A 
ATOM     13  C   UNL     1      10.061  12.142  21.025  0.00  0.00    +0.000 A 
ATOM     14  C   UNL     1      10.838  12.938  20.195  0.00  0.00    +0.000 A 
ATOM     15  F   UNL     1      11.464  14.007  20.703  0.00  0.00    +0.000 F 
ATOM     16  C   UNL     1      10.973  12.641  18.844  0.00  0.00    +0.000 A 
ATOM     17  C   UNL     1      10.314  11.531  18.310  0.00  0.00    +0.000 A 
ENDBRANCH   7  11
ENDBRANCH   2   5
BRANCH   3  18
ATOM     18  C   UNL     1       6.963   4.165  16.805  0.00  0.00    +0.000 C 
BRANCH  18  19
ATOM     19  C   UNL     1       5.681   3.985  15.994  0.00  0.00    +0.000 C 
BRANCH  19  20
ATOM     20  C   UNL     1       4.525   4.847  16.516  0.00  0.00    +0.000 C 
BRANCH  20  21
ATOM     21  C   UNL     1       3.861   4.216  17.700  0.00  0.00    +0.000 A 
ATOM     22  C   UNL     1       3.603   2.739  17.707  0.00  0.00    +0.000 A 
ATOM     23  N   UNL     1       3.047   2.053  18.659  0.00  0.00    +0.000 NA
ATOM     24  C   UNL     1       2.658   2.765  19.759  0.00  0.00    +0.000 A 
ATOM     25  N   UNL     1       2.060   2.355  20.856  0.00  0.00    +0.000 NA
ATOM     26  C   UNL     1       1.922   3.493  21.588  0.00  0.00    +0.000 A 
ATOM     27  N   UNL     1       2.401   4.607  21.033  0.00  0.00    +0.000 NA
ATOM     28  N   UNL     1       2.871   4.147  19.850  0.00  0.00    +0.000 N 
ATOM     29  C   UNL     1       3.479   4.852  18.820  0.00  0.00    +0.000 A 
ENDBRANCH  20  21
ENDBRANCH  19  20
ENDBRANCH  18  19
ENDBRANCH   3  18
TORSDOF 6
ENDMDL
MODEL 2
REMARK VINA RESULT:      -8.1      4.815      7.579
REMARK  Name = 
REMARK  6 active torsions:
REMARK  status: ('A' for Active; 'I' for Inactive)
REMARK    1  A    between atoms: C_2  and  C_16
REMARK    2  A    between atoms: N_3  and  C_4
REMARK    3  A    between atoms: C_4  and  C_5
REMARK    4  A    between atoms: C_5  and  C_6
REMARK    5  A    between atoms: C_6  and  C_7
REMARK    6  A    between atoms: C_18  and  C_19
REMARK                            x       y       z     vdW  Elec       q    Type
REMARK                         _______ _______ _______ _____ _____    ______ ____
ROOT
ATOM      1  O   UNL     1       2.604   4.144  21.247  0.00  0.00    +0.000 OA
ATOM      2  C   UNL     1       2.026   4.738  20.344  0.00  0.00    +0.000 C 
ATOM      3  N   UNL     1       1.593   4.114  19.195  0.00  0.00    +0.000 N 
ATOM      4  H   UNL     1       1.225   4.684  18.447  0.00  0.00    +0.000 HD
ENDROOT
BRANCH   2   5
ATOM      5  C   UNL     1       1.759   6.158  20.393  0.00  0.00    +0.000 A 
ATOM      6  C   UNL     1       0.953   6.914  21.230  0.00  0.00    +0.000 A 
ATOM      7  C   UNL     1       1.025   8.277  20.831  0.00  0.00    +0.000 A 
ATOM      8  C   UNL     1       1.901   8.323  19.765  0.00  0.00    +0.000 A 
ATOM      9  N   UNL     1       2.350   7.048  19.522  0.00  0.00    +0.000 N 
ATOM     10  H   UNL     1       3.008   6.776  18.801  0.00  0.00    +0.000 HD
BRANCH   7  11
ATOM     11  C   UNL     1       0.337   9.428  21.401  0.00  0.00    +0.000 A 
ATOM     12  C   UNL     1       0.239  10.617  20.661  0.00  0.00    +0.000 A 
ATOM     13  C   UNL     1      -0.376  11.746  21.206  0.00  0.00    +0.000 A 
ATOM     14  C   UNL     1      -0.894  11.687  22.492  0.00  0.00    +0.000 A 
ATOM     15  F   UNL     1      -1.478  12.770  23.020  0.00  0.00    +0.000 F 
ATOM     16  C   UNL     1      -0.814  10.519  23.241  0.00  0.00    +0.000 A 
ATOM     17  C   UNL     1      -0.198   9.388  22.696  0.00  0.00    +0.000 A 
ENDBRANCH   7  11
ENDBRANCH   2   5
BRANCH   3  18
ATOM     18  C   UNL     1       1.797   2.706  18.946  0.00  0.00    +0.000 C 
BRANCH  18  19
ATOM     19  C   UNL     1       2.981   2.436  18.018  0.00  0.00    +0.000 C 
BRANCH  19  20
ATOM     20  C   UNL     1       3.237   3.586  17.037  0.00  0.00    +0.000 C 
BRANCH  20  21
ATOM     21  C   UNL     1       4.439   4.388  17.431  0.00  0.00    +0.000 A 
ATOM     22  C   UNL     1       5.240   3.983  18.632  0.00  0.00    +0.000 A 
ATOM     23  N   UNL     1       6.304   4.571  19.088  0.00  0.00    +0.000 NA
ATOM     24  C   UNL     1       6.721   5.673  18.395  0.00  0.00    +0.000 A 
ATOM     25  N   UNL     1       7.739   6.473  18.625  0.00  0.00    +0.000 NA
ATOM     26  C   UNL     1       7.659   7.385  17.619  0.00  0.00    +0.000 A 
ATOM     27  N   UNL     1       6.660   7.216  16.754  0.00  0.00    +0.000 NA
ATOM     28  N   UNL     1       6.046   6.117  17.251  0.00  0.00    +0.000 N 
ATOM     29  C   UNL     1       4.917   5.461  16.780  0.00  0.00    +0.000 A 
ENDBRANCH  20  21
ENDBRANCH  19  20
ENDBRANCH  18  19
ENDBRANCH   3  18
TORSDOF 6
ENDMDL
MODEL 3
REMARK VINA RESULT:      -8.1      4.330     10.362
REMARK  Name = 
REMARK  6 active torsions:
REMARK  status: ('A' for Active; 'I' for Inactive)
REMARK    1  A    between atoms: C_2  and  C_16
REMARK    2  A    between atoms: N_3  and  C_4
REMARK    3  A    between atoms: C_4  and  C_5
REMARK    4  A    between atoms: C_5  and  C_6
REMARK    5  A    between atoms: C_6  and  C_7
REMARK    6  A    between atoms: C_18  and  C_19
REMARK                            x       y       z     vdW  Elec       q    Type
REMARK                         _______ _______ _______ _____ _____    ______ ____
ROOT
ATOM      1  O   UNL     1       7.725   6.289  16.175  0.00  0.00    +0.000 OA
ATOM      2  C   UNL     1       6.972   6.658  17.069  0.00  0.00    +0.000 C 
ATOM      3  N   UNL     1       7.185   7.804  17.801  0.00  0.00    +0.000 N 
ATOM      4  H   UNL     1       6.586   7.987  18.593  0.00  0.00    +0.000 HD
ENDROOT
BRANCH   2   5
ATOM      5  C   UNL     1       5.794   5.911  17.451  0.00  0.00    +0.000 A 
ATOM      6  C   UNL     1       5.282   5.574  18.694  0.00  0.00    +0.000 A 
ATOM      7  C   UNL     1       4.104   4.798  18.511  0.00  0.00    +0.000 A 
ATOM      8  C   UNL     1       3.911   4.702  17.148  0.00  0.00    +0.000 A 
ATOM      9  N   UNL     1       4.922   5.388  16.520  0.00  0.00    +0.000 N 
ATOM     10  H   UNL     1       5.037   5.494  15.519  0.00  0.00    +0.000 HD
BRANCH   7  11
ATOM     11  C   UNL     1       3.240   4.207  19.524  0.00  0.00    +0.000 A 
ATOM     12  C   UNL     1       3.644   3.037  20.187  0.00  0.00    +0.000 A 
ATOM     13  C   UNL     1       2.810   2.428  21.129  0.00  0.00    +0.000 A 
ATOM     14  C   UNL     1       1.572   2.990  21.408  0.00  0.00    +0.000 A 
ATOM     15  F   UNL     1       0.768   2.404  22.304  0.00  0.00    +0.000 F 
ATOM     16  C   UNL     1       1.154   4.150  20.767  0.00  0.00    +0.000 A 
ATOM     17  C   UNL     1       1.987   4.760  19.825  0.00  0.00    +0.000 A 
ENDBRANCH   7  11
ENDBRANCH   2   5
BRANCH   3  18
ATOM     18  C   UNL     1       8.325   8.666  17.590  0.00  0.00    +0.000 C 
BRANCH  18  19
ATOM     19  C   UNL     1       8.255   9.951  18.415  0.00  0.00    +0.000 C 
BRANCH  19  20
ATOM     20  C   UNL     1       9.624  10.382  18.953  0.00  0.00    +0.000 C 
BRANCH  20  21
ATOM     21  C   UNL     1      10.010  11.739  18.451  0.00  0.00    +0.000 A 
ATOM     22  C   UNL     1      11.371  11.950  17.857  0.00  0.00    +0.000 A 
ATOM     23  N   UNL     1      11.843  13.060  17.375  0.00  0.00    +0.000 NA
ATOM     24  C   UNL     1      11.003  14.137  17.424  0.00  0.00    +0.000 A 
ATOM     25  N   UNL     1      11.205  15.377  17.036  0.00  0.00    +0.000 NA
ATOM     26  C   UNL     1      10.032  15.998  17.332  0.00  0.00    +0.000 A 
ATOM     27  N   UNL     1       9.086  15.232  17.878  0.00  0.00    +0.000 NA
ATOM     28  N   UNL     1       9.708  14.032  17.947  0.00  0.00    +0.000 N 
ATOM     29  C   UNL     1       9.227  12.829  18.446  0.00  0.00    +0.000 A 
ENDBRANCH  20  21
ENDBRANCH  19  20
ENDBRANCH  18  19
ENDBRANCH   3  18
TORSDOF 6
ENDMDL
MODEL 4
REMARK VINA RESULT:      -8.1      4.439     10.513
REMARK  Name = 
REMARK  6 active torsions:
REMARK  status: ('A' for Active; 'I' for Inactive)
REMARK    1  A    between atoms: C_2  and  C_16
REMARK    2  A    between atoms: N_3  and  C_4
REMARK    3  A    between atoms: C_4  and  C_5
REMARK    4  A    between atoms: C_5  and  C_6
REMARK    5  A    between atoms: C_6  and  C_7
REMARK    6  A    between atoms: C_18  and  C_19
REMARK                            x       y       z     vdW  Elec       q    Type
REMARK                         _______ _______ _______ _____ _____    ______ ____
ROOT
ATOM      1  O   UNL     1       8.485   7.038  18.748  0.00  0.00    +0.000 OA
ATOM      2  C   UNL     1       7.665   7.426  17.923  0.00  0.00    +0.000 C 
ATOM      3  N   UNL     1       7.731   8.666  17.329  0.00  0.00    +0.000 N 
ATOM      4  H   UNL     1       6.963   8.961  16.744  0.00  0.00    +0.000 HD
ENDROOT
BRANCH   2   5
ATOM      5  C   UNL     1       6.539   6.620  17.508  0.00  0.00    +0.000 A 
ATOM      6  C   UNL     1       5.623   5.876  18.235  0.00  0.00    +0.000 A 
ATOM      7  C   UNL     1       4.724   5.244  17.333  0.00  0.00    +0.000 A 
ATOM      8  C   UNL     1       5.103   5.642  16.066  0.00  0.00    +0.000 A 
ATOM      9  N   UNL     1       6.182   6.482  16.183  0.00  0.00    +0.000 N 
ATOM     10  H   UNL     1       6.672   6.933  15.419  0.00  0.00    +0.000 HD
BRANCH   7  11
ATOM     11  C   UNL     1       3.612   4.353  17.634  0.00  0.00    +0.000 A 
ATOM     12  C   UNL     1       2.389   4.888  18.071  0.00  0.00    +0.000 A 
ATOM     13  C   UNL     1       1.325   4.049  18.409  0.00  0.00    +0.000 A 
ATOM     14  C   UNL     1       1.483   2.673  18.310  0.00  0.00    +0.000 A 
ATOM     15  F   UNL     1       0.466   1.867  18.641  0.00  0.00    +0.000 F 
ATOM     16  C   UNL     1       2.682   2.122  17.876  0.00  0.00    +0.000 A 
ATOM     17  C   UNL     1       3.748   2.960  17.538  0.00  0.00    +0.000 A 
ENDBRANCH   7  11
ENDBRANCH   2   5
BRANCH   3  18
ATOM     18  C   UNL     1       8.764   9.628  17.639  0.00  0.00    +0.000 C 
BRANCH  18  19
ATOM     19  C   UNL     1       8.650  10.180  19.059  0.00  0.00    +0.000 C 
BRANCH  19  20
ATOM     20  C   UNL     1       9.958  10.805  19.557  0.00  0.00    +0.000 C 
BRANCH  20  21
ATOM     21  C   UNL     1      10.272  12.076  18.832  0.00  0.00    +0.000 A 
ATOM     22  C   UNL     1      11.473  12.142  17.937  0.00  0.00    +0.000 A 
ATOM     23  N   UNL     1      11.866  13.166  17.241  0.00  0.00    +0.000 NA
ATOM     24  C   UNL     1      11.098  14.292  17.348  0.00  0.00    +0.000 A 
ATOM     25  N   UNL     1      11.254  15.471  16.787  0.00  0.00    +0.000 NA
ATOM     26  C   UNL     1      10.198  16.188  17.257  0.00  0.00    +0.000 A 
ATOM     27  N   UNL     1       9.370  15.541  18.078  0.00  0.00    +0.000 NA
ATOM     28  N   UNL     1       9.948  14.320  18.147  0.00  0.00    +0.000 N 
ATOM     29  C   UNL     1       9.546  13.205  18.872  0.00  0.00    +0.000 A 
ENDBRANCH  20  21
ENDBRANCH  19  20
ENDBRANCH  18  19
ENDBRANCH   3  18
TORSDOF 6
ENDMDL
MODEL 5
REMARK VINA RESULT:      -7.9      4.731      7.408
REMARK  Name = 
REMARK  6 active torsions:
REMARK  status: ('A' for Active; 'I' for Inactive)
REMARK    1  A    between atoms: C_2  and  C_16
REMARK    2  A    between atoms: N_3  and  C_4
REMARK    3  A    between atoms: C_4  and  C_5
REMARK    4  A    between atoms: C_5  and  C_6
REMARK    5  A    between atoms: C_6  and  C_7
REMARK    6  A    between atoms: C_18  and  C_19
REMARK                            x       y       z     vdW  Elec       q    Type
REMARK                         _______ _______ _______ _____ _____    ______ ____
ROOT
ATOM      1  O   UNL     1       2.910   4.150  20.874  0.00  0.00    +0.000 OA
ATOM      2  C   UNL     1       2.236   4.742  20.038  0.00  0.00    +0.000 C 
ATOM      3  N   UNL     1       1.720   4.124  18.921  0.00  0.00    +0.000 N 
ATOM      4  H   UNL     1       1.271   4.696  18.220  0.00  0.00    +0.000 HD
ENDROOT
BRANCH   2   5
ATOM      5  C   UNL     1       1.935   6.152  20.139  0.00  0.00    +0.000 A 
ATOM      6  C   UNL     1       1.224   6.875  21.084  0.00  0.00    +0.000 A 
ATOM      7  C   UNL     1       1.202   8.243  20.694  0.00  0.00    +0.000 A 
ATOM      8  C   UNL     1       1.927   8.324  19.523  0.00  0.00    +0.000 A 
ATOM      9  N   UNL     1       2.378   7.066  19.207  0.00  0.00    +0.000 N 
ATOM     10  H   UNL     1       2.943   6.821  18.402  0.00  0.00    +0.000 HD
BRANCH   7  11
ATOM     11  C   UNL     1       0.560   9.367  21.363  0.00  0.00    +0.000 A 
ATOM     12  C   UNL     1      -0.182   9.149  22.535  0.00  0.00    +0.000 A 
ATOM     13  C   UNL     1      -0.842  10.206  23.166  0.00  0.00    +0.000 A 
ATOM     14  C   UNL     1      -0.762  11.481  22.625  0.00  0.00    +0.000 A 
ATOM     15  F   UNL     1      -1.401  12.494  23.224  0.00  0.00    +0.000 F 
ATOM     16  C   UNL     1      -0.030  11.721  21.468  0.00  0.00    +0.000 A 
ATOM     17  C   UNL     1       0.631  10.665  20.836  0.00  0.00    +0.000 A 
ENDBRANCH   7  11
ENDBRANCH   2   5
BRANCH   3  18
ATOM     18  C   UNL     1       1.941   2.727  18.627  0.00  0.00    +0.000 C 
BRANCH  18  19
ATOM     19  C   UNL     1       3.196   2.491  17.787  0.00  0.00    +0.000 C 
BRANCH  19  20
ATOM     20  C   UNL     1       3.428   3.596  16.750  0.00  0.00    +0.000 C 
BRANCH  20  21
ATOM     21  C   UNL     1       4.592   4.462  17.121  0.00  0.00    +0.000 A 
ATOM     22  C   UNL     1       4.945   5.638  16.260  0.00  0.00    +0.000 A 
ATOM     23  N   UNL     1       5.915   6.479  16.457  0.00  0.00    +0.000 NA
ATOM     24  C   UNL     1       6.686   6.255  17.563  0.00  0.00    +0.000 A 
ATOM     25  N   UNL     1       7.734   6.916  18.004  0.00  0.00    +0.000 NA
ATOM     26  C   UNL     1       8.083   6.240  19.132  0.00  0.00    +0.000 A 
ATOM     27  N   UNL     1       7.322   5.192  19.446  0.00  0.00    +0.000 NA
ATOM     28  N   UNL     1       6.422   5.191  18.435  0.00  0.00    +0.000 N 
ATOM     29  C   UNL     1       5.371   4.313  18.205  0.00  0.00    +0.000 A 
ENDBRANCH  20  21
ENDBRANCH  19  20
ENDBRANCH  18  19
ENDBRANCH   3  18
TORSDOF 6
ENDMDL
MODEL 6
REMARK VINA RESULT:      -7.9      5.384      7.737
REMARK  Name = 
REMARK  6 active torsions:
REMARK  status: ('A' for Active; 'I' for Inactive)
REMARK    1  A    between atoms: C_2  and  C_16
REMARK    2  A    between atoms: N_3  and  C_4
REMARK    3  A    between atoms: C_4  and  C_5
REMARK    4  A    between atoms: C_5  and  C_6
REMARK    5  A    between atoms: C_6  and  C_7
REMARK    6  A    between atoms: C_18  and  C_19
REMARK                            x       y       z     vdW  Elec       q    Type
REMARK                         _______ _______ _______ _____ _____    ______ ____
ROOT
ATOM      1  O   UNL     1       4.799   2.733  20.124  0.00  0.00    +0.000 OA
ATOM      2  C   UNL     1       4.604   3.682  19.374  0.00  0.00    +0.000 C 
ATOM      3  N   UNL     1       3.536   4.541  19.516  0.00  0.00    +0.000 N 
ATOM      4  H   UNL     1       3.376   5.232  18.798  0.00  0.00    +0.000 HD
ENDROOT
BRANCH   2   5
ATOM      5  C   UNL     1       5.469   3.980  18.255  0.00  0.00    +0.000 A 
ATOM      6  C   UNL     1       5.231   4.005  16.889  0.00  0.00    +0.000 A 
ATOM      7  C   UNL     1       6.441   4.335  16.218  0.00  0.00    +0.000 A 
ATOM      8  C   UNL     1       7.390   4.528  17.202  0.00  0.00    +0.000 A 
ATOM      9  N   UNL     1       6.792   4.330  18.422  0.00  0.00    +0.000 N 
ATOM     10  H   UNL     1       7.243   4.410  19.326  0.00  0.00    +0.000 HD
BRANCH   7  11
ATOM     11  C   UNL     1       6.680   4.458  14.786  0.00  0.00    +0.000 A 
ATOM     12  C   UNL     1       5.957   3.657  13.888  0.00  0.00    +0.000 A 
ATOM     13  C   UNL     1       6.204   3.727  12.514  0.00  0.00    +0.000 A 
ATOM     14  C   UNL     1       7.173   4.599  12.039  0.00  0.00    +0.000 A 
ATOM     15  F   UNL     1       7.416   4.662  10.724  0.00  0.00    +0.000 F 
ATOM     16  C   UNL     1       7.897   5.404  12.909  0.00  0.00    +0.000 A 
ATOM     17  C   UNL     1       7.652   5.335  14.283  0.00  0.00    +0.000 A 
ENDBRANCH   7  11
ENDBRANCH   2   5
BRANCH   3  18
ATOM     18  C   UNL     1       2.543   4.387  20.554  0.00  0.00    +0.000 C 
BRANCH  18  19
ATOM     19  C   UNL     1       1.613   5.595  20.666  0.00  0.00    +0.000 C 
BRANCH  19  20
ATOM     20  C   UNL     1       2.203   6.855  20.021  0.00  0.00    +0.000 C 
BRANCH  20  21
ATOM     21  C   UNL     1       1.469   8.087  20.451  0.00  0.00    +0.000 A 
ATOM     22  C   UNL     1       1.270   9.209  19.477  0.00  0.00    +0.000 A 
ATOM     23  N   UNL     1       0.651  10.329  19.701  0.00  0.00    +0.000 NA
ATOM     24  C   UNL     1       0.138  10.488  20.958  0.00  0.00    +0.000 A 
ATOM     25  N   UNL     1      -0.512  11.507  21.477  0.00  0.00    +0.000 NA
ATOM     26  C   UNL     1      -0.768  11.104  22.751  0.00  0.00    +0.000 A 
ATOM     27  N   UNL     1      -0.330   9.888  23.079  0.00  0.00    +0.000 NA
ATOM     28  N   UNL     1       0.261   9.487  21.930  0.00  0.00    +0.000 N 
ATOM     29  C   UNL     1       0.919   8.295  21.659  0.00  0.00    +0.000 A 
ENDBRANCH  20  21
ENDBRANCH  19  20
ENDBRANCH  18  19
ENDBRANCH   3  18
TORSDOF 6
ENDMDL
MODEL 7
REMARK VINA RESULT:      -7.9      1.641      2.012
REMARK  Name = 
REMARK  6 active torsions:
REMARK  status: ('A' for Active; 'I' for Inactive)
REMARK    1  A    between atoms: C_2  and  C_16
REMARK    2  A    between atoms: N_3  and  C_4
REMARK    3  A    between atoms: C_4  and  C_5
REMARK    4  A    between atoms: C_5  and  C_6
REMARK    5  A    between atoms: C_6  and  C_7
REMARK    6  A    between atoms: C_18  and  C_19
REMARK                            x       y       z     vdW  Elec       q    Type
REMARK                         _______ _______ _______ _____ _____    ______ ____
ROOT
ATOM      1  O   UNL     1       7.262   5.754  18.228  0.00  0.00    +0.000 OA
ATOM      2  C   UNL     1       7.217   6.791  17.577  0.00  0.00    +0.000 C 
ATOM      3  N   UNL     1       6.527   6.900  16.390  0.00  0.00    +0.000 N 
ATOM      4  H   UNL     1       6.625   7.748  15.852  0.00  0.00    +0.000 HD
ENDROOT
BRANCH   2   5
ATOM      5  C   UNL     1       7.903   7.996  17.985  0.00  0.00    +0.000 A 
ATOM      6  C   UNL     1       7.962   9.259  17.415  0.00  0.00    +0.000 A 
ATOM      7  C   UNL     1       8.807  10.082  18.210  0.00  0.00    +0.000 A 
ATOM      8  C   UNL     1       9.225   9.301  19.269  0.00  0.00    +0.000 A 
ATOM      9  N   UNL     1       8.663   8.056  19.134  0.00  0.00    +0.000 N 
ATOM     10  H   UNL     1       8.787   7.275  19.767  0.00  0.00    +0.000 HD
BRANCH   7  11
ATOM     11  C   UNL     1       9.182  11.474  17.995  0.00  0.00    +0.000 A 
ATOM     12  C   UNL     1      10.529  11.808  17.786  0.00  0.00    +0.000 A 
ATOM     13  C   UNL     1      10.916  13.140  17.624  0.00  0.00    +0.000 A 
ATOM     14  C   UNL     1       9.954  14.140  17.670  0.00  0.00    +0.000 A 
ATOM     15  F   UNL     1      10.324  15.418  17.522  0.00  0.00    +0.000 F 
ATOM     16  C   UNL     1       8.614  13.832  17.871  0.00  0.00    +0.000 A 
ATOM     17  C   UNL     1       8.226  12.499  18.035  0.00  0.00    +0.000 A 
ENDBRANCH   7  11
ENDBRANCH   2   5
BRANCH   3  18
ATOM     18  C   UNL     1       5.807   5.794  15.801  0.00  0.00    +0.000 C 
BRANCH  18  19
ATOM     19  C   UNL     1       4.507   5.475  16.539  0.00  0.00    +0.000 C 
BRANCH  19  20
ATOM     20  C   UNL     1       4.246   3.969  16.650  0.00  0.00    +0.000 C 
BRANCH  20  21
ATOM     21  C   UNL     1       3.785   3.591  18.024  0.00  0.00    +0.000 A 
ATOM     22  C   UNL     1       4.780   3.095  19.030  0.00  0.00    +0.000 A 
ATOM     23  N   UNL     1       4.534   2.740  20.254  0.00  0.00    +0.000 NA
ATOM     24  C   UNL     1       3.228   2.828  20.651  0.00  0.00    +0.000 A 
ATOM     25  N   UNL     1       2.680   2.525  21.807  0.00  0.00    +0.000 NA
ATOM     26  C   UNL     1       1.364   2.812  21.619  0.00  0.00    +0.000 A 
ATOM     27  N   UNL     1       1.034   3.288  20.418  0.00  0.00    +0.000 NA
ATOM     28  N   UNL     1       2.231   3.295  19.785  0.00  0.00    +0.000 N 
ATOM     29  C   UNL     1       2.526   3.678  18.484  0.00  0.00    +0.000 A 
ENDBRANCH  20  21
ENDBRANCH  19  20
ENDBRANCH  18  19
ENDBRANCH   3  18
TORSDOF 6
ENDMDL
MODEL 8
REMARK VINA RESULT:      -7.8      1.683      2.280
REMARK  Name = 
REMARK  6 active torsions:
REMARK  status: ('A' for Active; 'I' for Inactive)
REMARK    1  A    between atoms: C_2  and  C_16
REMARK    2  A    between atoms: N_3  and  C_4
REMARK    3  A    between atoms: C_4  and  C_5
REMARK    4  A    between atoms: C_5  and  C_6
REMARK    5  A    between atoms: C_6  and  C_7
REMARK    6  A    between atoms: C_18  and  C_19
REMARK                            x       y       z     vdW  Elec       q    Type
REMARK                         _______ _______ _______ _____ _____    ______ ____
ROOT
ATOM      1  O   UNL     1       7.137   6.291  18.585  0.00  0.00    +0.000 OA
ATOM      2  C   UNL     1       7.579   7.081  17.759  0.00  0.00    +0.000 C 
ATOM      3  N   UNL     1       7.541   6.845  16.403  0.00  0.00    +0.000 N 
ATOM      4  H   UNL     1       8.022   7.487  15.789  0.00  0.00    +0.000 HD
ENDROOT
BRANCH   2   5
ATOM      5  C   UNL     1       8.199   8.332  18.134  0.00  0.00    +0.000 A 
ATOM      6  C   UNL     1       8.318   9.538  17.461  0.00  0.00    +0.000 A 
ATOM      7  C   UNL     1       9.051  10.447  18.272  0.00  0.00    +0.000 A 
ATOM      8  C   UNL     1       9.344   9.774  19.441  0.00  0.00    +0.000 A 
ATOM      9  N   UNL     1       8.813   8.511  19.355  0.00  0.00    +0.000 N 
ATOM     10  H   UNL     1       8.866   7.793  20.069  0.00  0.00    +0.000 HD
BRANCH   7  11
ATOM     11  C   UNL     1       9.438  11.820  17.975  0.00  0.00    +0.000 A 
ATOM     12  C   UNL     1       8.492  12.851  18.094  0.00  0.00    +0.000 A 
ATOM     13  C   UNL     1       8.829  14.168  17.771  0.00  0.00    +0.000 A 
ATOM     14  C   UNL     1      10.113  14.454  17.329  0.00  0.00    +0.000 A 
ATOM     15  F   UNL     1      10.436  15.714  17.011  0.00  0.00    +0.000 F 
ATOM     16  C   UNL     1      11.067  13.450  17.208  0.00  0.00    +0.000 A 
ATOM     17  C   UNL     1      10.731  12.133  17.531  0.00  0.00    +0.000 A 
ENDBRANCH   7  11
ENDBRANCH   2   5
BRANCH   3  18
ATOM     18  C   UNL     1       6.992   5.636  15.835  0.00  0.00    +0.000 C 
BRANCH  18  19
ATOM     19  C   UNL     1       5.464   5.652  15.775  0.00  0.00    +0.000 C 
BRANCH  19  20
ATOM     20  C   UNL     1       4.844   4.299  16.143  0.00  0.00    +0.000 C 
BRANCH  20  21
ATOM     21  C   UNL     1       3.923   4.418  17.318  0.00  0.00    +0.000 A 
ATOM     22  C   UNL     1       3.796   5.730  18.031  0.00  0.00    +0.000 A 
ATOM     23  N   UNL     1       3.037   5.987  19.053  0.00  0.00    +0.000 NA
ATOM     24  C   UNL     1       2.288   4.942  19.518  0.00  0.00    +0.000 A 
ATOM     25  N   UNL     1       1.454   4.894  20.534  0.00  0.00    +0.000 NA
ATOM     26  C   UNL     1       1.008   3.609  20.518  0.00  0.00    +0.000 A 
ATOM     27  N   UNL     1       1.497   2.832  19.551  0.00  0.00    +0.000 NA
ATOM     28  N   UNL     1       2.329   3.683  18.906  0.00  0.00    +0.000 N 
ATOM     29  C   UNL     1       3.142   3.441  17.807  0.00  0.00    +0.000 A 
ENDBRANCH  20  21
ENDBRANCH  19  20
ENDBRANCH  18  19
ENDBRANCH   3  18
TORSDOF 6
ENDMDL
MODEL 9
REMARK VINA RESULT:      -7.8      1.872      2.942
REMARK  Name = 
REMARK  6 active torsions:
REMARK  status: ('A' for Active; 'I' for Inactive)
REMARK    1  A    between atoms: C_2  and  C_16
REMARK    2  A    between atoms: N_3  and  C_4
REMARK    3  A    between atoms: C_4  and  C_5
REMARK    4  A    between atoms: C_5  and  C_6
REMARK    5  A    between atoms: C_6  and  C_7
REMARK    6  A    between atoms: C_18  and  C_19
REMARK                            x       y       z     vdW  Elec       q    Type
REMARK                         _______ _______ _______ _____ _____    ______ ____
ROOT
ATOM      1  O   UNL     1       7.593   8.422  17.079  0.00  0.00    +0.000 OA
ATOM      2  C   UNL     1       8.243   8.437  18.118  0.00  0.00    +0.000 C 
ATOM      3  N   UNL     1       8.445   7.314  18.890  0.00  0.00    +0.000 N 
ATOM      4  H   UNL     1       8.893   7.422  19.788  0.00  0.00    +0.000 HD
ENDROOT
BRANCH   2   5
ATOM      5  C   UNL     1       8.844   9.642  18.642  0.00  0.00    +0.000 A 
ATOM      6  C   UNL     1       9.320  10.781  18.011  0.00  0.00    +0.000 A 
ATOM      7  C   UNL     1       9.843  11.666  18.994  0.00  0.00    +0.000 A 
ATOM      8  C   UNL     1       9.649  11.050  20.213  0.00  0.00    +0.000 A 
ATOM      9  N   UNL     1       9.033   9.843  19.993  0.00  0.00    +0.000 N 
ATOM     10  H   UNL     1       8.761   9.174  20.704  0.00  0.00    +0.000 HD
BRANCH   7  11
ATOM     11  C   UNL     1      10.464  12.971  18.803  0.00  0.00    +0.000 A 
ATOM     12  C   UNL     1      10.453  13.568  17.532  0.00  0.00    +0.000 A 
ATOM     13  C   UNL     1      11.082  14.796  17.317  0.00  0.00    +0.000 A 
ATOM     14  C   UNL     1      11.723  15.428  18.374  0.00  0.00    +0.000 A 
ATOM     15  F   UNL     1      12.333  16.603  18.168  0.00  0.00    +0.000 F 
ATOM     16  C   UNL     1      11.742  14.858  19.641  0.00  0.00    +0.000 A 
ATOM     17  C   UNL     1      11.113  13.629  19.857  0.00  0.00    +0.000 A 
ENDBRANCH   7  11
ENDBRANCH   2   5
BRANCH   3  18
ATOM     18  C   UNL     1       7.894   6.022  18.550  0.00  0.00    +0.000 C 
BRANCH  18  19
ATOM     19  C   UNL     1       6.428   5.879  18.959  0.00  0.00    +0.000 C 
BRANCH  19  20
ATOM     20  C   UNL     1       5.553   5.320  17.831  0.00  0.00    +0.000 C 
BRANCH  20  21
ATOM     21  C   UNL     1       4.276   4.744  18.361  0.00  0.00    +0.000 A 
ATOM     22  C   UNL     1       3.678   5.298  19.619  0.00  0.00    +0.000 A 
ATOM     23  N   UNL     1       2.579   4.910  20.191  0.00  0.00    +0.000 NA
ATOM     24  C   UNL     1       1.913   3.887  19.575  0.00  0.00    +0.000 A 
ATOM     25  N   UNL     1       0.801   3.279  19.925  0.00  0.00    +0.000 NA
ATOM     26  C   UNL     1       0.625   2.352  18.944  0.00  0.00    +0.000 A 
ATOM     27  N   UNL     1       1.549   2.334  17.983  0.00  0.00    +0.000 NA
ATOM     28  N   UNL     1       2.387   3.317  18.387  0.00  0.00    +0.000 N 
ATOM     29  C   UNL     1       3.560   3.761  17.791  0.00  0.00    +0.000 A 
ENDBRANCH  20  21
ENDBRANCH  19  20
ENDBRANCH  18  19
ENDBRANCH   3  18
TORSDOF 6
ENDMDL
