MODEL 1
REMARK VINA RESULT:      -8.1      0.000      0.000
REMARK  Name = 
REMARK  3 active torsions:
REMARK  status: ('A' for Active; 'I' for Inactive)
REMARK    1  A    between atoms: C_2  and  C_3
REMARK    2  A    between atoms: N_14  and  C_15
REMARK    3  A    between atoms: C_15  and  C_16
REMARK                            x       y       z     vdW  Elec       q    Type
REMARK                         _______ _______ _______ _____ _____    ______ ____
ROOT
ATOM      1  O   UNL     1       1.828   5.979  21.053  0.00  0.00    +0.000 OA
ATOM      2  C   UNL     1       2.075   6.760  20.129  0.00  0.00    +0.000 C 
ATOM      3  N   UNL     1       2.826   6.313  19.044  0.00  0.00    +0.000 N 
ATOM      4  C   UNL     1       3.067   4.882  18.894  0.00  0.00    +0.000 C 
ATOM      5  C   UNL     1       4.247   4.778  17.957  0.00  0.00    +0.000 C 
ATOM      6  C   UNL     1       5.577   4.924  18.673  0.00  0.00    +0.000 C 
ATOM      7  N   UNL     1       6.463   5.574  17.707  0.00  0.00    +0.000 NA
ATOM      8  C   UNL     1       5.612   6.368  16.790  0.00  0.00    +0.000 C 
ATOM      9  C   UNL     1       4.163   6.020  17.087  0.00  0.00    +0.000 C 
ATOM     10  C   UNL     1       3.425   7.049  17.946  0.00  0.00    +0.000 C 
ENDROOT
BRANCH   2  11
ATOM     11  C   UNL     1       1.504   8.151  20.250  0.00  0.00    +0.000 A 
ATOM     12  C   UNL     1       1.033   8.520  21.532  0.00  0.00    +0.000 A 
ATOM     13  C   UNL     1       0.444   9.767  21.779  0.00  0.00    +0.000 A 
ATOM     14  C   UNL     1       0.306  10.678  20.743  0.00  0.00    +0.000 A 
ATOM     15  C   UNL     1       0.764  10.330  19.481  0.00  0.00    +0.000 A 
ATOM     16  F   UNL     1       0.627  11.202  18.472  0.00  0.00    +0.000 F 
ATOM     17  C   UNL     1       1.359   9.091  19.229  0.00  0.00    +0.000 A 
ENDBRANCH   2  11
BRANCH   7  18
ATOM     18  C   UNL     1       7.287   4.586  16.976  0.00  0.00    +0.000 C 
BRANCH  18  19
ATOM     19  C   UNL     1       7.001   4.583  15.485  0.00  0.00    +0.000 A 
ATOM     20  C   UNL     1       6.023   3.734  14.969  0.00  0.00    +0.000 A 
ATOM     21  C   UNL     1       5.880   3.638  13.590  0.00  0.00    +0.000 A 
ATOM     22  C   UNL     1       6.701   4.401  12.768  0.00  0.00    +0.000 A 
ATOM     23  C   UNL     1       7.625   5.246  13.362  0.00  0.00    +0.000 A 
ATOM     24  N   UNL     1       7.793   5.353  14.695  0.00  0.00    +0.000 NA
ENDBRANCH  18  19
ENDBRANCH   7  18
TORSDOF 3
ENDMDL
MODEL 2
REMARK VINA RESULT:      -7.8      0.909      1.332
REMARK  Name = 
REMARK  3 active torsions:
REMARK  status: ('A' for Active; 'I' for Inactive)
REMARK    1  A    between atoms: C_2  and  C_3
REMARK    2  A    between atoms: N_14  and  C_15
REMARK    3  A    between atoms: C_15  and  C_16
REMARK                            x       y       z     vdW  Elec       q    Type
REMARK                         _______ _______ _______ _____ _____    ______ ____
ROOT
ATOM      1  O   UNL     1       1.705   5.761  20.828  0.00  0.00    +0.000 OA
ATOM      2  C   UNL     1       2.043   6.622  20.009  0.00  0.00    +0.000 C 
ATOM      3  N   UNL     1       2.845   6.255  18.931  0.00  0.00    +0.000 N 
ATOM      4  C   UNL     1       3.039   4.838  18.644  0.00  0.00    +0.000 C 
ATOM      5  C   UNL     1       4.274   4.778  17.776  0.00  0.00    +0.000 C 
ATOM      6  C   UNL     1       5.558   4.787  18.584  0.00  0.00    +0.000 C 
ATOM      7  N   UNL     1       6.531   5.492  17.749  0.00  0.00    +0.000 NA
ATOM      8  C   UNL     1       5.775   6.416  16.872  0.00  0.00    +0.000 C 
ATOM      9  C   UNL     1       4.296   6.106  17.040  0.00  0.00    +0.000 C 
ATOM     10  C   UNL     1       3.544   7.073  17.956  0.00  0.00    +0.000 C 
ENDROOT
BRANCH   2  11
ATOM     11  C   UNL     1       1.520   8.018  20.242  0.00  0.00    +0.000 A 
ATOM     12  C   UNL     1       1.497   8.870  19.114  0.00  0.00    +0.000 A 
ATOM     13  C   UNL     1       1.072  10.202  19.195  0.00  0.00    +0.000 A 
ATOM     14  C   UNL     1       0.665  10.719  20.415  0.00  0.00    +0.000 A 
ATOM     15  C   UNL     1       0.682   9.895  21.530  0.00  0.00    +0.000 A 
ATOM     16  F   UNL     1       0.296  10.389  22.715  0.00  0.00    +0.000 F 
ATOM     17  C   UNL     1       1.097   8.563  21.456  0.00  0.00    +0.000 A 
ENDBRANCH   2  11
BRANCH   7  18
ATOM     18  C   UNL     1       7.362   4.549  16.970  0.00  0.00    +0.000 C 
BRANCH  18  19
ATOM     19  C   UNL     1       7.035   4.578  15.487  0.00  0.00    +0.000 A 
ATOM     20  C   UNL     1       6.057   3.726  14.977  0.00  0.00    +0.000 A 
ATOM     21  C   UNL     1       5.877   3.661  13.601  0.00  0.00    +0.000 A 
ATOM     22  C   UNL     1       6.664   4.457  12.775  0.00  0.00    +0.000 A 
ATOM     23  C   UNL     1       7.590   5.302  13.365  0.00  0.00    +0.000 A 
ATOM     24  N   UNL     1       7.793   5.379  14.695  0.00  0.00    +0.000 NA
ENDBRANCH  18  19
ENDBRANCH   7  18
TORSDOF 3
ENDMDL
MODEL 3
REMARK VINA RESULT:      -7.6      4.331      6.153
REMARK  Name = 
REMARK  3 active torsions:
REMARK  status: ('A' for Active; 'I' for Inactive)
REMARK    1  A    between atoms: C_2  and  C_3
REMARK    2  A    between atoms: N_14  and  C_15
REMARK    3  A    between atoms: C_15  and  C_16
REMARK                            x       y       z     vdW  Elec       q    Type
REMARK                         _______ _______ _______ _____ _____    ______ ____
ROOT
ATOM      1  O   UNL     1       5.559   3.048  19.601  0.00  0.00    +0.000 OA
ATOM      2  C   UNL     1       4.841   3.893  19.056  0.00  0.00    +0.000 C 
ATOM      3  N   UNL     1       5.425   4.850  18.230  0.00  0.00    +0.000 N 
ATOM      4  C   UNL     1       6.811   4.673  17.814  0.00  0.00    +0.000 C 
ATOM      5  C   UNL     1       7.264   6.041  17.361  0.00  0.00    +0.000 C 
ATOM      6  C   UNL     1       7.724   6.916  18.512  0.00  0.00    +0.000 C 
ATOM      7  N   UNL     1       7.370   8.281  18.122  0.00  0.00    +0.000 NA
ATOM      8  C   UNL     1       6.214   8.192  17.200  0.00  0.00    +0.000 C 
ATOM      9  C   UNL     1       6.001   6.724  16.866  0.00  0.00    +0.000 C 
ATOM     10  C   UNL     1       4.865   6.054  17.641  0.00  0.00    +0.000 C 
ENDROOT
BRANCH   2  11
ATOM     11  C   UNL     1       3.359   3.789  19.319  0.00  0.00    +0.000 A 
ATOM     12  C   UNL     1       2.842   4.653  20.313  0.00  0.00    +0.000 A 
ATOM     13  C   UNL     1       1.492   4.636  20.686  0.00  0.00    +0.000 A 
ATOM     14  C   UNL     1       0.622   3.746  20.076  0.00  0.00    +0.000 A 
ATOM     15  C   UNL     1       1.115   2.893  19.099  0.00  0.00    +0.000 A 
ATOM     16  F   UNL     1       0.282   2.024  18.509  0.00  0.00    +0.000 F 
ATOM     17  C   UNL     1       2.459   2.909  18.716  0.00  0.00    +0.000 A 
ENDBRANCH   2  11
BRANCH   7  18
ATOM     18  C   UNL     1       8.515   8.983  17.502  0.00  0.00    +0.000 C 
BRANCH  18  19
ATOM     19  C   UNL     1       8.927  10.219  18.284  0.00  0.00    +0.000 A 
ATOM     20  C   UNL     1       9.389  10.088  19.593  0.00  0.00    +0.000 A 
ATOM     21  C   UNL     1       9.618  11.237  20.340  0.00  0.00    +0.000 A 
ATOM     22  C   UNL     1       9.397  12.480  19.757  0.00  0.00    +0.000 A 
ATOM     23  C   UNL     1       8.970  12.522  18.440  0.00  0.00    +0.000 A 
ATOM     24  N   UNL     1       8.731  11.426  17.694  0.00  0.00    +0.000 NA
ENDBRANCH  18  19
ENDBRANCH   7  18
TORSDOF 3
ENDMDL
MODEL 4
REMARK VINA RESULT:      -7.5      1.074      1.283
REMARK  Name = 
REMARK  3 active torsions:
REMARK  status: ('A' for Active; 'I' for Inactive)
REMARK    1  A    between atoms: C_2  and  C_3
REMARK    2  A    between atoms: N_14  and  C_15
REMARK    3  A    between atoms: C_15  and  C_16
REMARK                            x       y       z     vdW  Elec       q    Type
REMARK                         _______ _______ _______ _____ _____    ______ ____
ROOT
ATOM      1  O   UNL     1       1.302   7.563  21.432  0.00  0.00    +0.000 OA
ATOM      2  C   UNL     1       1.506   8.046  20.314  0.00  0.00    +0.000 C 
ATOM      3  N   UNL     1       2.200   7.297  19.367  0.00  0.00    +0.000 N 
ATOM      4  C   UNL     1       2.429   5.878  19.618  0.00  0.00    +0.000 C 
ATOM      5  C   UNL     1       3.561   5.493  18.696  0.00  0.00    +0.000 C 
ATOM      6  C   UNL     1       4.925   5.813  19.278  0.00  0.00    +0.000 C 
ATOM      7  N   UNL     1       5.765   6.147  18.127  0.00  0.00    +0.000 NA
ATOM      8  C   UNL     1       4.872   6.664  17.063  0.00  0.00    +0.000 C 
ATOM      9  C   UNL     1       3.438   6.439  17.513  0.00  0.00    +0.000 C 
ATOM     10  C   UNL     1       2.747   7.682  18.079  0.00  0.00    +0.000 C 
ENDROOT
BRANCH   2  11
ATOM     11  C   UNL     1       0.946   9.424  20.062  0.00  0.00    +0.000 A 
ATOM     12  C   UNL     1       1.112  10.363  21.107  0.00  0.00    +0.000 A 
ATOM     13  C   UNL     1       0.609  11.668  21.024  0.00  0.00    +0.000 A 
ATOM     14  C   UNL     1      -0.083  12.065  19.890  0.00  0.00    +0.000 A 
ATOM     15  C   UNL     1      -0.253  11.155  18.857  0.00  0.00    +0.000 A 
ATOM     16  F   UNL     1      -0.926  11.529  17.760  0.00  0.00    +0.000 F 
ATOM     17  C   UNL     1       0.253   9.855  18.930  0.00  0.00    +0.000 A 
ENDBRANCH   2  11
BRANCH   7  18
ATOM     18  C   UNL     1       6.548   4.979  17.669  0.00  0.00    +0.000 C 
BRANCH  18  19
ATOM     19  C   UNL     1       6.475   4.787  16.164  0.00  0.00    +0.000 A 
ATOM     20  C   UNL     1       5.525   3.921  15.623  0.00  0.00    +0.000 A 
ATOM     21  C   UNL     1       5.571   3.645  14.262  0.00  0.00    +0.000 A 
ATOM     22  C   UNL     1       6.548   4.249  13.479  0.00  0.00    +0.000 A 
ATOM     23  C   UNL     1       7.433   5.123  14.090  0.00  0.00    +0.000 A 
ATOM     24  N   UNL     1       7.419   5.403  15.409  0.00  0.00    +0.000 NA
ENDBRANCH  18  19
ENDBRANCH   7  18
TORSDOF 3
ENDMDL
MODEL 5
REMARK VINA RESULT:      -7.5      3.796      8.987
REMARK  Name = 
REMARK  3 active torsions:
REMARK  status: ('A' for Active; 'I' for Inactive)
REMARK    1  A    between atoms: C_2  and  C_3
REMARK    2  A    between atoms: N_14  and  C_15
REMARK    3  A    between atoms: C_15  and  C_16
REMARK                            x       y       z     vdW  Elec       q    Type
REMARK                         _______ _______ _______ _____ _____    ______ ____
ROOT
ATOM      1  O   UNL     1       1.830   5.808  20.884  0.00  0.00    +0.000 OA
ATOM      2  C   UNL     1       2.111   6.393  19.834  0.00  0.00    +0.000 C 
ATOM      3  N   UNL     1       1.822   7.750  19.714  0.00  0.00    +0.000 N 
ATOM      4  C   UNL     1       1.452   8.501  20.908  0.00  0.00    +0.000 C 
ATOM      5  C   UNL     1       0.767   9.746  20.393  0.00  0.00    +0.000 C 
ATOM      6  C   UNL     1      -0.701   9.521  20.083  0.00  0.00    +0.000 C 
ATOM      7  N   UNL     1      -0.995  10.406  18.956  0.00  0.00    +0.000 NA
ATOM      8  C   UNL     1       0.269  10.610  18.211  0.00  0.00    +0.000 C 
ATOM      9  C   UNL     1       1.393   9.998  19.032  0.00  0.00    +0.000 C 
ATOM     10  C   UNL     1       1.853   8.620  18.552  0.00  0.00    +0.000 C 
ENDROOT
BRANCH   2  11
ATOM     11  C   UNL     1       2.783   5.570  18.763  0.00  0.00    +0.000 A 
ATOM     12  C   UNL     1       2.069   4.436  18.310  0.00  0.00    +0.000 A 
ATOM     13  C   UNL     1       2.590   3.562  17.348  0.00  0.00    +0.000 A 
ATOM     14  C   UNL     1       3.848   3.800  16.815  0.00  0.00    +0.000 A 
ATOM     15  C   UNL     1       4.560   4.909  17.249  0.00  0.00    +0.000 A 
ATOM     16  F   UNL     1       5.779   5.141  16.744  0.00  0.00    +0.000 F 
ATOM     17  C   UNL     1       4.043   5.788  18.203  0.00  0.00    +0.000 A 
ENDBRANCH   2  11
BRANCH   7  18
ATOM     18  C   UNL     1      -1.580  11.687  19.410  0.00  0.00    +0.000 C 
BRANCH  18  19
ATOM     19  C   UNL     1      -2.983  11.906  18.872  0.00  0.00    +0.000 A 
ATOM     20  C   UNL     1      -3.974  12.416  19.709  0.00  0.00    +0.000 A 
ATOM     21  C   UNL     1      -5.282  12.468  19.242  0.00  0.00    +0.000 A 
ATOM     22  C   UNL     1      -5.561  12.027  17.953  0.00  0.00    +0.000 A 
ATOM     23  C   UNL     1      -4.512  11.566  17.175  0.00  0.00    +0.000 A 
ATOM     24  N   UNL     1      -3.236  11.495  17.603  0.00  0.00    +0.000 NA
ENDBRANCH  18  19
ENDBRANCH   7  18
TORSDOF 3
ENDMDL
MODEL 6
REMARK VINA RESULT:      -7.5      3.894      9.041
REMARK  Name = 
REMARK  3 active torsions:
REMARK  status: ('A' for Active; 'I' for Inactive)
REMARK    1  A    between atoms: C_2  and  C_3
REMARK    2  A    between atoms: N_14  and  C_15
REMARK    3  A    between atoms: C_15  and  C_16
REMARK                            x       y       z     vdW  Elec       q    Type
REMARK                         _______ _______ _______ _____ _____    ______ ____
ROOT
ATOM      1  O   UNL     1       1.905   5.871  20.795  0.00  0.00    +0.000 OA
ATOM      2  C   UNL     1       2.180   6.490  19.763  0.00  0.00    +0.000 C 
ATOM      3  N   UNL     1       1.849   7.840  19.671  0.00  0.00    +0.000 N 
ATOM      4  C   UNL     1       1.442   8.550  20.879  0.00  0.00    +0.000 C 
ATOM      5  C   UNL     1       0.724   9.784  20.385  0.00  0.00    +0.000 C 
ATOM      6  C   UNL     1      -0.732   9.521  20.052  0.00  0.00    +0.000 C 
ATOM      7  N   UNL     1      -1.041  10.424  18.943  0.00  0.00    +0.000 NA
ATOM      8  C   UNL     1       0.224  10.685  18.219  0.00  0.00    +0.000 C 
ATOM      9  C   UNL     1       1.357  10.089  19.039  0.00  0.00    +0.000 C 
ATOM     10  C   UNL     1       1.866   8.739  18.532  0.00  0.00    +0.000 C 
ENDROOT
BRANCH   2  11
ATOM     11  C   UNL     1       2.890   5.715  18.681  0.00  0.00    +0.000 A 
ATOM     12  C   UNL     1       2.309   4.477  18.318  0.00  0.00    +0.000 A 
ATOM     13  C   UNL     1       2.883   3.637  17.356  0.00  0.00    +0.000 A 
ATOM     14  C   UNL     1       4.063   4.014  16.733  0.00  0.00    +0.000 A 
ATOM     15  C   UNL     1       4.644   5.225  17.078  0.00  0.00    +0.000 A 
ATOM     16  F   UNL     1       5.789   5.593  16.485  0.00  0.00    +0.000 F 
ATOM     17  C   UNL     1       4.073   6.071  18.031  0.00  0.00    +0.000 A 
ENDBRANCH   2  11
BRANCH   7  18
ATOM     18  C   UNL     1      -1.672  11.674  19.421  0.00  0.00    +0.000 C 
BRANCH  18  19
ATOM     19  C   UNL     1      -3.113  11.807  18.962  0.00  0.00    +0.000 A 
ATOM     20  C   UNL     1      -3.478  11.368  17.690  0.00  0.00    +0.000 A 
ATOM     21  C   UNL     1      -4.764  11.634  17.234  0.00  0.00    +0.000 A 
ATOM     22  C   UNL     1      -5.651  12.312  18.061  0.00  0.00    +0.000 A 
ATOM     23  C   UNL     1      -5.219  12.684  19.324  0.00  0.00    +0.000 A 
ATOM     24  N   UNL     1      -3.976  12.449  19.790  0.00  0.00    +0.000 NA
ENDBRANCH  18  19
ENDBRANCH   7  18
TORSDOF 3
ENDMDL
MODEL 7
REMARK VINA RESULT:      -7.4      5.027      7.383
REMARK  Name = 
REMARK  3 active torsions:
REMARK  status: ('A' for Active; 'I' for Inactive)
REMARK    1  A    between atoms: C_2  and  C_3
REMARK    2  A    between atoms: N_14  and  C_15
REMARK    3  A    between atoms: C_15  and  C_16
REMARK                            x       y       z     vdW  Elec       q    Type
REMARK                         _______ _______ _______ _____ _____    ______ ____
ROOT
ATOM      1  O   UNL     1       7.697  10.473  17.134  0.00  0.00    +0.000 OA
ATOM      2  C   UNL     1       8.288   9.812  17.995  0.00  0.00    +0.000 C 
ATOM      3  N   UNL     1       8.095   8.433  18.042  0.00  0.00    +0.000 N 
ATOM      4  C   UNL     1       7.430   7.774  16.924  0.00  0.00    +0.000 C 
ATOM      5  C   UNL     1       6.967   6.444  17.470  0.00  0.00    +0.000 C 
ATOM      6  C   UNL     1       5.641   6.540  18.200  0.00  0.00    +0.000 C 
ATOM      7  N   UNL     1       5.712   5.535  19.261  0.00  0.00    +0.000 NA
ATOM      8  C   UNL     1       7.143   5.347  19.597  0.00  0.00    +0.000 C 
ATOM      9  C   UNL     1       7.963   6.107  18.567  0.00  0.00    +0.000 C 
ATOM     10  C   UNL     1       8.488   7.461  19.046  0.00  0.00    +0.000 C 
ENDROOT
BRANCH   2  11
ATOM     11  C   UNL     1       9.205  10.574  18.919  0.00  0.00    +0.000 A 
ATOM     12  C   UNL     1      10.477  10.905  18.398  0.00  0.00    +0.000 A 
ATOM     13  C   UNL     1      11.442  11.578  19.159  0.00  0.00    +0.000 A 
ATOM     14  C   UNL     1      11.158  11.931  20.469  0.00  0.00    +0.000 A 
ATOM     15  C   UNL     1       9.914  11.613  20.993  0.00  0.00    +0.000 A 
ATOM     16  F   UNL     1       9.635  11.944  22.262  0.00  0.00    +0.000 F 
ATOM     17  C   UNL     1       8.944  10.949  20.238  0.00  0.00    +0.000 A 
ENDBRANCH   2  11
BRANCH   7  18
ATOM     18  C   UNL     1       5.071   4.267  18.851  0.00  0.00    +0.000 C 
BRANCH  18  19
ATOM     19  C   UNL     1       3.801   3.981  19.633  0.00  0.00    +0.000 A 
ATOM     20  C   UNL     1       2.789   4.938  19.684  0.00  0.00    +0.000 A 
ATOM     21  C   UNL     1       1.704   4.721  20.524  0.00  0.00    +0.000 A 
ATOM     22  C   UNL     1       1.650   3.552  21.275  0.00  0.00    +0.000 A 
ATOM     23  C   UNL     1       2.681   2.637  21.141  0.00  0.00    +0.000 A 
ATOM     24  N   UNL     1       3.750   2.824  20.342  0.00  0.00    +0.000 NA
ENDBRANCH  18  19
ENDBRANCH   7  18
TORSDOF 3
ENDMDL
MODEL 8
REMARK VINA RESULT:      -7.4      3.946      9.022
REMARK  Name = 
REMARK  3 active torsions:
REMARK  status: ('A' for Active; 'I' for Inactive)
REMARK    1  A    between atoms: C_2  and  C_3
REMARK    2  A    between atoms: N_14  and  C_15
REMARK    3  A    between atoms: C_15  and  C_16
REMARK                            x       y       z     vdW  Elec       q    Type
REMARK                         _______ _______ _______ _____ _____    ______ ____
ROOT
ATOM      1  O   UNL     1       1.768   5.901  21.113  0.00  0.00    +0.000 OA
ATOM      2  C   UNL     1       2.078   6.428  20.040  0.00  0.00    +0.000 C 
ATOM      3  N   UNL     1       1.793   7.776  19.838  0.00  0.00    +0.000 N 
ATOM      4  C   UNL     1       1.390   8.592  20.979  0.00  0.00    +0.000 C 
ATOM      5  C   UNL     1       0.721   9.805  20.378  0.00  0.00    +0.000 C 
ATOM      6  C   UNL     1      -0.738   9.562  20.039  0.00  0.00    +0.000 C 
ATOM      7  N   UNL     1      -1.000  10.384  18.858  0.00  0.00    +0.000 NA
ATOM      8  C   UNL     1       0.284  10.548  18.139  0.00  0.00    +0.000 C 
ATOM      9  C   UNL     1       1.384   9.984  19.023  0.00  0.00    +0.000 C 
ATOM     10  C   UNL     1       1.857   8.582  18.632  0.00  0.00    +0.000 C 
ENDROOT
BRANCH   2  11
ATOM     11  C   UNL     1       2.780   5.549  19.035  0.00  0.00    +0.000 A 
ATOM     12  C   UNL     1       4.164   5.782  18.863  0.00  0.00    +0.000 A 
ATOM     13  C   UNL     1       4.931   5.065  17.936  0.00  0.00    +0.000 A 
ATOM     14  C   UNL     1       4.327   4.096  17.150  0.00  0.00    +0.000 A 
ATOM     15  C   UNL     1       2.970   3.855  17.308  0.00  0.00    +0.000 A 
ATOM     16  F   UNL     1       2.378   2.925  16.546  0.00  0.00    +0.000 F 
ATOM     17  C   UNL     1       2.201   4.561  18.236  0.00  0.00    +0.000 A 
ENDBRANCH   2  11
BRANCH   7  18
ATOM     18  C   UNL     1      -1.597  11.687  19.225  0.00  0.00    +0.000 C 
BRANCH  18  19
ATOM     19  C   UNL     1      -3.056  11.791  18.816  0.00  0.00    +0.000 A 
ATOM     20  C   UNL     1      -3.445  11.403  17.535  0.00  0.00    +0.000 A 
ATOM     21  C   UNL     1      -4.753  11.645  17.131  0.00  0.00    +0.000 A 
ATOM     22  C   UNL     1      -5.636  12.249  18.018  0.00  0.00    +0.000 A 
ATOM     23  C   UNL     1      -5.178  12.572  19.285  0.00  0.00    +0.000 A 
ATOM     24  N   UNL     1      -3.914  12.359  19.702  0.00  0.00    +0.000 NA
ENDBRANCH  18  19
ENDBRANCH   7  18
TORSDOF 3
ENDMDL
MODEL 9
REMARK VINA RESULT:      -7.2      3.838      9.125
REMARK  Name = 
REMARK  3 active torsions:
REMARK  status: ('A' for Active; 'I' for Inactive)
REMARK    1  A    between atoms: C_2  and  C_3
REMARK    2  A    between atoms: N_14  and  C_15
REMARK    3  A    between atoms: C_15  and  C_16
REMARK                            x       y       z     vdW  Elec       q    Type
REMARK                         _______ _______ _______ _____ _____    ______ ____
ROOT
ATOM      1  O   UNL     1       1.787   5.994  21.086  0.00  0.00    +0.000 OA
ATOM      2  C   UNL     1       2.055   6.524  20.002  0.00  0.00    +0.000 C 
ATOM      3  N   UNL     1       1.792   7.880  19.825  0.00  0.00    +0.000 N 
ATOM      4  C   UNL     1       1.467   8.694  20.991  0.00  0.00    +0.000 C 
ATOM      5  C   UNL     1       0.798   9.928  20.434  0.00  0.00    +0.000 C 
ATOM      6  C   UNL     1      -0.682   9.722  20.169  0.00  0.00    +0.000 C 
ATOM      7  N   UNL     1      -0.984  10.561  19.009  0.00  0.00    +0.000 NA
ATOM      8  C   UNL     1       0.266  10.701  18.226  0.00  0.00    +0.000 C 
ATOM      9  C   UNL     1       1.395  10.103  19.049  0.00  0.00    +0.000 C 
ATOM     10  C   UNL     1       1.814   8.694  18.624  0.00  0.00    +0.000 C 
ENDROOT
BRANCH   2  11
ATOM     11  C   UNL     1       2.683   5.637  18.956  0.00  0.00    +0.000 A 
ATOM     12  C   UNL     1       3.903   6.092  18.405  0.00  0.00    +0.000 A 
ATOM     13  C   UNL     1       4.576   5.389  17.398  0.00  0.00    +0.000 A 
ATOM     14  C   UNL     1       4.038   4.207  16.910  0.00  0.00    +0.000 A 
ATOM     15  C   UNL     1       2.842   3.747  17.442  0.00  0.00    +0.000 A 
ATOM     16  F   UNL     1       2.312   2.610  16.971  0.00  0.00    +0.000 F 
ATOM     17  C   UNL     1       2.170   4.440  18.452  0.00  0.00    +0.000 A 
ENDBRANCH   2  11
BRANCH   7  18
ATOM     18  C   UNL     1      -1.530  11.874  19.416  0.00  0.00    +0.000 C 
BRANCH  18  19
ATOM     19  C   UNL     1      -3.019  11.993  19.138  0.00  0.00    +0.000 A 
ATOM     20  C   UNL     1      -3.848  12.620  20.067  0.00  0.00    +0.000 A 
ATOM     21  C   UNL     1      -5.223  12.587  19.866  0.00  0.00    +0.000 A 
ATOM     22  C   UNL     1      -5.729  11.946  18.740  0.00  0.00    +0.000 A 
ATOM     23  C   UNL     1      -4.833  11.377  17.850  0.00  0.00    +0.000 A 
ATOM     24  N   UNL     1      -3.497  11.385  18.022  0.00  0.00    +0.000 NA
ENDBRANCH  18  19
ENDBRANCH   7  18
TORSDOF 3
ENDMDL
