MODEL 1
REMARK VINA RESULT:      -8.0      0.000      0.000
REMARK  Name = 
REMARK  3 active torsions:
REMARK  status: ('A' for Active; 'I' for Inactive)
REMARK    1  A    between atoms: C_1  and  N_2
REMARK    2  A    between atoms: C_4  and  N_5
REMARK    3  A    between atoms: C_6  and  C_8
REMARK                            x       y       z     vdW  Elec       q    Type
REMARK                         _______ _______ _______ _____ _____    ______ ____
ROOT
ATOM      1  C   UNL     1       1.902   8.133  19.023  0.00  0.00    +0.000 A 
ATOM      2  C   UNL     1       1.379   9.211  18.118  0.00  0.00    +0.000 A 
ATOM      3  C   UNL     1       0.582  10.114  18.700  0.00  0.00    +0.000 A 
ATOM      4  N   UNL     1       0.307  10.002  20.055  0.00  0.00    +0.000 N 
ATOM      5  C   UNL     1       0.846   8.981  20.841  0.00  0.00    +0.000 A 
ATOM      6  N   UNL     1       1.669   8.025  20.301  0.00  0.00    +0.000 NA
ATOM      7  N   UNL     1       0.425   9.086  22.083  0.00  0.00    +0.000 NA
ATOM      8  C   UNL     1      -0.408  10.178  22.108  0.00  0.00    +0.000 A 
ATOM      9  C   UNL     1      -1.140  10.715  23.178  0.00  0.00    +0.000 A 
ATOM     10  C   UNL     1      -1.935  11.847  22.959  0.00  0.00    +0.000 A 
ATOM     11  C   UNL     1      -2.001  12.438  21.696  0.00  0.00    +0.000 A 
ATOM     12  C   UNL     1      -1.282  11.918  20.614  0.00  0.00    +0.000 A 
ATOM     13  C   UNL     1      -0.496  10.781  20.857  0.00  0.00    +0.000 A 
ENDROOT
BRANCH   1  15
ATOM     14  N   UNL     1       3.964   7.534  17.826  0.00  0.00    +0.000 N 
ATOM     15  C   UNL     1       2.764   7.074  18.339  0.00  0.00    +0.000 C 
ATOM     16  O   UNL     1       2.342   5.927  18.304  0.00  0.00    +0.000 OA
ATOM     17  H   UNL     1       4.133   8.533  17.938  0.00  0.00    +0.000 HD
BRANCH  14  21
ATOM     18  C   UNL     1       7.798   4.526  17.814  0.00  0.00    +0.000 C 
ATOM     19  N   UNL     1       6.788   5.290  17.100  0.00  0.00    +0.000 N 
ATOM     20  C   UNL     1       5.873   6.032  17.811  0.00  0.00    +0.000 A 
ATOM     21  C   UNL     1       4.920   6.757  17.212  0.00  0.00    +0.000 A 
ATOM     22  C   UNL     1       4.979   6.659  15.733  0.00  0.00    +0.000 A 
ATOM     23  N   UNL     1       5.827   5.974  15.039  0.00  0.00    +0.000 NA
ATOM     24  C   UNL     1       6.789   5.245  15.703  0.00  0.00    +0.000 A 
ATOM     25  O   UNL     1       7.619   4.579  15.089  0.00  0.00    +0.000 OA
ENDBRANCH  14  21
ENDBRANCH   1  15
TORSDOF 2
ENDMDL
MODEL 2
REMARK VINA RESULT:      -7.6      0.573      1.276
REMARK  Name = 
REMARK  3 active torsions:
REMARK  status: ('A' for Active; 'I' for Inactive)
REMARK    1  A    between atoms: C_1  and  N_2
REMARK    2  A    between atoms: C_4  and  N_5
REMARK    3  A    between atoms: C_6  and  C_8
REMARK                            x       y       z     vdW  Elec       q    Type
REMARK                         _______ _______ _______ _____ _____    ______ ____
ROOT
ATOM      1  C   UNL     1       1.956   8.058  19.121  0.00  0.00    +0.000 A 
ATOM      2  C   UNL     1       1.454   9.101  18.165  0.00  0.00    +0.000 A 
ATOM      3  C   UNL     1       0.648  10.027  18.697  0.00  0.00    +0.000 A 
ATOM      4  N   UNL     1       0.348   9.970  20.049  0.00  0.00    +0.000 N 
ATOM      5  C   UNL     1       0.868   8.978  20.884  0.00  0.00    +0.000 A 
ATOM      6  N   UNL     1       1.699   8.000  20.398  0.00  0.00    +0.000 NA
ATOM      7  N   UNL     1       0.424   9.133  22.113  0.00  0.00    +0.000 NA
ATOM      8  C   UNL     1      -0.405  10.227  22.080  0.00  0.00    +0.000 A 
ATOM      9  C   UNL     1      -1.156  10.807  23.114  0.00  0.00    +0.000 A 
ATOM     10  C   UNL     1      -1.944  11.932  22.835  0.00  0.00    +0.000 A 
ATOM     11  C   UNL     1      -1.984  12.473  21.549  0.00  0.00    +0.000 A 
ATOM     12  C   UNL     1      -1.246  11.909  20.502  0.00  0.00    +0.000 A 
ATOM     13  C   UNL     1      -0.468  10.781  20.805  0.00  0.00    +0.000 A 
ENDROOT
BRANCH   1  15
ATOM     14  N   UNL     1       3.948   7.429  17.825  0.00  0.00    +0.000 N 
ATOM     15  C   UNL     1       2.828   6.971  18.496  0.00  0.00    +0.000 C 
ATOM     16  O   UNL     1       2.482   5.807  18.638  0.00  0.00    +0.000 OA
ATOM     17  H   UNL     1       4.059   8.442  17.800  0.00  0.00    +0.000 HD
BRANCH  14  21
ATOM     18  C   UNL     1       5.558   4.394  14.369  0.00  0.00    +0.000 C 
ATOM     19  N   UNL     1       5.780   5.149  15.591  0.00  0.00    +0.000 N 
ATOM     20  C   UNL     1       4.760   5.918  16.105  0.00  0.00    +0.000 A 
ATOM     21  C   UNL     1       4.901   6.635  17.227  0.00  0.00    +0.000 A 
ATOM     22  C   UNL     1       6.253   6.498  17.822  0.00  0.00    +0.000 A 
ATOM     23  N   UNL     1       7.227   5.783  17.364  0.00  0.00    +0.000 NA
ATOM     24  C   UNL     1       7.031   5.062  16.207  0.00  0.00    +0.000 A 
ATOM     25  O   UNL     1       7.925   4.366  15.732  0.00  0.00    +0.000 OA
ENDBRANCH  14  21
ENDBRANCH   1  15
TORSDOF 2
ENDMDL
MODEL 3
REMARK VINA RESULT:      -7.4      0.785      1.674
REMARK  Name = 
REMARK  3 active torsions:
REMARK  status: ('A' for Active; 'I' for Inactive)
REMARK    1  A    between atoms: C_1  and  N_2
REMARK    2  A    between atoms: C_4  and  N_5
REMARK    3  A    between atoms: C_6  and  C_8
REMARK                            x       y       z     vdW  Elec       q    Type
REMARK                         _______ _______ _______ _____ _____    ______ ____
ROOT
ATOM      1  C   UNL     1       1.917   7.861  19.470  0.00  0.00    +0.000 A 
ATOM      2  C   UNL     1       1.560   7.461  20.873  0.00  0.00    +0.000 A 
ATOM      3  C   UNL     1       0.839   8.354  21.560  0.00  0.00    +0.000 A 
ATOM      4  N   UNL     1       0.474   9.545  20.949  0.00  0.00    +0.000 N 
ATOM      5  C   UNL     1       0.827   9.842  19.631  0.00  0.00    +0.000 A 
ATOM      6  N   UNL     1       1.567   8.967  18.876  0.00  0.00    +0.000 NA
ATOM      7  N   UNL     1       0.376  11.031  19.292  0.00  0.00    +0.000 NA
ATOM      8  C   UNL     1      -0.265  11.523  20.403  0.00  0.00    +0.000 A 
ATOM      9  C   UNL     1      -0.900  12.760  20.590  0.00  0.00    +0.000 A 
ATOM     10  C   UNL     1      -1.488  13.043  21.830  0.00  0.00    +0.000 A 
ATOM     11  C   UNL     1      -1.447  12.111  22.868  0.00  0.00    +0.000 A 
ATOM     12  C   UNL     1      -0.816  10.872  22.704  0.00  0.00    +0.000 A 
ATOM     13  C   UNL     1      -0.231  10.613  21.456  0.00  0.00    +0.000 A 
ENDROOT
BRANCH   1  15
ATOM     14  N   UNL     1       3.898   7.406  18.087  0.00  0.00    +0.000 N 
ATOM     15  C   UNL     1       2.789   6.863  18.713  0.00  0.00    +0.000 C 
ATOM     16  O   UNL     1       2.454   5.687  18.721  0.00  0.00    +0.000 OA
ATOM     17  H   UNL     1       4.000   8.416  18.179  0.00  0.00    +0.000 HD
BRANCH  14  21
ATOM     18  C   UNL     1       7.783   4.485  17.740  0.00  0.00    +0.000 C 
ATOM     19  N   UNL     1       6.739   5.280  17.114  0.00  0.00    +0.000 N 
ATOM     20  C   UNL     1       5.832   5.948  17.905  0.00  0.00    +0.000 A 
ATOM     21  C   UNL     1       4.849   6.696  17.390  0.00  0.00    +0.000 A 
ATOM     22  C   UNL     1       4.865   6.710  15.906  0.00  0.00    +0.000 A 
ATOM     23  N   UNL     1       5.703   6.096  15.139  0.00  0.00    +0.000 NA
ATOM     24  C   UNL     1       6.697   5.339  15.718  0.00  0.00    +0.000 A 
ATOM     25  O   UNL     1       7.520   4.737  15.032  0.00  0.00    +0.000 OA
ENDBRANCH  14  21
ENDBRANCH   1  15
TORSDOF 2
ENDMDL
MODEL 4
REMARK VINA RESULT:      -7.3      1.548      2.289
REMARK  Name = 
REMARK  3 active torsions:
REMARK  status: ('A' for Active; 'I' for Inactive)
REMARK    1  A    between atoms: C_1  and  N_2
REMARK    2  A    between atoms: C_4  and  N_5
REMARK    3  A    between atoms: C_6  and  C_8
REMARK                            x       y       z     vdW  Elec       q    Type
REMARK                         _______ _______ _______ _____ _____    ______ ____
ROOT
ATOM      1  C   UNL     1       1.395   8.883  19.212  0.00  0.00    +0.000 A 
ATOM      2  C   UNL     1       1.406   8.375  20.625  0.00  0.00    +0.000 A 
ATOM      3  C   UNL     1       0.628   9.045  21.483  0.00  0.00    +0.000 A 
ATOM      4  N   UNL     1      -0.117  10.121  21.025  0.00  0.00    +0.000 N 
ATOM      5  C   UNL     1      -0.092  10.526  19.688  0.00  0.00    +0.000 A 
ATOM      6  N   UNL     1       0.687   9.880  18.762  0.00  0.00    +0.000 NA
ATOM      7  N   UNL     1      -0.869  11.573  19.511  0.00  0.00    +0.000 NA
ATOM      8  C   UNL     1      -1.397  11.865  20.746  0.00  0.00    +0.000 A 
ATOM      9  C   UNL     1      -2.266  12.901  21.121  0.00  0.00    +0.000 A 
ATOM     10  C   UNL     1      -2.669  13.000  22.459  0.00  0.00    +0.000 A 
ATOM     11  C   UNL     1      -2.216  12.084  23.410  0.00  0.00    +0.000 A 
ATOM     12  C   UNL     1      -1.347  11.045  23.059  0.00  0.00    +0.000 A 
ATOM     13  C   UNL     1      -0.954  10.969  21.714  0.00  0.00    +0.000 A 
ENDROOT
BRANCH   1  15
ATOM     14  N   UNL     1       2.844   6.957  18.728  0.00  0.00    +0.000 N 
ATOM     15  C   UNL     1       2.329   8.150  18.252  0.00  0.00    +0.000 C 
ATOM     16  O   UNL     1       2.541   8.657  17.160  0.00  0.00    +0.000 OA
ATOM     17  H   UNL     1       2.563   6.707  19.676  0.00  0.00    +0.000 HD
BRANCH  14  21
ATOM     18  C   UNL     1       7.036   5.724  16.571  0.00  0.00    +0.000 C 
ATOM     19  N   UNL     1       5.666   5.410  16.944  0.00  0.00    +0.000 N 
ATOM     20  C   UNL     1       4.931   6.333  17.653  0.00  0.00    +0.000 A 
ATOM     21  C   UNL     1       3.665   6.104  18.025  0.00  0.00    +0.000 A 
ATOM     22  C   UNL     1       3.177   4.773  17.589  0.00  0.00    +0.000 A 
ATOM     23  N   UNL     1       3.843   3.889  16.922  0.00  0.00    +0.000 NA
ATOM     24  C   UNL     1       5.141   4.173  16.561  0.00  0.00    +0.000 A 
ATOM     25  O   UNL     1       5.816   3.366  15.925  0.00  0.00    +0.000 OA
ENDBRANCH  14  21
ENDBRANCH   1  15
TORSDOF 2
ENDMDL
MODEL 5
REMARK VINA RESULT:      -7.2      1.032      2.082
REMARK  Name = 
REMARK  3 active torsions:
REMARK  status: ('A' for Active; 'I' for Inactive)
REMARK    1  A    between atoms: C_1  and  N_2
REMARK    2  A    between atoms: C_4  and  N_5
REMARK    3  A    between atoms: C_6  and  C_8
REMARK                            x       y       z     vdW  Elec       q    Type
REMARK                         _______ _______ _______ _____ _____    ______ ____
ROOT
ATOM      1  C   UNL     1       2.093   7.664  19.241  0.00  0.00    +0.000 A 
ATOM      2  C   UNL     1       1.778   7.217  20.639  0.00  0.00    +0.000 A 
ATOM      3  C   UNL     1       1.059   8.077  21.369  0.00  0.00    +0.000 A 
ATOM      4  N   UNL     1       0.659   9.278  20.803  0.00  0.00    +0.000 N 
ATOM      5  C   UNL     1       0.973   9.619  19.486  0.00  0.00    +0.000 A 
ATOM      6  N   UNL     1       1.710   8.780  18.688  0.00  0.00    +0.000 NA
ATOM      7  N   UNL     1       0.495  10.810  19.193  0.00  0.00    +0.000 NA
ATOM      8  C   UNL     1      -0.127  11.257  20.333  0.00  0.00    +0.000 A 
ATOM      9  C   UNL     1      -0.779  12.477  20.571  0.00  0.00    +0.000 A 
ATOM     10  C   UNL     1      -1.340  12.714  21.833  0.00  0.00    +0.000 A 
ATOM     11  C   UNL     1      -1.257  11.753  22.842  0.00  0.00    +0.000 A 
ATOM     12  C   UNL     1      -0.610  10.531  22.627  0.00  0.00    +0.000 A 
ATOM     13  C   UNL     1      -0.052  10.319  21.357  0.00  0.00    +0.000 A 
ENDROOT
BRANCH   1  15
ATOM     14  N   UNL     1       4.015   7.292  17.753  0.00  0.00    +0.000 N 
ATOM     15  C   UNL     1       2.963   6.703  18.433  0.00  0.00    +0.000 C 
ATOM     16  O   UNL     1       2.677   5.515  18.454  0.00  0.00    +0.000 OA
ATOM     17  H   UNL     1       4.082   8.306  17.845  0.00  0.00    +0.000 HD
BRANCH  14  21
ATOM     18  C   UNL     1       5.417   4.193  14.264  0.00  0.00    +0.000 C 
ATOM     19  N   UNL     1       5.741   5.130  15.327  0.00  0.00    +0.000 N 
ATOM     20  C   UNL     1       4.723   5.751  16.014  0.00  0.00    +0.000 A 
ATOM     21  C   UNL     1       4.955   6.623  17.003  0.00  0.00    +0.000 A 
ATOM     22  C   UNL     1       6.404   6.825  17.252  0.00  0.00    +0.000 A 
ATOM     23  N   UNL     1       7.380   6.256  16.625  0.00  0.00    +0.000 NA
ATOM     24  C   UNL     1       7.088   5.366  15.616  0.00  0.00    +0.000 A 
ATOM     25  O   UNL     1       7.980   4.797  14.992  0.00  0.00    +0.000 OA
ENDBRANCH  14  21
ENDBRANCH   1  15
TORSDOF 2
ENDMDL
MODEL 6
REMARK VINA RESULT:      -7.2      2.835      2.899
REMARK  Name = 
REMARK  3 active torsions:
REMARK  status: ('A' for Active; 'I' for Inactive)
REMARK    1  A    between atoms: C_1  and  N_2
REMARK    2  A    between atoms: C_4  and  N_5
REMARK    3  A    between atoms: C_6  and  C_8
REMARK                            x       y       z     vdW  Elec       q    Type
REMARK                         _______ _______ _______ _____ _____    ______ ____
ROOT
ATOM      1  C   UNL     1       1.666   8.495  19.341  0.00  0.00    +0.000 A 
ATOM      2  C   UNL     1       1.386   9.527  18.287  0.00  0.00    +0.000 A 
ATOM      3  C   UNL     1       0.699  10.598  18.698  0.00  0.00    +0.000 A 
ATOM      4  N   UNL     1       0.311  10.686  20.027  0.00  0.00    +0.000 N 
ATOM      5  C   UNL     1       0.623   9.694  20.959  0.00  0.00    +0.000 A 
ATOM      6  N   UNL     1       1.325   8.571  20.597  0.00  0.00    +0.000 NA
ATOM      7  N   UNL     1       0.134  10.002  22.140  0.00  0.00    +0.000 NA
ATOM      8  C   UNL     1      -0.518  11.201  21.977  0.00  0.00    +0.000 A 
ATOM      9  C   UNL     1      -1.235  11.959  22.916  0.00  0.00    +0.000 A 
ATOM     10  C   UNL     1      -1.825  13.163  22.509  0.00  0.00    +0.000 A 
ATOM     11  C   UNL     1      -1.704  13.607  21.191  0.00  0.00    +0.000 A 
ATOM     12  C   UNL     1      -0.997  12.866  20.239  0.00  0.00    +0.000 A 
ATOM     13  C   UNL     1      -0.418  11.662  20.668  0.00  0.00    +0.000 A 
ENDROOT
BRANCH   1  15
ATOM     14  N   UNL     1       1.968   6.057  19.404  0.00  0.00    +0.000 N 
ATOM     15  C   UNL     1       2.400   7.249  18.851  0.00  0.00    +0.000 C 
ATOM     16  O   UNL     1       3.289   7.395  18.024  0.00  0.00    +0.000 OA
ATOM     17  H   UNL     1       1.223   6.140  20.095  0.00  0.00    +0.000 HD
BRANCH  14  21
ATOM     18  C   UNL     1       4.598   2.039  20.234  0.00  0.00    +0.000 C 
ATOM     19  N   UNL     1       3.698   2.809  19.391  0.00  0.00    +0.000 N 
ATOM     20  C   UNL     1       3.273   4.049  19.811  0.00  0.00    +0.000 A 
ATOM     21  C   UNL     1       2.446   4.807  19.080  0.00  0.00    +0.000 A 
ATOM     22  C   UNL     1       2.060   4.157  17.804  0.00  0.00    +0.000 A 
ATOM     23  N   UNL     1       2.444   2.997  17.383  0.00  0.00    +0.000 NA
ATOM     24  C   UNL     1       3.296   2.257  18.172  0.00  0.00    +0.000 A 
ATOM     25  O   UNL     1       3.691   1.149  17.816  0.00  0.00    +0.000 OA
ENDBRANCH  14  21
ENDBRANCH   1  15
TORSDOF 2
ENDMDL
MODEL 7
REMARK VINA RESULT:      -7.0      2.316      2.996
REMARK  Name = 
REMARK  3 active torsions:
REMARK  status: ('A' for Active; 'I' for Inactive)
REMARK    1  A    between atoms: C_1  and  N_2
REMARK    2  A    between atoms: C_4  and  N_5
REMARK    3  A    between atoms: C_6  and  C_8
REMARK                            x       y       z     vdW  Elec       q    Type
REMARK                         _______ _______ _______ _____ _____    ______ ____
ROOT
ATOM      1  C   UNL     1       1.187   9.175  19.565  0.00  0.00    +0.000 A 
ATOM      2  C   UNL     1       0.535   9.949  18.455  0.00  0.00    +0.000 A 
ATOM      3  C   UNL     1      -0.236  10.971  18.843  0.00  0.00    +0.000 A 
ATOM      4  N   UNL     1      -0.370  11.243  20.197  0.00  0.00    +0.000 N 
ATOM      5  C   UNL     1       0.283  10.490  21.175  0.00  0.00    +0.000 A 
ATOM      6  N   UNL     1       1.086   9.429  20.839  0.00  0.00    +0.000 NA
ATOM      7  N   UNL     1      -0.017  10.937  22.375  0.00  0.00    +0.000 NA
ATOM      8  C   UNL     1      -0.885  11.984  22.182  0.00  0.00    +0.000 A 
ATOM      9  C   UNL     1      -1.529  12.793  23.131  0.00  0.00    +0.000 A 
ATOM     10  C   UNL     1      -2.386  13.809  22.689  0.00  0.00    +0.000 A 
ATOM     11  C   UNL     1      -2.600  14.020  21.326  0.00  0.00    +0.000 A 
ATOM     12  C   UNL     1      -1.971  13.223  20.363  0.00  0.00    +0.000 A 
ATOM     13  C   UNL     1      -1.121  12.209  20.829  0.00  0.00    +0.000 A 
ENDROOT
BRANCH   1  15
ATOM     14  N   UNL     1       2.301   7.052  20.109  0.00  0.00    +0.000 N 
ATOM     15  C   UNL     1       2.018   7.975  19.117  0.00  0.00    +0.000 C 
ATOM     16  O   UNL     1       2.358   7.918  17.944  0.00  0.00    +0.000 OA
ATOM     17  H   UNL     1       1.944   7.284  21.036  0.00  0.00    +0.000 HD
BRANCH  14  21
ATOM     18  C   UNL     1       6.023   4.379  18.450  0.00  0.00    +0.000 C 
ATOM     19  N   UNL     1       4.759   4.483  19.162  0.00  0.00    +0.000 N 
ATOM     20  C   UNL     1       4.154   5.713  19.288  0.00  0.00    +0.000 A 
ATOM     21  C   UNL     1       2.990   5.874  19.931  0.00  0.00    +0.000 A 
ATOM     22  C   UNL     1       2.459   4.598  20.469  0.00  0.00    +0.000 A 
ATOM     23  N   UNL     1       3.003   3.431  20.364  0.00  0.00    +0.000 NA
ATOM     24  C   UNL     1       4.200   3.318  19.693  0.00  0.00    +0.000 A 
ATOM     25  O   UNL     1       4.757   2.230  19.564  0.00  0.00    +0.000 OA
ENDBRANCH  14  21
ENDBRANCH   1  15
TORSDOF 2
ENDMDL
MODEL 8
REMARK VINA RESULT:      -7.0      1.792      2.640
REMARK  Name = 
REMARK  3 active torsions:
REMARK  status: ('A' for Active; 'I' for Inactive)
REMARK    1  A    between atoms: C_1  and  N_2
REMARK    2  A    between atoms: C_4  and  N_5
REMARK    3  A    between atoms: C_6  and  C_8
REMARK                            x       y       z     vdW  Elec       q    Type
REMARK                         _______ _______ _______ _____ _____    ______ ____
ROOT
ATOM      1  C   UNL     1       1.030   9.336  19.291  0.00  0.00    +0.000 A 
ATOM      2  C   UNL     1       1.148   8.993  20.748  0.00  0.00    +0.000 A 
ATOM      3  C   UNL     1       0.384   9.718  21.573  0.00  0.00    +0.000 A 
ATOM      4  N   UNL     1      -0.443  10.699  21.046  0.00  0.00    +0.000 N 
ATOM      5  C   UNL     1      -0.515  10.951  19.674  0.00  0.00    +0.000 A 
ATOM      6  N   UNL     1       0.245  10.242  18.778  0.00  0.00    +0.000 NA
ATOM      7  N   UNL     1      -1.356  11.933  19.431  0.00  0.00    +0.000 NA
ATOM      8  C   UNL     1      -1.828  12.337  20.656  0.00  0.00    +0.000 A 
ATOM      9  C   UNL     1      -2.730  13.367  20.968  0.00  0.00    +0.000 A 
ATOM     10  C   UNL     1      -3.062  13.598  22.309  0.00  0.00    +0.000 A 
ATOM     11  C   UNL     1      -2.508  12.818  23.325  0.00  0.00    +0.000 A 
ATOM     12  C   UNL     1      -1.605  11.788  23.038  0.00  0.00    +0.000 A 
ATOM     13  C   UNL     1      -1.284  11.578  21.688  0.00  0.00    +0.000 A 
ENDROOT
BRANCH   1  15
ATOM     14  N   UNL     1       2.406   7.343  18.871  0.00  0.00    +0.000 N 
ATOM     15  C   UNL     1       1.947   8.545  18.361  0.00  0.00    +0.000 C 
ATOM     16  O   UNL     1       2.195   9.017  17.261  0.00  0.00    +0.000 OA
ATOM     17  H   UNL     1       2.102   7.127  19.821  0.00  0.00    +0.000 HD
BRANCH  14  21
ATOM     18  C   UNL     1       3.764   2.853  17.554  0.00  0.00    +0.000 C 
ATOM     19  N   UNL     1       3.945   4.294  17.501  0.00  0.00    +0.000 N 
ATOM     20  C   UNL     1       3.088   5.109  18.207  0.00  0.00    +0.000 A 
ATOM     21  C   UNL     1       3.201   6.442  18.200  0.00  0.00    +0.000 A 
ATOM     22  C   UNL     1       4.332   6.911  17.362  0.00  0.00    +0.000 A 
ATOM     23  N   UNL     1       5.152   6.171  16.691  0.00  0.00    +0.000 NA
ATOM     24  C   UNL     1       4.993   4.804  16.732  0.00  0.00    +0.000 A 
ATOM     25  O   UNL     1       5.748   4.057  16.113  0.00  0.00    +0.000 OA
ENDBRANCH  14  21
ENDBRANCH   1  15
TORSDOF 2
ENDMDL
MODEL 9
REMARK VINA RESULT:      -7.0      2.621      3.785
REMARK  Name = 
REMARK  3 active torsions:
REMARK  status: ('A' for Active; 'I' for Inactive)
REMARK    1  A    between atoms: C_1  and  N_2
REMARK    2  A    between atoms: C_4  and  N_5
REMARK    3  A    between atoms: C_6  and  C_8
REMARK                            x       y       z     vdW  Elec       q    Type
REMARK                         _______ _______ _______ _____ _____    ______ ____
ROOT
ATOM      1  C   UNL     1       0.849   8.890  20.601  0.00  0.00    +0.000 A 
ATOM      2  C   UNL     1       0.764   8.919  22.100  0.00  0.00    +0.000 A 
ATOM      3  C   UNL     1       0.030   9.912  22.614  0.00  0.00    +0.000 A 
ATOM      4  N   UNL     1      -0.587  10.813  21.759  0.00  0.00    +0.000 N 
ATOM      5  C   UNL     1      -0.478  10.713  20.370  0.00  0.00    +0.000 A 
ATOM      6  N   UNL     1       0.261   9.717  19.783  0.00  0.00    +0.000 NA
ATOM      7  N   UNL     1      -1.139  11.689  19.786  0.00  0.00    +0.000 NA
ATOM      8  C   UNL     1      -1.674  12.443  20.802  0.00  0.00    +0.000 A 
ATOM      9  C   UNL     1      -2.446  13.613  20.731  0.00  0.00    +0.000 A 
ATOM     10  C   UNL     1      -2.879  14.216  21.919  0.00  0.00    +0.000 A 
ATOM     11  C   UNL     1      -2.553  13.664  23.159  0.00  0.00    +0.000 A 
ATOM     12  C   UNL     1      -1.782  12.500  23.254  0.00  0.00    +0.000 A 
ATOM     13  C   UNL     1      -1.356  11.917  22.050  0.00  0.00    +0.000 A 
ENDROOT
BRANCH   1  15
ATOM     14  N   UNL     1       1.815   6.637  20.787  0.00  0.00    +0.000 N 
ATOM     15  C   UNL     1       1.735   7.788  20.023  0.00  0.00    +0.000 C 
ATOM     16  O   UNL     1       2.287   7.998  18.953  0.00  0.00    +0.000 OA
ATOM     17  H   UNL     1       1.295   6.657  21.664  0.00  0.00    +0.000 HD
BRANCH  14  21
ATOM     18  C   UNL     1       5.415   4.224  18.557  0.00  0.00    +0.000 C 
ATOM     19  N   UNL     1       4.227   4.231  19.396  0.00  0.00    +0.000 N 
ATOM     20  C   UNL     1       3.608   5.427  19.681  0.00  0.00    +0.000 A 
ATOM     21  C   UNL     1       2.512   5.499  20.446  0.00  0.00    +0.000 A 
ATOM     22  C   UNL     1       2.068   4.168  20.928  0.00  0.00    +0.000 A 
ATOM     23  N   UNL     1       2.626   3.032  20.675  0.00  0.00    +0.000 NA
ATOM     24  C   UNL     1       3.752   3.010  19.882  0.00  0.00    +0.000 A 
ATOM     25  O   UNL     1       4.319   1.954  19.611  0.00  0.00    +0.000 OA
ENDBRANCH  14  21
ENDBRANCH   1  15
TORSDOF 2
ENDMDL
