MODEL 1
REMARK VINA RESULT:      -8.0      0.000      0.000
REMARK  Name = 
REMARK  10 active torsions:
REMARK  status: ('A' for Active; 'I' for Inactive)
REMARK    1  A    between atoms: C_1  and  N_2
REMARK    2  A    between atoms: N_2  and  C_3
REMARK    3  A    between atoms: N_2  and  C_4
REMARK    4  A    between atoms: C_4  and  C_5
REMARK    5  A    between atoms: C_5  and  C_6
REMARK    6  A    between atoms: C_6  and  N_7
REMARK    7  A    between atoms: N_18  and  C_19
REMARK    8  A    between atoms: C_19  and  C_20
REMARK    9  A    between atoms: C_20  and  C_21
REMARK   10  A    between atoms: C_21  and  C_22
REMARK                            x       y       z     vdW  Elec       q    Type
REMARK                         _______ _______ _______ _____ _____    ______ ____
ROOT
ATOM      1  N   UNL     1       3.132   6.098  18.198  0.00  0.00    +0.000 N 
ATOM      2  C   UNL     1       4.259   6.020  17.421  0.00  0.00    +0.000 A 
ATOM      3  C   UNL     1       4.447   4.698  17.066  0.00  0.00    +0.000 A 
ATOM      4  C   UNL     1       3.461   3.927  17.717  0.00  0.00    +0.000 A 
ATOM      5  C   UNL     1       3.202   2.546  17.775  0.00  0.00    +0.000 A 
ATOM      6  C   UNL     1       2.112   2.082  18.514  0.00  0.00    +0.000 A 
ATOM      7  C   UNL     1       1.286   2.978  19.183  0.00  0.00    +0.000 A 
ATOM      8  C   UNL     1       1.526   4.357  19.142  0.00  0.00    +0.000 A 
ATOM      9  C   UNL     1       2.632   4.819  18.409  0.00  0.00    +0.000 A 
ATOM     10  C   UNL     1       5.579   4.275  16.194  0.00  0.00    +0.000 C 
ATOM     11  C   UNL     1       6.237   5.523  15.563  0.00  0.00    +0.000 C 
ATOM     12  N   UNL     1       6.460   6.646  16.517  0.00  0.00    +0.000 NA
ATOM     13  C   UNL     1       5.143   7.152  16.985  0.00  0.00    +0.000 C 
ENDROOT
BRANCH   1  14
ATOM     14  C   UNL     1       2.563   7.324  18.732  0.00  0.00    +0.000 C 
BRANCH  14  15
ATOM     15  C   UNL     1       1.812   8.191  17.716  0.00  0.00    +0.000 C 
BRANCH  15  16
ATOM     16  C   UNL     1       1.976   9.694  17.975  0.00  0.00    +0.000 C 
BRANCH  16  18
ATOM     17  C   UNL     1       1.275  11.628  19.216  0.00  0.00    +0.000 C 
ATOM     18  N   UNL     1       0.934  10.247  18.859  0.00  0.00    +0.000 NA
ATOM     19  C   UNL     1      -0.401  10.205  18.262  0.00  0.00    +0.000 C 
ENDBRANCH  16  18
ENDBRANCH  15  16
ENDBRANCH  14  15
ENDBRANCH   1  14
BRANCH  12  20
ATOM     20  C   UNL     1       7.305   6.274  17.668  0.00  0.00    +0.000 C 
BRANCH  20  21
ATOM     21  C   UNL     1       7.919   7.471  18.397  0.00  0.00    +0.000 C 
BRANCH  21  22
ATOM     22  C   UNL     1       8.109   8.668  17.466  0.00  0.00    +0.000 C 
BRANCH  22  23
ATOM     23  C   UNL     1       8.632   9.853  18.229  0.00  0.00    +0.000 A 
ATOM     24  C   UNL     1       9.141   9.694  19.519  0.00  0.00    +0.000 A 
ATOM     25  C   UNL     1       9.568  10.820  20.204  0.00  0.00    +0.000 A 
ATOM     26  N   UNL     1       9.519  12.070  19.698  0.00  0.00    +0.000 NA
ATOM     27  C   UNL     1       9.020  12.199  18.451  0.00  0.00    +0.000 A 
ATOM     28  C   UNL     1       8.566  11.135  17.687  0.00  0.00    +0.000 A 
ENDBRANCH  22  23
ENDBRANCH  21  22
ENDBRANCH  20  21
ENDBRANCH  12  20
TORSDOF 8
ENDMDL
MODEL 2
REMARK VINA RESULT:      -7.8      1.096      1.412
REMARK  Name = 
REMARK  10 active torsions:
REMARK  status: ('A' for Active; 'I' for Inactive)
REMARK    1  A    between atoms: C_1  and  N_2
REMARK    2  A    between atoms: N_2  and  C_3
REMARK    3  A    between atoms: N_2  and  C_4
REMARK    4  A    between atoms: C_4  and  C_5
REMARK    5  A    between atoms: C_5  and  C_6
REMARK    6  A    between atoms: C_6  and  N_7
REMARK    7  A    between atoms: N_18  and  C_19
REMARK    8  A    between atoms: C_19  and  C_20
REMARK    9  A    between atoms: C_20  and  C_21
REMARK   10  A    between atoms: C_21  and  C_22
REMARK                            x       y       z     vdW  Elec       q    Type
REMARK                         _______ _______ _______ _____ _____    ______ ____
ROOT
ATOM      1  N   UNL     1       3.290   6.343  18.903  0.00  0.00    +0.000 N 
ATOM      2  C   UNL     1       4.278   6.164  17.969  0.00  0.00    +0.000 A 
ATOM      3  C   UNL     1       4.708   4.854  18.041  0.00  0.00    +0.000 A 
ATOM      4  C   UNL     1       4.030   4.230  19.110  0.00  0.00    +0.000 A 
ATOM      5  C   UNL     1       4.103   2.946  19.679  0.00  0.00    +0.000 A 
ATOM      6  C   UNL     1       3.270   2.619  20.749  0.00  0.00    +0.000 A 
ATOM      7  C   UNL     1       2.368   3.555  21.247  0.00  0.00    +0.000 A 
ATOM      8  C   UNL     1       2.280   4.840  20.699  0.00  0.00    +0.000 A 
ATOM      9  C   UNL     1       3.131   5.170  19.631  0.00  0.00    +0.000 A 
ATOM     10  C   UNL     1       5.765   4.325  17.134  0.00  0.00    +0.000 C 
ATOM     11  C   UNL     1       6.021   5.340  15.996  0.00  0.00    +0.000 C 
ATOM     12  N   UNL     1       6.121   6.755  16.450  0.00  0.00    +0.000 NA
ATOM     13  C   UNL     1       4.807   7.181  17.000  0.00  0.00    +0.000 C 
ENDROOT
BRANCH   1  14
ATOM     14  C   UNL     1       2.542   7.572  19.111  0.00  0.00    +0.000 C 
BRANCH  14  15
ATOM     15  C   UNL     1       1.855   8.136  17.863  0.00  0.00    +0.000 C 
BRANCH  15  16
ATOM     16  C   UNL     1       1.820   9.669  17.841  0.00  0.00    +0.000 C 
BRANCH  16  18
ATOM     17  C   UNL     1       1.249  11.608  19.139  0.00  0.00    +0.000 C 
ATOM     18  N   UNL     1       0.850  10.240  18.793  0.00  0.00    +0.000 NA
ATOM     19  C   UNL     1      -0.520  10.239  18.280  0.00  0.00    +0.000 C 
ENDBRANCH  16  18
ENDBRANCH  15  16
ENDBRANCH  14  15
ENDBRANCH   1  14
BRANCH  12  20
ATOM     20  C   UNL     1       7.189   6.975  17.444  0.00  0.00    +0.000 C 
BRANCH  20  21
ATOM     21  C   UNL     1       7.497   8.451  17.705  0.00  0.00    +0.000 C 
BRANCH  21  22
ATOM     22  C   UNL     1       8.695   8.625  18.638  0.00  0.00    +0.000 C 
BRANCH  22  23
ATOM     23  C   UNL     1       8.986  10.083  18.859  0.00  0.00    +0.000 A 
ATOM     24  C   UNL     1       8.816  11.003  17.822  0.00  0.00    +0.000 A 
ATOM     25  C   UNL     1       9.142  12.328  18.054  0.00  0.00    +0.000 A 
ATOM     26  N   UNL     1       9.620  12.790  19.228  0.00  0.00    +0.000 NA
ATOM     27  C   UNL     1       9.779  11.882  20.214  0.00  0.00    +0.000 A 
ATOM     28  C   UNL     1       9.483  10.535  20.080  0.00  0.00    +0.000 A 
ENDBRANCH  22  23
ENDBRANCH  21  22
ENDBRANCH  20  21
ENDBRANCH  12  20
TORSDOF 8
ENDMDL
MODEL 3
REMARK VINA RESULT:      -7.5      1.684      1.990
REMARK  Name = 
REMARK  10 active torsions:
REMARK  status: ('A' for Active; 'I' for Inactive)
REMARK    1  A    between atoms: C_1  and  N_2
REMARK    2  A    between atoms: N_2  and  C_3
REMARK    3  A    between atoms: N_2  and  C_4
REMARK    4  A    between atoms: C_4  and  C_5
REMARK    5  A    between atoms: C_5  and  C_6
REMARK    6  A    between atoms: C_6  and  N_7
REMARK    7  A    between atoms: N_18  and  C_19
REMARK    8  A    between atoms: C_19  and  C_20
REMARK    9  A    between atoms: C_20  and  C_21
REMARK   10  A    between atoms: C_21  and  C_22
REMARK                            x       y       z     vdW  Elec       q    Type
REMARK                         _______ _______ _______ _____ _____    ______ ____
ROOT
ATOM      1  N   UNL     1       2.832   6.437  18.960  0.00  0.00    +0.000 N 
ATOM      2  C   UNL     1       3.866   6.234  18.083  0.00  0.00    +0.000 A 
ATOM      3  C   UNL     1       4.251   4.910  18.169  0.00  0.00    +0.000 A 
ATOM      4  C   UNL     1       3.493   4.301  19.191  0.00  0.00    +0.000 A 
ATOM      5  C   UNL     1       3.494   3.011  19.753  0.00  0.00    +0.000 A 
ATOM      6  C   UNL     1       2.590   2.704  20.770  0.00  0.00    +0.000 A 
ATOM      7  C   UNL     1       1.691   3.664  21.223  0.00  0.00    +0.000 A 
ATOM      8  C   UNL     1       1.674   4.955  20.682  0.00  0.00    +0.000 A 
ATOM      9  C   UNL     1       2.595   5.265  19.667  0.00  0.00    +0.000 A 
ATOM     10  C   UNL     1       5.342   4.354  17.319  0.00  0.00    +0.000 C 
ATOM     11  C   UNL     1       5.694   5.369  16.207  0.00  0.00    +0.000 C 
ATOM     12  N   UNL     1       5.811   6.777  16.678  0.00  0.00    +0.000 NA
ATOM     13  C   UNL     1       4.482   7.240  17.155  0.00  0.00    +0.000 C 
ENDROOT
BRANCH   1  14
ATOM     14  C   UNL     1       2.111   7.687  19.135  0.00  0.00    +0.000 C 
BRANCH  14  15
ATOM     15  C   UNL     1       1.739   8.027  20.581  0.00  0.00    +0.000 C 
BRANCH  15  16
ATOM     16  C   UNL     1       0.648   9.101  20.682  0.00  0.00    +0.000 C 
BRANCH  16  18
ATOM     17  C   UNL     1       0.352  11.340  21.502  0.00  0.00    +0.000 C 
ATOM     18  N   UNL     1       0.818   9.992  21.845  0.00  0.00    +0.000 NA
ATOM     19  C   UNL     1       0.116   9.514  23.035  0.00  0.00    +0.000 C 
ENDBRANCH  16  18
ENDBRANCH  15  16
ENDBRANCH  14  15
ENDBRANCH   1  14
BRANCH  12  20
ATOM     20  C   UNL     1       6.826   6.957  17.734  0.00  0.00    +0.000 C 
BRANCH  20  21
ATOM     21  C   UNL     1       7.808   8.098  17.461  0.00  0.00    +0.000 C 
BRANCH  21  22
ATOM     22  C   UNL     1       8.662   8.419  18.687  0.00  0.00    +0.000 C 
BRANCH  22  23
ATOM     23  C   UNL     1       8.887   9.900  18.802  0.00  0.00    +0.000 A 
ATOM     24  C   UNL     1       8.575  10.748  17.736  0.00  0.00    +0.000 A 
ATOM     25  C   UNL     1       8.844  12.100  17.867  0.00  0.00    +0.000 A 
ATOM     26  N   UNL     1       9.394  12.654  18.968  0.00  0.00    +0.000 NA
ATOM     27  C   UNL     1       9.690  11.815  19.983  0.00  0.00    +0.000 A 
ATOM     28  C   UNL     1       9.461  10.448  19.947  0.00  0.00    +0.000 A 
ENDBRANCH  22  23
ENDBRANCH  21  22
ENDBRANCH  20  21
ENDBRANCH  12  20
TORSDOF 8
ENDMDL
MODEL 4
REMARK VINA RESULT:      -7.4      1.098      1.205
REMARK  Name = 
REMARK  10 active torsions:
REMARK  status: ('A' for Active; 'I' for Inactive)
REMARK    1  A    between atoms: C_1  and  N_2
REMARK    2  A    between atoms: N_2  and  C_3
REMARK    3  A    between atoms: N_2  and  C_4
REMARK    4  A    between atoms: C_4  and  C_5
REMARK    5  A    between atoms: C_5  and  C_6
REMARK    6  A    between atoms: C_6  and  N_7
REMARK    7  A    between atoms: N_18  and  C_19
REMARK    8  A    between atoms: C_19  and  C_20
REMARK    9  A    between atoms: C_20  and  C_21
REMARK   10  A    between atoms: C_21  and  C_22
REMARK                            x       y       z     vdW  Elec       q    Type
REMARK                         _______ _______ _______ _____ _____    ______ ____
ROOT
ATOM      1  N   UNL     1       2.922   6.304  18.122  0.00  0.00    +0.000 N 
ATOM      2  C   UNL     1       4.174   6.098  17.604  0.00  0.00    +0.000 A 
ATOM      3  C   UNL     1       4.653   4.900  18.096  0.00  0.00    +0.000 A 
ATOM      4  C   UNL     1       3.706   4.396  19.013  0.00  0.00    +0.000 A 
ATOM      5  C   UNL     1       3.683   3.264  19.848  0.00  0.00    +0.000 A 
ATOM      6  C   UNL     1       2.568   3.026  20.652  0.00  0.00    +0.000 A 
ATOM      7  C   UNL     1       1.485   3.899  20.625  0.00  0.00    +0.000 A 
ATOM      8  C   UNL     1       1.487   5.034  19.805  0.00  0.00    +0.000 A 
ATOM      9  C   UNL     1       2.618   5.277  19.007  0.00  0.00    +0.000 A 
ATOM     10  C   UNL     1       5.988   4.368  17.702  0.00  0.00    +0.000 C 
ATOM     11  C   UNL     1       6.530   5.180  16.503  0.00  0.00    +0.000 C 
ATOM     12  N   UNL     1       6.367   6.654  16.638  0.00  0.00    +0.000 NA
ATOM     13  C   UNL     1       4.918   6.982  16.646  0.00  0.00    +0.000 C 
ENDROOT
BRANCH   1  14
ATOM     14  C   UNL     1       2.057   7.430  17.809  0.00  0.00    +0.000 C 
BRANCH  14  15
ATOM     15  C   UNL     1       2.309   8.695  18.635  0.00  0.00    +0.000 C 
BRANCH  15  16
ATOM     16  C   UNL     1       1.215   8.959  19.677  0.00  0.00    +0.000 C 
BRANCH  16  18
ATOM     17  C   UNL     1       1.447  11.159  18.742  0.00  0.00    +0.000 C 
ATOM     18  N   UNL     1       0.574  10.277  19.522  0.00  0.00    +0.000 NA
ATOM     19  C   UNL     1      -0.743  10.200  18.891  0.00  0.00    +0.000 C 
ENDBRANCH  16  18
ENDBRANCH  15  16
ENDBRANCH  14  15
ENDBRANCH   1  14
BRANCH  12  20
ATOM     20  C   UNL     1       7.024   7.207  17.838  0.00  0.00    +0.000 C 
BRANCH  20  21
ATOM     21  C   UNL     1       7.834   8.477  17.572  0.00  0.00    +0.000 C 
BRANCH  21  22
ATOM     22  C   UNL     1       8.811   8.777  18.708  0.00  0.00    +0.000 C 
BRANCH  22  23
ATOM     23  C   UNL     1       9.011  10.260  18.855  0.00  0.00    +0.000 A 
ATOM     24  C   UNL     1       9.400  10.803  20.081  0.00  0.00    +0.000 A 
ATOM     25  C   UNL     1       9.525  12.178  20.185  0.00  0.00    +0.000 A 
ATOM     26  N   UNL     1       9.292  13.033  19.167  0.00  0.00    +0.000 NA
ATOM     27  C   UNL     1       8.915  12.485  17.993  0.00  0.00    +0.000 A 
ATOM     28  C   UNL     1       8.759  11.123  17.790  0.00  0.00    +0.000 A 
ENDBRANCH  22  23
ENDBRANCH  21  22
ENDBRANCH  20  21
ENDBRANCH  12  20
TORSDOF 8
ENDMDL
MODEL 5
REMARK VINA RESULT:      -7.4      3.021      4.972
REMARK  Name = 
REMARK  10 active torsions:
REMARK  status: ('A' for Active; 'I' for Inactive)
REMARK    1  A    between atoms: C_1  and  N_2
REMARK    2  A    between atoms: N_2  and  C_3
REMARK    3  A    between atoms: N_2  and  C_4
REMARK    4  A    between atoms: C_4  and  C_5
REMARK    5  A    between atoms: C_5  and  C_6
REMARK    6  A    between atoms: C_6  and  N_7
REMARK    7  A    between atoms: N_18  and  C_19
REMARK    8  A    between atoms: C_19  and  C_20
REMARK    9  A    between atoms: C_20  and  C_21
REMARK   10  A    between atoms: C_21  and  C_22
REMARK                            x       y       z     vdW  Elec       q    Type
REMARK                         _______ _______ _______ _____ _____    ______ ____
ROOT
ATOM      1  N   UNL     1       5.047   3.987  16.607  0.00  0.00    +0.000 N 
ATOM      2  C   UNL     1       6.035   4.554  17.368  0.00  0.00    +0.000 A 
ATOM      3  C   UNL     1       5.499   4.881  18.598  0.00  0.00    +0.000 A 
ATOM      4  C   UNL     1       4.119   4.589  18.564  0.00  0.00    +0.000 A 
ATOM      5  C   UNL     1       3.074   4.766  19.489  0.00  0.00    +0.000 A 
ATOM      6  C   UNL     1       1.784   4.353  19.155  0.00  0.00    +0.000 A 
ATOM      7  C   UNL     1       1.533   3.766  17.919  0.00  0.00    +0.000 A 
ATOM      8  C   UNL     1       2.556   3.583  16.982  0.00  0.00    +0.000 A 
ATOM      9  C   UNL     1       3.851   4.013  17.316  0.00  0.00    +0.000 A 
ATOM     10  C   UNL     1       6.326   5.496  19.675  0.00  0.00    +0.000 C 
ATOM     11  C   UNL     1       7.821   5.399  19.293  0.00  0.00    +0.000 C 
ATOM     12  N   UNL     1       8.116   5.763  17.879  0.00  0.00    +0.000 NA
ATOM     13  C   UNL     1       7.468   4.773  16.980  0.00  0.00    +0.000 C 
ENDROOT
BRANCH   1  14
ATOM     14  C   UNL     1       5.217   3.459  15.263  0.00  0.00    +0.000 C 
BRANCH  14  15
ATOM     15  C   UNL     1       5.552   4.501  14.191  0.00  0.00    +0.000 C 
BRANCH  15  16
ATOM     16  C   UNL     1       6.344   3.917  13.015  0.00  0.00    +0.000 C 
BRANCH  16  18
ATOM     17  C   UNL     1       4.495   3.384  11.577  0.00  0.00    +0.000 C 
ATOM     18  N   UNL     1       5.632   2.830  12.320  0.00  0.00    +0.000 NA
ATOM     19  C   UNL     1       6.493   2.072  11.413  0.00  0.00    +0.000 C 
ENDBRANCH  16  18
ENDBRANCH  15  16
ENDBRANCH  14  15
ENDBRANCH   1  14
BRANCH  12  20
ATOM     20  C   UNL     1       7.690   7.131  17.527  0.00  0.00    +0.000 C 
BRANCH  20  21
ATOM     21  C   UNL     1       8.269   8.214  18.440  0.00  0.00    +0.000 C 
BRANCH  21  22
ATOM     22  C   UNL     1       8.287   9.582  17.758  0.00  0.00    +0.000 C 
BRANCH  22  23
ATOM     23  C   UNL     1       9.232  10.512  18.465  0.00  0.00    +0.000 A 
ATOM     24  C   UNL     1      10.179  11.242  17.743  0.00  0.00    +0.000 A 
ATOM     25  C   UNL     1      11.062  12.051  18.440  0.00  0.00    +0.000 A 
ATOM     26  N   UNL     1      11.066  12.176  19.783  0.00  0.00    +0.000 NA
ATOM     27  C   UNL     1      10.144  11.458  20.460  0.00  0.00    +0.000 A 
ATOM     28  C   UNL     1       9.220  10.621  19.855  0.00  0.00    +0.000 A 
ENDBRANCH  22  23
ENDBRANCH  21  22
ENDBRANCH  20  21
ENDBRANCH  12  20
TORSDOF 8
ENDMDL
MODEL 6
REMARK VINA RESULT:      -7.3      0.813      1.276
REMARK  Name = 
REMARK  10 active torsions:
REMARK  status: ('A' for Active; 'I' for Inactive)
REMARK    1  A    between atoms: C_1  and  N_2
REMARK    2  A    between atoms: N_2  and  C_3
REMARK    3  A    between atoms: N_2  and  C_4
REMARK    4  A    between atoms: C_4  and  C_5
REMARK    5  A    between atoms: C_5  and  C_6
REMARK    6  A    between atoms: C_6  and  N_7
REMARK    7  A    between atoms: N_18  and  C_19
REMARK    8  A    between atoms: C_19  and  C_20
REMARK    9  A    between atoms: C_20  and  C_21
REMARK   10  A    between atoms: C_21  and  C_22
REMARK                            x       y       z     vdW  Elec       q    Type
REMARK                         _______ _______ _______ _____ _____    ______ ____
ROOT
ATOM      1  N   UNL     1       2.713   6.105  18.836  0.00  0.00    +0.000 N 
ATOM      2  C   UNL     1       3.690   6.093  17.875  0.00  0.00    +0.000 A 
ATOM      3  C   UNL     1       3.753   4.821  17.340  0.00  0.00    +0.000 A 
ATOM      4  C   UNL     1       2.852   4.003  18.054  0.00  0.00    +0.000 A 
ATOM      5  C   UNL     1       2.540   2.632  17.993  0.00  0.00    +0.000 A 
ATOM      6  C   UNL     1       1.567   2.110  18.845  0.00  0.00    +0.000 A 
ATOM      7  C   UNL     1       0.907   2.939  19.746  0.00  0.00    +0.000 A 
ATOM      8  C   UNL     1       1.203   4.305  19.828  0.00  0.00    +0.000 A 
ATOM      9  C   UNL     1       2.193   4.824  18.977  0.00  0.00    +0.000 A 
ATOM     10  C   UNL     1       4.703   4.478  16.245  0.00  0.00    +0.000 C 
ATOM     11  C   UNL     1       5.306   5.777  15.663  0.00  0.00    +0.000 C 
ATOM     12  N   UNL     1       5.738   6.766  16.690  0.00  0.00    +0.000 NA
ATOM     13  C   UNL     1       4.543   7.245  17.432  0.00  0.00    +0.000 C 
ENDROOT
BRANCH   1  14
ATOM     14  C   UNL     1       2.299   7.271  19.601  0.00  0.00    +0.000 C 
BRANCH  14  15
ATOM     15  C   UNL     1       1.745   8.432  18.769  0.00  0.00    +0.000 C 
BRANCH  15  16
ATOM     16  C   UNL     1       0.888   9.402  19.592  0.00  0.00    +0.000 C 
BRANCH  16  18
ATOM     17  C   UNL     1       0.160  11.667  19.923  0.00  0.00    +0.000 C 
ATOM     18  N   UNL     1       0.747  10.728  18.963  0.00  0.00    +0.000 NA
ATOM     19  C   UNL     1       2.015  11.259  18.463  0.00  0.00    +0.000 C 
ENDBRANCH  16  18
ENDBRANCH  15  16
ENDBRANCH  14  15
ENDBRANCH   1  14
BRANCH  12  20
ATOM     20  C   UNL     1       6.744   6.231  17.629  0.00  0.00    +0.000 C 
BRANCH  20  21
ATOM     21  C   UNL     1       7.570   7.310  18.331  0.00  0.00    +0.000 C 
BRANCH  21  22
ATOM     22  C   UNL     1       8.020   8.403  17.362  0.00  0.00    +0.000 C 
BRANCH  22  23
ATOM     23  C   UNL     1       8.500   9.612  18.115  0.00  0.00    +0.000 A 
ATOM     24  C   UNL     1       8.453  10.876  17.525  0.00  0.00    +0.000 A 
ATOM     25  C   UNL     1       8.951  11.956  18.236  0.00  0.00    +0.000 A 
ATOM     26  N   UNL     1       9.484  11.861  19.472  0.00  0.00    +0.000 NA
ATOM     27  C   UNL     1       9.521  10.628  20.020  0.00  0.00    +0.000 A 
ATOM     28  C   UNL     1       9.051   9.486  19.389  0.00  0.00    +0.000 A 
ENDBRANCH  22  23
ENDBRANCH  21  22
ENDBRANCH  20  21
ENDBRANCH  12  20
TORSDOF 8
ENDMDL
MODEL 7
REMARK VINA RESULT:      -7.2      1.223      1.338
REMARK  Name = 
REMARK  10 active torsions:
REMARK  status: ('A' for Active; 'I' for Inactive)
REMARK    1  A    between atoms: C_1  and  N_2
REMARK    2  A    between atoms: N_2  and  C_3
REMARK    3  A    between atoms: N_2  and  C_4
REMARK    4  A    between atoms: C_4  and  C_5
REMARK    5  A    between atoms: C_5  and  C_6
REMARK    6  A    between atoms: C_6  and  N_7
REMARK    7  A    between atoms: N_18  and  C_19
REMARK    8  A    between atoms: C_19  and  C_20
REMARK    9  A    between atoms: C_20  and  C_21
REMARK   10  A    between atoms: C_21  and  C_22
REMARK                            x       y       z     vdW  Elec       q    Type
REMARK                         _______ _______ _______ _____ _____    ______ ____
ROOT
ATOM      1  N   UNL     1       3.207   6.167  17.923  0.00  0.00    +0.000 N 
ATOM      2  C   UNL     1       4.504   5.974  17.523  0.00  0.00    +0.000 A 
ATOM      3  C   UNL     1       4.942   4.772  18.044  0.00  0.00    +0.000 A 
ATOM      4  C   UNL     1       3.917   4.252  18.862  0.00  0.00    +0.000 A 
ATOM      5  C   UNL     1       3.822   3.110  19.678  0.00  0.00    +0.000 A 
ATOM      6  C   UNL     1       2.638   2.856  20.371  0.00  0.00    +0.000 A 
ATOM      7  C   UNL     1       1.557   3.723  20.251  0.00  0.00    +0.000 A 
ATOM      8  C   UNL     1       1.629   4.868  19.449  0.00  0.00    +0.000 A 
ATOM      9  C   UNL     1       2.828   5.127  18.764  0.00  0.00    +0.000 A 
ATOM     10  C   UNL     1       6.312   4.253  17.772  0.00  0.00    +0.000 C 
ATOM     11  C   UNL     1       6.960   5.082  16.639  0.00  0.00    +0.000 C 
ATOM     12  N   UNL     1       6.775   6.553  16.774  0.00  0.00    +0.000 NA
ATOM     13  C   UNL     1       5.329   6.873  16.649  0.00  0.00    +0.000 C 
ENDROOT
BRANCH   1  14
ATOM     14  C   UNL     1       2.368   7.291  17.543  0.00  0.00    +0.000 C 
BRANCH  14  15
ATOM     15  C   UNL     1       2.494   8.530  18.436  0.00  0.00    +0.000 C 
BRANCH  15  16
ATOM     16  C   UNL     1       1.159   9.254  18.648  0.00  0.00    +0.000 C 
BRANCH  16  18
ATOM     17  C   UNL     1      -0.423  10.198  20.189  0.00  0.00    +0.000 C 
ATOM     18  N   UNL     1       0.928   9.643  20.050  0.00  0.00    +0.000 NA
ATOM     19  C   UNL     1       1.106   8.535  20.987  0.00  0.00    +0.000 C 
ENDBRANCH  16  18
ENDBRANCH  15  16
ENDBRANCH  14  15
ENDBRANCH   1  14
BRANCH  12  20
ATOM     20  C   UNL     1       7.312   7.095  18.038  0.00  0.00    +0.000 C 
BRANCH  20  21
ATOM     21  C   UNL     1       8.390   8.164  17.845  0.00  0.00    +0.000 C 
BRANCH  21  22
ATOM     22  C   UNL     1       7.784   9.559  17.690  0.00  0.00    +0.000 C 
BRANCH  22  23
ATOM     23  C   UNL     1       8.692  10.598  18.285  0.00  0.00    +0.000 A 
ATOM     24  C   UNL     1       9.436  10.313  19.432  0.00  0.00    +0.000 A 
ATOM     25  C   UNL     1      10.222  11.316  19.976  0.00  0.00    +0.000 A 
ATOM     26  N   UNL     1      10.313  12.560  19.463  0.00  0.00    +0.000 NA
ATOM     27  C   UNL     1       9.583  12.813  18.357  0.00  0.00    +0.000 A 
ATOM     28  C   UNL     1       8.765  11.878  17.740  0.00  0.00    +0.000 A 
ENDBRANCH  22  23
ENDBRANCH  21  22
ENDBRANCH  20  21
ENDBRANCH  12  20
TORSDOF 8
ENDMDL
MODEL 8
REMARK VINA RESULT:      -7.1      2.318      7.502
REMARK  Name = 
REMARK  10 active torsions:
REMARK  status: ('A' for Active; 'I' for Inactive)
REMARK    1  A    between atoms: C_1  and  N_2
REMARK    2  A    between atoms: N_2  and  C_3
REMARK    3  A    between atoms: N_2  and  C_4
REMARK    4  A    between atoms: C_4  and  C_5
REMARK    5  A    between atoms: C_5  and  C_6
REMARK    6  A    between atoms: C_6  and  N_7
REMARK    7  A    between atoms: N_18  and  C_19
REMARK    8  A    between atoms: C_19  and  C_20
REMARK    9  A    between atoms: C_20  and  C_21
REMARK   10  A    between atoms: C_21  and  C_22
REMARK                            x       y       z     vdW  Elec       q    Type
REMARK                         _______ _______ _______ _____ _____    ______ ____
ROOT
ATOM      1  N   UNL     1       3.368   5.111  17.674  0.00  0.00    +0.000 N 
ATOM      2  C   UNL     1       2.952   6.259  18.295  0.00  0.00    +0.000 A 
ATOM      3  C   UNL     1       2.108   5.909  19.331  0.00  0.00    +0.000 A 
ATOM      4  C   UNL     1       1.928   4.510  19.292  0.00  0.00    +0.000 A 
ATOM      5  C   UNL     1       1.145   3.619  20.048  0.00  0.00    +0.000 A 
ATOM      6  C   UNL     1       1.194   2.253  19.768  0.00  0.00    +0.000 A 
ATOM      7  C   UNL     1       2.015   1.775  18.751  0.00  0.00    +0.000 A 
ATOM      8  C   UNL     1       2.800   2.643  17.983  0.00  0.00    +0.000 A 
ATOM      9  C   UNL     1       2.736   4.019  18.260  0.00  0.00    +0.000 A 
ATOM     10  C   UNL     1       1.499   6.933  20.226  0.00  0.00    +0.000 C 
ATOM     11  C   UNL     1       2.192   8.296  19.994  0.00  0.00    +0.000 C 
ATOM     12  N   UNL     1       2.395   8.641  18.559  0.00  0.00    +0.000 NA
ATOM     13  C   UNL     1       3.343   7.668  17.957  0.00  0.00    +0.000 C 
ENDROOT
BRANCH   1  14
ATOM     14  C   UNL     1       4.306   5.046  16.566  0.00  0.00    +0.000 C 
BRANCH  14  15
ATOM     15  C   UNL     1       5.728   4.614  16.939  0.00  0.00    +0.000 C 
BRANCH  15  16
ATOM     16  C   UNL     1       6.770   5.713  16.699  0.00  0.00    +0.000 C 
BRANCH  16  18
ATOM     17  C   UNL     1       7.802   7.488  17.946  0.00  0.00    +0.000 C 
ATOM     18  N   UNL     1       7.551   6.044  17.905  0.00  0.00    +0.000 NA
ATOM     19  C   UNL     1       6.897   5.621  19.142  0.00  0.00    +0.000 C 
ENDBRANCH  16  18
ENDBRANCH  15  16
ENDBRANCH  14  15
ENDBRANCH   1  14
BRANCH  12  20
ATOM     20  C   UNL     1       1.140   8.681  17.784  0.00  0.00    +0.000 C 
BRANCH  20  21
ATOM     21  C   UNL     1       0.387  10.009  17.892  0.00  0.00    +0.000 C 
BRANCH  21  22
ATOM     22  C   UNL     1      -0.954   9.846  18.606  0.00  0.00    +0.000 C 
BRANCH  22  23
ATOM     23  C   UNL     1      -2.079  10.324  17.732  0.00  0.00    +0.000 A 
ATOM     24  C   UNL     1      -3.081  11.144  18.255  0.00  0.00    +0.000 A 
ATOM     25  C   UNL     1      -4.125  11.522  17.427  0.00  0.00    +0.000 A 
ATOM     26  N   UNL     1      -4.236  11.143  16.137  0.00  0.00    +0.000 NA
ATOM     27  C   UNL     1      -3.258  10.348  15.654  0.00  0.00    +0.000 A 
ATOM     28  C   UNL     1      -2.174   9.915  16.403  0.00  0.00    +0.000 A 
ENDBRANCH  22  23
ENDBRANCH  21  22
ENDBRANCH  20  21
ENDBRANCH  12  20
TORSDOF 8
ENDMDL
MODEL 9
REMARK VINA RESULT:      -7.0      1.800      6.175
REMARK  Name = 
REMARK  10 active torsions:
REMARK  status: ('A' for Active; 'I' for Inactive)
REMARK    1  A    between atoms: C_1  and  N_2
REMARK    2  A    between atoms: N_2  and  C_3
REMARK    3  A    between atoms: N_2  and  C_4
REMARK    4  A    between atoms: C_4  and  C_5
REMARK    5  A    between atoms: C_5  and  C_6
REMARK    6  A    between atoms: C_6  and  N_7
REMARK    7  A    between atoms: N_18  and  C_19
REMARK    8  A    between atoms: C_19  and  C_20
REMARK    9  A    between atoms: C_20  and  C_21
REMARK   10  A    between atoms: C_21  and  C_22
REMARK                            x       y       z     vdW  Elec       q    Type
REMARK                         _______ _______ _______ _____ _____    ______ ____
ROOT
ATOM      1  N   UNL     1       6.028   4.297  17.905  0.00  0.00    +0.000 N 
ATOM      2  C   UNL     1       4.785   3.799  18.196  0.00  0.00    +0.000 A 
ATOM      3  C   UNL     1       4.166   3.462  17.008  0.00  0.00    +0.000 A 
ATOM      4  C   UNL     1       5.016   3.846  15.950  0.00  0.00    +0.000 A 
ATOM      5  C   UNL     1       4.889   3.807  14.549  0.00  0.00    +0.000 A 
ATOM      6  C   UNL     1       5.939   4.261  13.750  0.00  0.00    +0.000 A 
ATOM      7  C   UNL     1       7.105   4.745  14.334  0.00  0.00    +0.000 A 
ATOM      8  C   UNL     1       7.253   4.798  15.725  0.00  0.00    +0.000 A 
ATOM      9  C   UNL     1       6.188   4.353  16.526  0.00  0.00    +0.000 A 
ATOM     10  C   UNL     1       2.802   2.864  16.977  0.00  0.00    +0.000 C 
ATOM     11  C   UNL     1       2.396   2.436  18.407  0.00  0.00    +0.000 C 
ATOM     12  N   UNL     1       2.703   3.445  19.458  0.00  0.00    +0.000 NA
ATOM     13  C   UNL     1       4.176   3.610  19.555  0.00  0.00    +0.000 C 
ENDROOT
BRANCH   1  14
ATOM     14  C   UNL     1       7.016   4.718  18.885  0.00  0.00    +0.000 C 
BRANCH  14  15
ATOM     15  C   UNL     1       7.022   6.217  19.202  0.00  0.00    +0.000 C 
BRANCH  15  16
ATOM     16  C   UNL     1       8.207   6.958  18.569  0.00  0.00    +0.000 C 
BRANCH  16  18
ATOM     17  C   UNL     1       6.348   7.854  17.339  0.00  0.00    +0.000 C 
ATOM     18  N   UNL     1       7.798   7.932  17.541  0.00  0.00    +0.000 NA
ATOM     19  C   UNL     1       8.178   9.305  17.875  0.00  0.00    +0.000 C 
ENDBRANCH  16  18
ENDBRANCH  15  16
ENDBRANCH  14  15
ENDBRANCH   1  14
BRANCH  12  20
ATOM     20  C   UNL     1       2.055   4.750  19.222  0.00  0.00    +0.000 C 
BRANCH  20  21
ATOM     21  C   UNL     1       2.951   5.951  19.532  0.00  0.00    +0.000 C 
BRANCH  21  22
ATOM     22  C   UNL     1       2.907   6.995  18.418  0.00  0.00    +0.000 C 
BRANCH  22  23
ATOM     23  C   UNL     1       2.089   8.183  18.838  0.00  0.00    +0.000 A 
ATOM     24  C   UNL     1       1.854   9.232  17.946  0.00  0.00    +0.000 A 
ATOM     25  C   UNL     1       1.136  10.329  18.390  0.00  0.00    +0.000 A 
ATOM     26  N   UNL     1       0.646  10.451  19.642  0.00  0.00    +0.000 NA
ATOM     27  C   UNL     1       0.889   9.426  20.487  0.00  0.00    +0.000 A 
ATOM     28  C   UNL     1       1.598   8.288  20.139  0.00  0.00    +0.000 A 
ENDBRANCH  22  23
ENDBRANCH  21  22
ENDBRANCH  20  21
ENDBRANCH  12  20
TORSDOF 8
ENDMDL
