MODEL 1
REMARK VINA RESULT:      -7.0      0.000      0.000
REMARK  Name = 
REMARK  1 active torsions:
REMARK  status: ('A' for Active; 'I' for Inactive)
REMARK    1  A    between atoms: N_3  and  C_4
REMARK                            x       y       z     vdW  Elec       q    Type
REMARK                         _______ _______ _______ _____ _____    ______ ____
ROOT
ATOM      1  O   UNL     1       4.418   6.014  17.997  0.00  0.00    +0.000 OA
ATOM      2  C   UNL     1       4.611   4.966  17.401  0.00  0.00    +0.000 C 
ATOM      3  N   UNL     1       4.147   3.696  17.675  0.00  0.00    +0.000 N 
ATOM      4  N   UNL     1       5.539   4.954  16.360  0.00  0.00    +0.000 N 
ATOM      5  C   UNL     1       5.489   4.284  15.153  0.00  0.00    +0.000 A 
ATOM      6  C   UNL     1       6.638   4.643  14.485  0.00  0.00    +0.000 A 
ATOM      7  N   UNL     1       7.414   5.466  15.254  0.00  0.00    +0.000 NA
ATOM      8  C   UNL     1       6.718   5.662  16.352  0.00  0.00    +0.000 A 
ATOM      9  H   UNL     1       4.676   2.914  17.304  0.00  0.00    +0.000 HD
ENDROOT
BRANCH   3  10
ATOM     10  C   UNL     1       3.264   3.407  18.740  0.00  0.00    +0.000 A 
ATOM     11  C   UNL     1       1.885   3.637  18.646  0.00  0.00    +0.000 A 
ATOM     12  C   UNL     1       1.045   3.358  19.728  0.00  0.00    +0.000 A 
ATOM     13  C   UNL     1       1.588   2.854  20.904  0.00  0.00    +0.000 A 
ATOM     14  F   UNL     1       0.787   2.602  21.947  0.00  0.00    +0.000 F 
ATOM     15  C   UNL     1       2.952   2.612  21.010  0.00  0.00    +0.000 A 
ATOM     16  C   UNL     1       3.791   2.873  19.921  0.00  0.00    +0.000 A 
ENDBRANCH   3  10
TORSDOF 1
ENDMDL
MODEL 2
REMARK VINA RESULT:      -7.0      0.226      1.268
REMARK  Name = 
REMARK  1 active torsions:
REMARK  status: ('A' for Active; 'I' for Inactive)
REMARK    1  A    between atoms: N_3  and  C_4
REMARK                            x       y       z     vdW  Elec       q    Type
REMARK                         _______ _______ _______ _____ _____    ______ ____
ROOT
ATOM      1  O   UNL     1       4.880   5.883  18.306  0.00  0.00    +0.000 OA
ATOM      2  C   UNL     1       4.841   4.906  17.574  0.00  0.00    +0.000 C 
ATOM      3  N   UNL     1       4.182   3.706  17.738  0.00  0.00    +0.000 N 
ATOM      4  N   UNL     1       5.675   4.880  16.457  0.00  0.00    +0.000 N 
ATOM      5  C   UNL     1       5.420   4.394  15.188  0.00  0.00    +0.000 A 
ATOM      6  C   UNL     1       6.563   4.644  14.463  0.00  0.00    +0.000 A 
ATOM      7  N   UNL     1       7.526   5.216  15.248  0.00  0.00    +0.000 NA
ATOM      8  C   UNL     1       6.956   5.377  16.422  0.00  0.00    +0.000 A 
ATOM      9  H   UNL     1       4.536   2.903  17.228  0.00  0.00    +0.000 HD
ENDROOT
BRANCH   3  10
ATOM     10  C   UNL     1       3.340   3.427  18.839  0.00  0.00    +0.000 A 
ATOM     11  C   UNL     1       3.831   2.878  20.031  0.00  0.00    +0.000 A 
ATOM     12  C   UNL     1       2.965   2.597  21.091  0.00  0.00    +0.000 A 
ATOM     13  C   UNL     1       1.607   2.860  20.953  0.00  0.00    +0.000 A 
ATOM     14  F   UNL     1       0.774   2.575  21.962  0.00  0.00    +0.000 F 
ATOM     15  C   UNL     1       1.105   3.412  19.782  0.00  0.00    +0.000 A 
ATOM     16  C   UNL     1       1.975   3.712  18.727  0.00  0.00    +0.000 A 
ENDBRANCH   3  10
TORSDOF 1
ENDMDL
MODEL 3
REMARK VINA RESULT:      -6.3      3.249      6.313
REMARK  Name = 
REMARK  1 active torsions:
REMARK  status: ('A' for Active; 'I' for Inactive)
REMARK    1  A    between atoms: N_3  and  C_4
REMARK                            x       y       z     vdW  Elec       q    Type
REMARK                         _______ _______ _______ _____ _____    ______ ____
ROOT
ATOM      1  O   UNL     1       3.757   5.805  19.012  0.00  0.00    +0.000 OA
ATOM      2  C   UNL     1       3.797   4.586  19.068  0.00  0.00    +0.000 C 
ATOM      3  N   UNL     1       4.467   3.687  18.264  0.00  0.00    +0.000 N 
ATOM      4  N   UNL     1       2.956   3.934  19.968  0.00  0.00    +0.000 N 
ATOM      5  C   UNL     1       3.205   2.819  20.746  0.00  0.00    +0.000 A 
ATOM      6  C   UNL     1       2.055   2.614  21.475  0.00  0.00    +0.000 A 
ATOM      7  N   UNL     1       1.094   3.527  21.138  0.00  0.00    +0.000 NA
ATOM      8  C   UNL     1       1.671   4.322  20.264  0.00  0.00    +0.000 A 
ATOM      9  H   UNL     1       4.115   2.736  18.231  0.00  0.00    +0.000 HD
ENDROOT
BRANCH   3  10
ATOM     10  C   UNL     1       5.318   4.078  17.205  0.00  0.00    +0.000 A 
ATOM     11  C   UNL     1       6.649   4.458  17.423  0.00  0.00    +0.000 A 
ATOM     12  C   UNL     1       7.455   4.859  16.353  0.00  0.00    +0.000 A 
ATOM     13  C   UNL     1       6.925   4.884  15.069  0.00  0.00    +0.000 A 
ATOM     14  F   UNL     1       7.691   5.284  14.046  0.00  0.00    +0.000 F 
ATOM     15  C   UNL     1       5.610   4.503  14.835  0.00  0.00    +0.000 A 
ATOM     16  C   UNL     1       4.808   4.082  15.902  0.00  0.00    +0.000 A 
ENDBRANCH   3  10
TORSDOF 1
ENDMDL
MODEL 4
REMARK VINA RESULT:      -6.3      3.234      6.212
REMARK  Name = 
REMARK  1 active torsions:
REMARK  status: ('A' for Active; 'I' for Inactive)
REMARK    1  A    between atoms: N_3  and  C_4
REMARK                            x       y       z     vdW  Elec       q    Type
REMARK                         _______ _______ _______ _____ _____    ______ ____
ROOT
ATOM      1  O   UNL     1       3.433   5.753  18.787  0.00  0.00    +0.000 OA
ATOM      2  C   UNL     1       3.618   4.556  18.938  0.00  0.00    +0.000 C 
ATOM      3  N   UNL     1       4.407   3.686  18.212  0.00  0.00    +0.000 N 
ATOM      4  N   UNL     1       2.843   3.876  19.876  0.00  0.00    +0.000 N 
ATOM      5  C   UNL     1       3.209   2.862  20.741  0.00  0.00    +0.000 A 
ATOM      6  C   UNL     1       2.077   2.576  21.471  0.00  0.00    +0.000 A 
ATOM      7  N   UNL     1       1.021   3.338  21.055  0.00  0.00    +0.000 NA
ATOM      8  C   UNL     1       1.515   4.128  20.128  0.00  0.00    +0.000 A 
ATOM      9  H   UNL     1       4.171   2.700  18.249  0.00  0.00    +0.000 HD
ENDROOT
BRANCH   3  10
ATOM     10  C   UNL     1       5.226   4.096  17.136  0.00  0.00    +0.000 A 
ATOM     11  C   UNL     1       4.778   4.071  15.809  0.00  0.00    +0.000 A 
ATOM     12  C   UNL     1       5.624   4.464  14.768  0.00  0.00    +0.000 A 
ATOM     13  C   UNL     1       6.919   4.876  15.058  0.00  0.00    +0.000 A 
ATOM     14  F   UNL     1       7.737   5.238  14.060  0.00  0.00    +0.000 F 
ATOM     15  C   UNL     1       7.376   4.915  16.369  0.00  0.00    +0.000 A 
ATOM     16  C   UNL     1       6.524   4.540  17.414  0.00  0.00    +0.000 A 
ENDBRANCH   3  10
TORSDOF 1
ENDMDL
MODEL 5
REMARK VINA RESULT:      -6.3      3.624      6.461
REMARK  Name = 
REMARK  1 active torsions:
REMARK  status: ('A' for Active; 'I' for Inactive)
REMARK    1  A    between atoms: N_3  and  C_4
REMARK                            x       y       z     vdW  Elec       q    Type
REMARK                         _______ _______ _______ _____ _____    ______ ____
ROOT
ATOM      1  O   UNL     1       5.040   2.824  19.621  0.00  0.00    +0.000 OA
ATOM      2  C   UNL     1       4.135   3.641  19.693  0.00  0.00    +0.000 C 
ATOM      3  N   UNL     1       4.114   4.971  19.326  0.00  0.00    +0.000 N 
ATOM      4  N   UNL     1       2.967   3.280  20.363  0.00  0.00    +0.000 N 
ATOM      5  C   UNL     1       1.654   3.583  20.054  0.00  0.00    +0.000 A 
ATOM      6  C   UNL     1       0.896   2.955  21.016  0.00  0.00    +0.000 A 
ATOM      7  N   UNL     1       1.692   2.323  21.931  0.00  0.00    +0.000 NA
ATOM      8  C   UNL     1       2.920   2.503  21.497  0.00  0.00    +0.000 A 
ATOM      9  H   UNL     1       3.426   5.568  19.772  0.00  0.00    +0.000 HD
ENDROOT
BRANCH   3  10
ATOM     10  C   UNL     1       5.207   5.622  18.711  0.00  0.00    +0.000 A 
ATOM     11  C   UNL     1       6.507   5.547  19.229  0.00  0.00    +0.000 A 
ATOM     12  C   UNL     1       7.559   6.222  18.605  0.00  0.00    +0.000 A 
ATOM     13  C   UNL     1       7.307   6.977  17.465  0.00  0.00    +0.000 A 
ATOM     14  F   UNL     1       8.311   7.638  16.875  0.00  0.00    +0.000 F 
ATOM     15  C   UNL     1       6.026   7.055  16.933  0.00  0.00    +0.000 A 
ATOM     16  C   UNL     1       4.975   6.364  17.547  0.00  0.00    +0.000 A 
ENDBRANCH   3  10
TORSDOF 1
ENDMDL
MODEL 6
REMARK VINA RESULT:      -6.2      1.239      1.377
REMARK  Name = 
REMARK  1 active torsions:
REMARK  status: ('A' for Active; 'I' for Inactive)
REMARK    1  A    between atoms: N_3  and  C_4
REMARK                            x       y       z     vdW  Elec       q    Type
REMARK                         _______ _______ _______ _____ _____    ______ ____
ROOT
ATOM      1  O   UNL     1       3.345   3.582  16.686  0.00  0.00    +0.000 OA
ATOM      2  C   UNL     1       4.299   4.002  17.323  0.00  0.00    +0.000 C 
ATOM      3  N   UNL     1       4.455   4.149  18.686  0.00  0.00    +0.000 N 
ATOM      4  N   UNL     1       5.369   4.561  16.626  0.00  0.00    +0.000 N 
ATOM      5  C   UNL     1       6.724   4.462  16.880  0.00  0.00    +0.000 A 
ATOM      6  C   UNL     1       7.340   5.170  15.873  0.00  0.00    +0.000 A 
ATOM      7  N   UNL     1       6.416   5.741  15.041  0.00  0.00    +0.000 NA
ATOM      8  C   UNL     1       5.252   5.332  15.493  0.00  0.00    +0.000 A 
ATOM      9  H   UNL     1       5.142   4.822  19.008  0.00  0.00    +0.000 HD
ENDROOT
BRANCH   3  10
ATOM     10  C   UNL     1       3.477   3.752  19.625  0.00  0.00    +0.000 A 
ATOM     11  C   UNL     1       2.250   4.418  19.750  0.00  0.00    +0.000 A 
ATOM     12  C   UNL     1       1.316   4.009  20.705  0.00  0.00    +0.000 A 
ATOM     13  C   UNL     1       1.613   2.938  21.539  0.00  0.00    +0.000 A 
ATOM     14  F   UNL     1       0.725   2.556  22.466  0.00  0.00    +0.000 F 
ATOM     15  C   UNL     1       2.821   2.261  21.423  0.00  0.00    +0.000 A 
ATOM     16  C   UNL     1       3.749   2.657  20.454  0.00  0.00    +0.000 A 
ENDBRANCH   3  10
TORSDOF 1
ENDMDL
MODEL 7
REMARK VINA RESULT:      -6.2      2.104      2.810
REMARK  Name = 
REMARK  1 active torsions:
REMARK  status: ('A' for Active; 'I' for Inactive)
REMARK    1  A    between atoms: N_3  and  C_4
REMARK                            x       y       z     vdW  Elec       q    Type
REMARK                         _______ _______ _______ _____ _____    ______ ____
ROOT
ATOM      1  O   UNL     1       5.248   4.882  16.289  0.00  0.00    +0.000 OA
ATOM      2  C   UNL     1       5.475   5.198  17.446  0.00  0.00    +0.000 C 
ATOM      3  N   UNL     1       4.780   4.892  18.598  0.00  0.00    +0.000 N 
ATOM      4  N   UNL     1       6.493   6.118  17.697  0.00  0.00    +0.000 N 
ATOM      5  C   UNL     1       7.411   6.146  18.730  0.00  0.00    +0.000 A 
ATOM      6  C   UNL     1       8.208   7.241  18.485  0.00  0.00    +0.000 A 
ATOM      7  N   UNL     1       7.785   7.914  17.372  0.00  0.00    +0.000 NA
ATOM      8  C   UNL     1       6.783   7.203  16.903  0.00  0.00    +0.000 A 
ATOM      9  H   UNL     1       4.897   5.511  19.394  0.00  0.00    +0.000 HD
ENDROOT
BRANCH   3  10
ATOM     10  C   UNL     1       3.643   4.053  18.617  0.00  0.00    +0.000 A 
ATOM     11  C   UNL     1       3.729   2.689  18.927  0.00  0.00    +0.000 A 
ATOM     12  C   UNL     1       2.585   1.887  18.915  0.00  0.00    +0.000 A 
ATOM     13  C   UNL     1       1.357   2.450  18.587  0.00  0.00    +0.000 A 
ATOM     14  F   UNL     1       0.263   1.678  18.560  0.00  0.00    +0.000 F 
ATOM     15  C   UNL     1       1.253   3.802  18.287  0.00  0.00    +0.000 A 
ATOM     16  C   UNL     1       2.394   4.611  18.317  0.00  0.00    +0.000 A 
ENDBRANCH   3  10
TORSDOF 1
ENDMDL
MODEL 8
REMARK VINA RESULT:      -6.2      3.387      6.399
REMARK  Name = 
REMARK  1 active torsions:
REMARK  status: ('A' for Active; 'I' for Inactive)
REMARK    1  A    between atoms: N_3  and  C_4
REMARK                            x       y       z     vdW  Elec       q    Type
REMARK                         _______ _______ _______ _____ _____    ______ ____
ROOT
ATOM      1  O   UNL     1       4.478   1.856  18.940  0.00  0.00    +0.000 OA
ATOM      2  C   UNL     1       3.847   2.897  19.038  0.00  0.00    +0.000 C 
ATOM      3  N   UNL     1       4.023   4.101  18.388  0.00  0.00    +0.000 N 
ATOM      4  N   UNL     1       2.878   2.996  20.036  0.00  0.00    +0.000 N 
ATOM      5  C   UNL     1       1.638   3.606  19.993  0.00  0.00    +0.000 A 
ATOM      6  C   UNL     1       1.075   3.382  21.229  0.00  0.00    +0.000 A 
ATOM      7  N   UNL     1       1.939   2.704  22.044  0.00  0.00    +0.000 NA
ATOM      8  C   UNL     1       2.991   2.456  21.296  0.00  0.00    +0.000 A 
ATOM      9  H   UNL     1       3.653   4.933  18.836  0.00  0.00    +0.000 HD
ENDROOT
BRANCH   3  10
ATOM     10  C   UNL     1       5.004   4.308  17.392  0.00  0.00    +0.000 A 
ATOM     11  C   UNL     1       6.335   4.613  17.710  0.00  0.00    +0.000 A 
ATOM     12  C   UNL     1       7.272   4.832  16.697  0.00  0.00    +0.000 A 
ATOM     13  C   UNL     1       6.875   4.751  15.368  0.00  0.00    +0.000 A 
ATOM     14  F   UNL     1       7.769   4.976  14.396  0.00  0.00    +0.000 F 
ATOM     15  C   UNL     1       5.563   4.441  15.035  0.00  0.00    +0.000 A 
ATOM     16  C   UNL     1       4.627   4.203  16.049  0.00  0.00    +0.000 A 
ENDBRANCH   3  10
TORSDOF 1
ENDMDL
MODEL 9
REMARK VINA RESULT:      -6.2      2.116      2.592
REMARK  Name = 
REMARK  1 active torsions:
REMARK  status: ('A' for Active; 'I' for Inactive)
REMARK    1  A    between atoms: N_3  and  C_4
REMARK                            x       y       z     vdW  Elec       q    Type
REMARK                         _______ _______ _______ _____ _____    ______ ____
ROOT
ATOM      1  O   UNL     1       5.169   5.092  16.228  0.00  0.00    +0.000 OA
ATOM      2  C   UNL     1       5.437   5.309  17.399  0.00  0.00    +0.000 C 
ATOM      3  N   UNL     1       4.768   4.926  18.544  0.00  0.00    +0.000 N 
ATOM      4  N   UNL     1       6.482   6.185  17.691  0.00  0.00    +0.000 N 
ATOM      5  C   UNL     1       7.430   6.110  18.694  0.00  0.00    +0.000 A 
ATOM      6  C   UNL     1       8.245   7.204  18.513  0.00  0.00    +0.000 A 
ATOM      7  N   UNL     1       7.805   7.973  17.470  0.00  0.00    +0.000 NA
ATOM      8  C   UNL     1       6.775   7.323  16.978  0.00  0.00    +0.000 A 
ATOM      9  H   UNL     1       4.923   5.476  19.382  0.00  0.00    +0.000 HD
ENDROOT
BRANCH   3  10
ATOM     10  C   UNL     1       3.613   4.112  18.531  0.00  0.00    +0.000 A 
ATOM     11  C   UNL     1       2.336   4.636  18.288  0.00  0.00    +0.000 A 
ATOM     12  C   UNL     1       1.214   3.803  18.304  0.00  0.00    +0.000 A 
ATOM     13  C   UNL     1       1.371   2.448  18.569  0.00  0.00    +0.000 A 
ATOM     14  F   UNL     1       0.295   1.652  18.601  0.00  0.00    +0.000 F 
ATOM     15  C   UNL     1       2.631   1.911  18.803  0.00  0.00    +0.000 A 
ATOM     16  C   UNL     1       3.757   2.740  18.768  0.00  0.00    +0.000 A 
ENDBRANCH   3  10
TORSDOF 1
ENDMDL
