MODEL 1
REMARK VINA RESULT:      -9.2      0.000      0.000
REMARK  Name = 
REMARK  5 active torsions:
REMARK  status: ('A' for Active; 'I' for Inactive)
REMARK    1  A    between atoms: C_1  and  C_2
REMARK    2  A    between atoms: C_4  and  C_5
REMARK    3  A    between atoms: N_8  and  C_9
REMARK    4  A    between atoms: C_9  and  C_10
REMARK    5  A    between atoms: C_10  and  C_11
REMARK                            x       y       z     vdW  Elec       q    Type
REMARK                         _______ _______ _______ _____ _____    ______ ____
ROOT
ATOM      1  C   UNL     1       6.347   4.327  16.408  0.00  0.00    +0.000 A 
ATOM      2  C   UNL     1       7.217   4.636  17.484  0.00  0.00    +0.000 A 
ATOM      3  N   UNL     1       6.610   4.570  18.682  0.00  0.00    +0.000 NA
ATOM      4  N   UNL     1       5.326   4.241  18.376  0.00  0.00    +0.000 N 
ATOM      5  C   UNL     1       5.158   4.016  17.031  0.00  0.00    +0.000 A 
ENDROOT
BRANCH   1   9
ATOM      6  C   UNL     1       5.774   2.942  11.586  0.00  0.00    +0.000 C 
ATOM      7  C   UNL     1       6.431   3.761  12.672  0.00  0.00    +0.000 A 
ATOM      8  C   UNL     1       5.981   3.573  14.073  0.00  0.00    +0.000 A 
ATOM      9  C   UNL     1       6.592   4.336  14.989  0.00  0.00    +0.000 A 
ATOM     10  N   UNL     1       7.566   5.197  14.557  0.00  0.00    +0.000 N 
ATOM     11  C   UNL     1       7.973   5.337  13.247  0.00  0.00    +0.000 A 
ATOM     12  O   UNL     1       8.879   6.124  12.997  0.00  0.00    +0.000 OA
ATOM     13  N   UNL     1       7.361   4.584  12.303  0.00  0.00    +0.000 NA
ATOM     14  H   UNL     1       8.081   5.769  15.212  0.00  0.00    +0.000 HD
ENDBRANCH   1   9
BRANCH   4  15
ATOM     15  C   UNL     1       4.300   4.044  19.412  0.00  0.00    +0.000 C 
BRANCH  15  16
ATOM     16  C   UNL     1       2.925   4.662  19.130  0.00  0.00    +0.000 C 
BRANCH  16  17
ATOM     17  C   UNL     1       2.371   5.556  20.308  0.00  0.00    +0.000 C 
ATOM     18  O   UNL     1       2.247   5.077  21.432  0.00  0.00    +0.000 OA
ATOM     19  N   UNL     1       2.012   6.890  20.015  0.00  0.00    +0.000 N 
ATOM     20  C   UNL     1       2.370   7.366  18.707  0.00  0.00    +0.000 C 
ATOM     21  C   UNL     1       2.270   8.827  18.401  0.00  0.00    +0.000 C 
ATOM     22  C   UNL     1       1.105   9.480  19.054  0.00  0.00    +0.000 A 
ATOM     23  C   UNL     1       0.524  10.560  18.366  0.00  0.00    +0.000 A 
ATOM     24  C   UNL     1      -0.458  11.325  18.954  0.00  0.00    +0.000 A 
ATOM     25  C   UNL     1      -0.799  11.056  20.277  0.00  0.00    +0.000 A 
ATOM     26  C   UNL     1      -0.217   9.959  20.977  0.00  0.00    +0.000 A 
ATOM     27  C   UNL     1       0.708   9.101  20.343  0.00  0.00    +0.000 A 
ATOM     28  C   UNL     1       1.325   7.837  20.982  0.00  0.00    +0.000 C 
ENDBRANCH  16  17
ENDBRANCH  15  16
ENDBRANCH   4  15
TORSDOF 4
ENDMDL
MODEL 2
REMARK VINA RESULT:      -8.6      1.271      2.015
REMARK  Name = 
REMARK  5 active torsions:
REMARK  status: ('A' for Active; 'I' for Inactive)
REMARK    1  A    between atoms: C_1  and  C_2
REMARK    2  A    between atoms: C_4  and  C_5
REMARK    3  A    between atoms: N_8  and  C_9
REMARK    4  A    between atoms: C_9  and  C_10
REMARK    5  A    between atoms: C_10  and  C_11
REMARK                            x       y       z     vdW  Elec       q    Type
REMARK                         _______ _______ _______ _____ _____    ______ ____
ROOT
ATOM      1  C   UNL     1       5.799   4.498  16.253  0.00  0.00    +0.000 A 
ATOM      2  C   UNL     1       6.545   4.591  17.455  0.00  0.00    +0.000 A 
ATOM      3  N   UNL     1       5.767   4.740  18.542  0.00  0.00    +0.000 NA
ATOM      4  N   UNL     1       4.506   4.772  18.034  0.00  0.00    +0.000 N 
ATOM      5  C   UNL     1       4.490   4.554  16.678  0.00  0.00    +0.000 A 
ENDROOT
BRANCH   1   9
ATOM      6  C   UNL     1       5.948   2.689  11.541  0.00  0.00    +0.000 C 
ATOM      7  C   UNL     1       6.436   3.608  12.634  0.00  0.00    +0.000 A 
ATOM      8  C   UNL     1       5.783   3.537  13.965  0.00  0.00    +0.000 A 
ATOM      9  C   UNL     1       6.252   4.386  14.890  0.00  0.00    +0.000 A 
ATOM     10  N   UNL     1       7.279   5.219  14.532  0.00  0.00    +0.000 N 
ATOM     11  C   UNL     1       7.875   5.250  13.289  0.00  0.00    +0.000 A 
ATOM     12  O   UNL     1       8.808   6.024  13.107  0.00  0.00    +0.000 OA
ATOM     13  N   UNL     1       7.411   4.409  12.336  0.00  0.00    +0.000 NA
ATOM     14  H   UNL     1       7.691   5.854  15.202  0.00  0.00    +0.000 HD
ENDBRANCH   1   9
BRANCH   4  15
ATOM     15  C   UNL     1       3.319   4.907  18.894  0.00  0.00    +0.000 C 
BRANCH  15  16
ATOM     16  C   UNL     1       3.222   6.197  19.717  0.00  0.00    +0.000 C 
BRANCH  16  17
ATOM     17  C   UNL     1       2.573   7.407  18.938  0.00  0.00    +0.000 C 
ATOM     18  O   UNL     1       2.878   7.614  17.767  0.00  0.00    +0.000 OA
ATOM     19  N   UNL     1       1.665   8.234  19.636  0.00  0.00    +0.000 N 
ATOM     20  C   UNL     1       1.271   7.777  20.940  0.00  0.00    +0.000 C 
ATOM     21  C   UNL     1       0.127   8.439  21.639  0.00  0.00    +0.000 C 
ATOM     22  C   UNL     1       0.068   9.906  21.399  0.00  0.00    +0.000 A 
ATOM     23  C   UNL     1      -0.454  10.691  22.442  0.00  0.00    +0.000 A 
ATOM     24  C   UNL     1      -0.690  12.035  22.262  0.00  0.00    +0.000 A 
ATOM     25  C   UNL     1      -0.482  12.577  20.997  0.00  0.00    +0.000 A 
ATOM     26  C   UNL     1       0.052  11.786  19.937  0.00  0.00    +0.000 A 
ATOM     27  C   UNL     1       0.403  10.434  20.146  0.00  0.00    +0.000 A 
ATOM     28  C   UNL     1       1.069   9.520  19.094  0.00  0.00    +0.000 C 
ENDBRANCH  16  17
ENDBRANCH  15  16
ENDBRANCH   4  15
TORSDOF 4
ENDMDL
MODEL 3
REMARK VINA RESULT:      -8.5      3.023      4.608
REMARK  Name = 
REMARK  5 active torsions:
REMARK  status: ('A' for Active; 'I' for Inactive)
REMARK    1  A    between atoms: C_1  and  C_2
REMARK    2  A    between atoms: C_4  and  C_5
REMARK    3  A    between atoms: N_8  and  C_9
REMARK    4  A    between atoms: C_9  and  C_10
REMARK    5  A    between atoms: C_10  and  C_11
REMARK                            x       y       z     vdW  Elec       q    Type
REMARK                         _______ _______ _______ _____ _____    ______ ____
ROOT
ATOM      1  C   UNL     1       3.988   5.868  17.579  0.00  0.00    +0.000 A 
ATOM      2  C   UNL     1       2.891   5.108  18.057  0.00  0.00    +0.000 A 
ATOM      3  N   UNL     1       1.954   5.863  18.657  0.00  0.00    +0.000 NA
ATOM      4  N   UNL     1       2.463   7.122  18.591  0.00  0.00    +0.000 N 
ATOM      5  C   UNL     1       3.641   7.166  17.887  0.00  0.00    +0.000 A 
ENDROOT
BRANCH   1   9
ATOM      6  C   UNL     1       7.046   4.705  13.733  0.00  0.00    +0.000 C 
ATOM      7  C   UNL     1       6.745   4.839  15.207  0.00  0.00    +0.000 A 
ATOM      8  C   UNL     1       5.405   5.328  15.615  0.00  0.00    +0.000 A 
ATOM      9  C   UNL     1       5.202   5.437  16.936  0.00  0.00    +0.000 A 
ATOM     10  N   UNL     1       6.228   5.083  17.772  0.00  0.00    +0.000 N 
ATOM     11  C   UNL     1       7.458   4.617  17.360  0.00  0.00    +0.000 A 
ATOM     12  O   UNL     1       8.281   4.306  18.214  0.00  0.00    +0.000 OA
ATOM     13  N   UNL     1       7.689   4.510  16.031  0.00  0.00    +0.000 NA
ATOM     14  H   UNL     1       6.114   5.115  18.776  0.00  0.00    +0.000 HD
ENDBRANCH   1   9
BRANCH   4  15
ATOM     15  C   UNL     1       1.740   8.288  19.124  0.00  0.00    +0.000 C 
BRANCH  15  16
ATOM     16  C   UNL     1       1.253   9.313  18.092  0.00  0.00    +0.000 C 
BRANCH  16  17
ATOM     17  C   UNL     1       0.640  10.621  18.728  0.00  0.00    +0.000 C 
ATOM     18  O   UNL     1       1.345  11.355  19.415  0.00  0.00    +0.000 OA
ATOM     19  N   UNL     1      -0.727  10.894  18.496  0.00  0.00    +0.000 N 
ATOM     20  C   UNL     1      -1.383  10.049  17.537  0.00  0.00    +0.000 C 
ATOM     21  C   UNL     1      -2.742  10.421  17.035  0.00  0.00    +0.000 C 
ATOM     22  C   UNL     1      -3.600  11.039  18.081  0.00  0.00    +0.000 A 
ATOM     23  C   UNL     1      -4.983  10.807  17.974  0.00  0.00    +0.000 A 
ATOM     24  C   UNL     1      -5.872  11.457  18.800  0.00  0.00    +0.000 A 
ATOM     25  C   UNL     1      -5.375  12.412  19.682  0.00  0.00    +0.000 A 
ATOM     26  C   UNL     1      -3.973  12.646  19.798  0.00  0.00    +0.000 A 
ATOM     27  C   UNL     1      -3.047  11.903  19.035  0.00  0.00    +0.000 A 
ATOM     28  C   UNL     1      -1.511  12.016  19.151  0.00  0.00    +0.000 C 
ENDBRANCH  16  17
ENDBRANCH  15  16
ENDBRANCH   4  15
TORSDOF 4
ENDMDL
MODEL 4
REMARK VINA RESULT:      -8.4      1.190      1.586
REMARK  Name = 
REMARK  5 active torsions:
REMARK  status: ('A' for Active; 'I' for Inactive)
REMARK    1  A    between atoms: C_1  and  C_2
REMARK    2  A    between atoms: C_4  and  C_5
REMARK    3  A    between atoms: N_8  and  C_9
REMARK    4  A    between atoms: C_9  and  C_10
REMARK    5  A    between atoms: C_10  and  C_11
REMARK                            x       y       z     vdW  Elec       q    Type
REMARK                         _______ _______ _______ _____ _____    ______ ____
ROOT
ATOM      1  C   UNL     1       6.466   4.284  16.120  0.00  0.00    +0.000 A 
ATOM      2  C   UNL     1       7.287   4.598  17.233  0.00  0.00    +0.000 A 
ATOM      3  N   UNL     1       6.659   4.429  18.409  0.00  0.00    +0.000 NA
ATOM      4  N   UNL     1       5.408   4.028  18.054  0.00  0.00    +0.000 N 
ATOM      5  C   UNL     1       5.288   3.860  16.695  0.00  0.00    +0.000 A 
ENDROOT
BRANCH   1   9
ATOM      6  C   UNL     1       8.439   6.226  11.897  0.00  0.00    +0.000 C 
ATOM      7  C   UNL     1       7.603   5.208  12.636  0.00  0.00    +0.000 A 
ATOM      8  C   UNL     1       7.488   5.321  14.110  0.00  0.00    +0.000 A 
ATOM      9  C   UNL     1       6.743   4.382  14.710  0.00  0.00    +0.000 A 
ATOM     10  N   UNL     1       6.158   3.428  13.920  0.00  0.00    +0.000 N 
ATOM     11  C   UNL     1       6.273   3.360  12.547  0.00  0.00    +0.000 A 
ATOM     12  O   UNL     1       5.673   2.471  11.954  0.00  0.00    +0.000 OA
ATOM     13  N   UNL     1       7.029   4.292  11.922  0.00  0.00    +0.000 NA
ATOM     14  H   UNL     1       5.559   2.718  14.319  0.00  0.00    +0.000 HD
ENDBRANCH   1   9
BRANCH   4  15
ATOM     15  C   UNL     1       4.375   3.708  19.051  0.00  0.00    +0.000 C 
BRANCH  15  16
ATOM     16  C   UNL     1       3.003   4.359  18.838  0.00  0.00    +0.000 C 
BRANCH  16  17
ATOM     17  C   UNL     1       2.534   5.275  20.035  0.00  0.00    +0.000 C 
ATOM     18  O   UNL     1       2.447   4.804  21.166  0.00  0.00    +0.000 OA
ATOM     19  N   UNL     1       2.207   6.620  19.753  0.00  0.00    +0.000 N 
ATOM     20  C   UNL     1       2.520   7.079  18.428  0.00  0.00    +0.000 C 
ATOM     21  C   UNL     1       2.455   8.541  18.120  0.00  0.00    +0.000 C 
ATOM     22  C   UNL     1       1.344   9.236  18.824  0.00  0.00    +0.000 A 
ATOM     23  C   UNL     1       0.769  10.333  18.158  0.00  0.00    +0.000 A 
ATOM     24  C   UNL     1      -0.158  11.132  18.787  0.00  0.00    +0.000 A 
ATOM     25  C   UNL     1      -0.446  10.879  20.125  0.00  0.00    +0.000 A 
ATOM     26  C   UNL     1       0.130   9.765  20.803  0.00  0.00    +0.000 A 
ATOM     27  C   UNL     1       0.995   8.874  20.131  0.00  0.00    +0.000 A 
ATOM     28  C   UNL     1       1.598   7.592  20.747  0.00  0.00    +0.000 C 
ENDBRANCH  16  17
ENDBRANCH  15  16
ENDBRANCH   4  15
TORSDOF 4
ENDMDL
MODEL 5
REMARK VINA RESULT:      -8.3      6.869      8.639
REMARK  Name = 
REMARK  5 active torsions:
REMARK  status: ('A' for Active; 'I' for Inactive)
REMARK    1  A    between atoms: C_1  and  C_2
REMARK    2  A    between atoms: C_4  and  C_5
REMARK    3  A    between atoms: N_8  and  C_9
REMARK    4  A    between atoms: C_9  and  C_10
REMARK    5  A    between atoms: C_10  and  C_11
REMARK                            x       y       z     vdW  Elec       q    Type
REMARK                         _______ _______ _______ _____ _____    ______ ____
ROOT
ATOM      1  C   UNL     1       5.970   5.773  17.967  0.00  0.00    +0.000 A 
ATOM      2  C   UNL     1       6.199   6.447  16.741  0.00  0.00    +0.000 A 
ATOM      3  N   UNL     1       7.197   7.346  16.818  0.00  0.00    +0.000 NA
ATOM      4  N   UNL     1       7.600   7.271  18.115  0.00  0.00    +0.000 N 
ATOM      5  C   UNL     1       6.935   6.287  18.806  0.00  0.00    +0.000 A 
ENDROOT
BRANCH   1   9
ATOM      6  C   UNL     1       1.413   3.599  18.007  0.00  0.00    +0.000 C 
ATOM      7  C   UNL     1       2.862   3.670  18.424  0.00  0.00    +0.000 A 
ATOM      8  C   UNL     1       3.693   4.789  17.914  0.00  0.00    +0.000 A 
ATOM      9  C   UNL     1       4.974   4.791  18.310  0.00  0.00    +0.000 A 
ATOM     10  N   UNL     1       5.388   3.785  19.141  0.00  0.00    +0.000 N 
ATOM     11  C   UNL     1       4.585   2.766  19.610  0.00  0.00    +0.000 A 
ATOM     12  O   UNL     1       5.074   1.942  20.375  0.00  0.00    +0.000 OA
ATOM     13  N   UNL     1       3.291   2.738  19.215  0.00  0.00    +0.000 NA
ATOM     14  H   UNL     1       6.334   3.760  19.495  0.00  0.00    +0.000 HD
ENDBRANCH   1   9
BRANCH   4  15
ATOM     15  C   UNL     1       8.705   8.088  18.641  0.00  0.00    +0.000 C 
BRANCH  15  16
ATOM     16  C   UNL     1       8.633   9.592  18.351  0.00  0.00    +0.000 C 
BRANCH  16  17
ATOM     17  C   UNL     1       9.276  10.494  19.476  0.00  0.00    +0.000 C 
ATOM     18  O   UNL     1       9.022  10.271  20.656  0.00  0.00    +0.000 OA
ATOM     19  N   UNL     1      10.118  11.555  19.075  0.00  0.00    +0.000 N 
ATOM     20  C   UNL     1      10.464  11.592  17.680  0.00  0.00    +0.000 C 
ATOM     21  C   UNL     1      11.547  12.511  17.214  0.00  0.00    +0.000 C 
ATOM     22  C   UNL     1      11.565  13.808  17.942  0.00  0.00    +0.000 A 
ATOM     23  C   UNL     1      12.006  14.928  17.216  0.00  0.00    +0.000 A 
ATOM     24  C   UNL     1      12.202  16.140  17.840  0.00  0.00    +0.000 A 
ATOM     25  C   UNL     1      12.038  16.204  19.220  0.00  0.00    +0.000 A 
ATOM     26  C   UNL     1      11.586  15.072  19.960  0.00  0.00    +0.000 A 
ATOM     27  C   UNL     1      11.273  13.857  19.311  0.00  0.00    +0.000 A 
ATOM     28  C   UNL     1      10.693  12.606  20.006  0.00  0.00    +0.000 C 
ENDBRANCH  16  17
ENDBRANCH  15  16
ENDBRANCH   4  15
TORSDOF 4
ENDMDL
MODEL 6
REMARK VINA RESULT:      -8.3      4.459      6.786
REMARK  Name = 
REMARK  5 active torsions:
REMARK  status: ('A' for Active; 'I' for Inactive)
REMARK    1  A    between atoms: C_1  and  C_2
REMARK    2  A    between atoms: C_4  and  C_5
REMARK    3  A    between atoms: N_8  and  C_9
REMARK    4  A    between atoms: C_9  and  C_10
REMARK    5  A    between atoms: C_10  and  C_11
REMARK                            x       y       z     vdW  Elec       q    Type
REMARK                         _______ _______ _______ _____ _____    ______ ____
ROOT
ATOM      1  C   UNL     1       8.228   8.219  18.172  0.00  0.00    +0.000 A 
ATOM      2  C   UNL     1       8.254   7.067  18.997  0.00  0.00    +0.000 A 
ATOM      3  N   UNL     1       7.741   5.981  18.392  0.00  0.00    +0.000 NA
ATOM      4  N   UNL     1       7.353   6.442  17.173  0.00  0.00    +0.000 N 
ATOM      5  C   UNL     1       7.699   7.758  16.986  0.00  0.00    +0.000 A 
ENDROOT
BRANCH   1   9
ATOM      6  C   UNL     1      10.602  11.935  20.633  0.00  0.00    +0.000 C 
ATOM      7  C   UNL     1       9.685  11.425  19.547  0.00  0.00    +0.000 A 
ATOM      8  C   UNL     1       9.442   9.964  19.452  0.00  0.00    +0.000 A 
ATOM      9  C   UNL     1       8.630   9.572  18.460  0.00  0.00    +0.000 A 
ATOM     10  N   UNL     1       8.100  10.539  17.647  0.00  0.00    +0.000 N 
ATOM     11  C   UNL     1       8.334  11.892  17.772  0.00  0.00    +0.000 A 
ATOM     12  O   UNL     1       7.773  12.656  16.995  0.00  0.00    +0.000 OA
ATOM     13  N   UNL     1       9.160  12.310  18.760  0.00  0.00    +0.000 NA
ATOM     14  H   UNL     1       7.456  10.299  16.907  0.00  0.00    +0.000 HD
ENDBRANCH   1   9
BRANCH   4  15
ATOM     15  C   UNL     1       6.743   5.565  16.162  0.00  0.00    +0.000 C 
BRANCH  15  16
ATOM     16  C   UNL     1       5.325   5.936  15.709  0.00  0.00    +0.000 C 
BRANCH  16  17
ATOM     17  C   UNL     1       4.395   6.453  16.876  0.00  0.00    +0.000 C 
ATOM     18  O   UNL     1       4.380   7.647  17.162  0.00  0.00    +0.000 OA
ATOM     19  N   UNL     1       3.616   5.503  17.574  0.00  0.00    +0.000 N 
ATOM     20  C   UNL     1       3.600   4.175  17.024  0.00  0.00    +0.000 C 
ATOM     21  C   UNL     1       2.609   3.178  17.533  0.00  0.00    +0.000 C 
ATOM     22  C   UNL     1       2.358   3.300  18.994  0.00  0.00    +0.000 A 
ATOM     23  C   UNL     1       2.041   2.113  19.677  0.00  0.00    +0.000 A 
ATOM     24  C   UNL     1       1.645   2.142  20.995  0.00  0.00    +0.000 A 
ATOM     25  C   UNL     1       1.483   3.381  21.607  0.00  0.00    +0.000 A 
ATOM     26  C   UNL     1       1.809   4.588  20.921  0.00  0.00    +0.000 A 
ATOM     27  C   UNL     1       2.323   4.560  19.606  0.00  0.00    +0.000 A 
ATOM     28  C   UNL     1       2.789   5.799  18.811  0.00  0.00    +0.000 C 
ENDBRANCH  16  17
ENDBRANCH  15  16
ENDBRANCH   4  15
TORSDOF 4
ENDMDL
MODEL 7
REMARK VINA RESULT:      -8.1      4.424      9.598
REMARK  Name = 
REMARK  5 active torsions:
REMARK  status: ('A' for Active; 'I' for Inactive)
REMARK    1  A    between atoms: C_1  and  C_2
REMARK    2  A    between atoms: C_4  and  C_5
REMARK    3  A    between atoms: N_8  and  C_9
REMARK    4  A    between atoms: C_9  and  C_10
REMARK    5  A    between atoms: C_10  and  C_11
REMARK                            x       y       z     vdW  Elec       q    Type
REMARK                         _______ _______ _______ _____ _____    ______ ____
ROOT
ATOM      1  C   UNL     1      -1.449  11.509  19.009  0.00  0.00    +0.000 A 
ATOM      2  C   UNL     1      -0.852  12.624  19.650  0.00  0.00    +0.000 A 
ATOM      3  N   UNL     1       0.103  12.271  20.529  0.00  0.00    +0.000 NA
ATOM      4  N   UNL     1       0.105  10.912  20.475  0.00  0.00    +0.000 N 
ATOM      5  C   UNL     1      -0.759  10.432  19.522  0.00  0.00    +0.000 A 
ENDROOT
BRANCH   1   9
ATOM      6  C   UNL     1      -6.191  11.961  17.336  0.00  0.00    +0.000 C 
ATOM      7  C   UNL     1      -4.734  11.615  17.143  0.00  0.00    +0.000 A 
ATOM      8  C   UNL     1      -3.811  11.770  18.293  0.00  0.00    +0.000 A 
ATOM      9  C   UNL     1      -2.528  11.459  18.057  0.00  0.00    +0.000 A 
ATOM     10  N   UNL     1      -2.197  11.025  16.801  0.00  0.00    +0.000 N 
ATOM     11  C   UNL     1      -3.084  10.878  15.756  0.00  0.00    +0.000 A 
ATOM     12  O   UNL     1      -2.662  10.450  14.687  0.00  0.00    +0.000 OA
ATOM     13  N   UNL     1      -4.382  11.196  15.968  0.00  0.00    +0.000 NA
ATOM     14  H   UNL     1      -1.250  10.746  16.581  0.00  0.00    +0.000 HD
ENDBRANCH   1   9
BRANCH   4  15
ATOM     15  C   UNL     1       1.030  10.098  21.281  0.00  0.00    +0.000 C 
BRANCH  15  16
ATOM     16  C   UNL     1       0.954   8.581  21.072  0.00  0.00    +0.000 C 
BRANCH  16  17
ATOM     17  C   UNL     1       1.806   8.058  19.850  0.00  0.00    +0.000 C 
ATOM     18  O   UNL     1       2.202   8.849  18.999  0.00  0.00    +0.000 OA
ATOM     19  N   UNL     1       2.067   6.672  19.769  0.00  0.00    +0.000 N 
ATOM     20  C   UNL     1       1.693   5.892  20.917  0.00  0.00    +0.000 C 
ATOM     21  C   UNL     1       2.163   4.477  21.031  0.00  0.00    +0.000 C 
ATOM     22  C   UNL     1       2.201   3.768  19.724  0.00  0.00    +0.000 A 
ATOM     23  C   UNL     1       1.955   2.384  19.754  0.00  0.00    +0.000 A 
ATOM     24  C   UNL     1       2.116   1.615  18.624  0.00  0.00    +0.000 A 
ATOM     25  C   UNL     1       2.612   2.226  17.476  0.00  0.00    +0.000 A 
ATOM     26  C   UNL     1       2.858   3.630  17.439  0.00  0.00    +0.000 A 
ATOM     27  C   UNL     1       2.588   4.445  18.560  0.00  0.00    +0.000 A 
ATOM     28  C   UNL     1       2.733   5.982  18.592  0.00  0.00    +0.000 C 
ENDBRANCH  16  17
ENDBRANCH  15  16
ENDBRANCH   4  15
TORSDOF 4
ENDMDL
MODEL 8
REMARK VINA RESULT:      -8.1      0.901      1.213
REMARK  Name = 
REMARK  5 active torsions:
REMARK  status: ('A' for Active; 'I' for Inactive)
REMARK    1  A    between atoms: C_1  and  C_2
REMARK    2  A    between atoms: C_4  and  C_5
REMARK    3  A    between atoms: N_8  and  C_9
REMARK    4  A    between atoms: C_9  and  C_10
REMARK    5  A    between atoms: C_10  and  C_11
REMARK                            x       y       z     vdW  Elec       q    Type
REMARK                         _______ _______ _______ _____ _____    ______ ____
ROOT
ATOM      1  C   UNL     1       5.773   4.523  16.216  0.00  0.00    +0.000 A 
ATOM      2  C   UNL     1       6.487   4.758  17.418  0.00  0.00    +0.000 A 
ATOM      3  N   UNL     1       5.684   4.854  18.492  0.00  0.00    +0.000 NA
ATOM      4  N   UNL     1       4.434   4.707  17.976  0.00  0.00    +0.000 N 
ATOM      5  C   UNL     1       4.461   4.433  16.630  0.00  0.00    +0.000 A 
ENDROOT
BRANCH   1   9
ATOM      6  C   UNL     1       5.994   2.736  11.499  0.00  0.00    +0.000 C 
ATOM      7  C   UNL     1       6.472   3.643  12.607  0.00  0.00    +0.000 A 
ATOM      8  C   UNL     1       5.791   3.574  13.923  0.00  0.00    +0.000 A 
ATOM      9  C   UNL     1       6.252   4.412  14.863  0.00  0.00    +0.000 A 
ATOM     10  N   UNL     1       7.297   5.232  14.530  0.00  0.00    +0.000 N 
ATOM     11  C   UNL     1       7.919   5.261  13.300  0.00  0.00    +0.000 A 
ATOM     12  O   UNL     1       8.866   6.024  13.141  0.00  0.00    +0.000 OA
ATOM     13  N   UNL     1       7.463   4.431  12.333  0.00  0.00    +0.000 NA
ATOM     14  H   UNL     1       7.703   5.858  15.212  0.00  0.00    +0.000 HD
ENDBRANCH   1   9
BRANCH   4  15
ATOM     15  C   UNL     1       3.230   4.729  18.821  0.00  0.00    +0.000 C 
BRANCH  15  16
ATOM     16  C   UNL     1       2.419   6.030  18.811  0.00  0.00    +0.000 C 
BRANCH  16  17
ATOM     17  C   UNL     1       2.082   6.586  20.250  0.00  0.00    +0.000 C 
ATOM     18  O   UNL     1       2.243   5.871  21.235  0.00  0.00    +0.000 OA
ATOM     19  N   UNL     1       1.578   7.902  20.352  0.00  0.00    +0.000 N 
ATOM     20  C   UNL     1       1.604   8.681  19.144  0.00  0.00    +0.000 C 
ATOM     21  C   UNL     1       1.340  10.152  19.209  0.00  0.00    +0.000 C 
ATOM     22  C   UNL     1       0.309  10.514  20.218  0.00  0.00    +0.000 A 
ATOM     23  C   UNL     1      -0.481  11.641  19.929  0.00  0.00    +0.000 A 
ATOM     24  C   UNL     1      -1.356  12.147  20.863  0.00  0.00    +0.000 A 
ATOM     25  C   UNL     1      -1.376  11.568  22.128  0.00  0.00    +0.000 A 
ATOM     26  C   UNL     1      -0.581  10.422  22.424  0.00  0.00    +0.000 A 
ATOM     27  C   UNL     1       0.235   9.829  21.437  0.00  0.00    +0.000 A 
ATOM     28  C   UNL     1       1.062   8.538  21.629  0.00  0.00    +0.000 C 
ENDBRANCH  16  17
ENDBRANCH  15  16
ENDBRANCH   4  15
TORSDOF 4
ENDMDL
MODEL 9
REMARK VINA RESULT:      -8.1      2.158      3.195
REMARK  Name = 
REMARK  5 active torsions:
REMARK  status: ('A' for Active; 'I' for Inactive)
REMARK    1  A    between atoms: C_1  and  C_2
REMARK    2  A    between atoms: C_4  and  C_5
REMARK    3  A    between atoms: N_8  and  C_9
REMARK    4  A    between atoms: C_9  and  C_10
REMARK    5  A    between atoms: C_10  and  C_11
REMARK                            x       y       z     vdW  Elec       q    Type
REMARK                         _______ _______ _______ _____ _____    ______ ____
ROOT
ATOM      1  C   UNL     1       5.290   3.882  18.344  0.00  0.00    +0.000 A 
ATOM      2  C   UNL     1       5.414   3.238  19.601  0.00  0.00    +0.000 A 
ATOM      3  N   UNL     1       4.381   2.421  19.873  0.00  0.00    +0.000 NA
ATOM      4  N   UNL     1       3.567   2.558  18.792  0.00  0.00    +0.000 N 
ATOM      5  C   UNL     1       4.120   3.367  17.829  0.00  0.00    +0.000 A 
ENDROOT
BRANCH   1   9
ATOM      6  C   UNL     1       8.019   8.114  17.977  0.00  0.00    +0.000 C 
ATOM      7  C   UNL     1       7.455   6.835  17.406  0.00  0.00    +0.000 A 
ATOM      8  C   UNL     1       6.604   5.985  18.275  0.00  0.00    +0.000 A 
ATOM      9  C   UNL     1       6.143   4.857  17.717  0.00  0.00    +0.000 A 
ATOM     10  N   UNL     1       6.486   4.602  16.415  0.00  0.00    +0.000 N 
ATOM     11  C   UNL     1       7.268   5.421  15.629  0.00  0.00    +0.000 A 
ATOM     12  O   UNL     1       7.476   5.091  14.467  0.00  0.00    +0.000 OA
ATOM     13  N   UNL     1       7.753   6.560  16.176  0.00  0.00    +0.000 NA
ATOM     14  H   UNL     1       6.138   3.783  15.937  0.00  0.00    +0.000 HD
ENDBRANCH   1   9
BRANCH   4  15
ATOM     15  C   UNL     1       2.305   1.812  18.663  0.00  0.00    +0.000 C 
BRANCH  15  16
ATOM     16  C   UNL     1       1.022   2.596  18.965  0.00  0.00    +0.000 C 
BRANCH  16  17
ATOM     17  C   UNL     1       1.155   3.603  20.174  0.00  0.00    +0.000 C 
ATOM     18  O   UNL     1       0.985   3.204  21.323  0.00  0.00    +0.000 OA
ATOM     19  N   UNL     1       1.449   4.953  19.883  0.00  0.00    +0.000 N 
ATOM     20  C   UNL     1       1.792   5.242  18.517  0.00  0.00    +0.000 C 
ATOM     21  C   UNL     1       2.368   6.578  18.169  0.00  0.00    +0.000 C 
ATOM     22  C   UNL     1       1.780   7.691  18.962  0.00  0.00    +0.000 A 
ATOM     23  C   UNL     1       1.701   8.941  18.324  0.00  0.00    +0.000 A 
ATOM     24  C   UNL     1       1.315  10.064  19.019  0.00  0.00    +0.000 A 
ATOM     25  C   UNL     1       1.090   9.947  20.388  0.00  0.00    +0.000 A 
ATOM     26  C   UNL     1       1.164   8.680  21.038  0.00  0.00    +0.000 A 
ATOM     27  C   UNL     1       1.449   7.504  20.310  0.00  0.00    +0.000 A 
ATOM     28  C   UNL     1       1.462   6.078  20.901  0.00  0.00    +0.000 C 
ENDBRANCH  16  17
ENDBRANCH  15  16
ENDBRANCH   4  15
TORSDOF 4
ENDMDL
