MODEL 1
REMARK VINA RESULT:      -7.6      0.000      0.000
REMARK  Name = 
REMARK  3 active torsions:
REMARK  status: ('A' for Active; 'I' for Inactive)
REMARK    1  A    between atoms: C_1  and  C_2
REMARK    2  A    between atoms: C_2  and  C_3
REMARK    3  A    between atoms: N_8  and  C_9
REMARK                            x       y       z     vdW  Elec       q    Type
REMARK                         _______ _______ _______ _____ _____    ______ ____
ROOT
ATOM      1  C   UNL     1       3.238   3.141  20.280  0.00  0.00    +0.000 A 
ATOM      2  N   UNL     1       3.880   2.130  19.714  0.00  0.00    +0.000 NA
ATOM      3  N   UNL     1       4.313   2.519  18.479  0.00  0.00    +0.000 NA
ATOM      4  C   UNL     1       3.939   3.766  18.315  0.00  0.00    +0.000 A 
ATOM      5  C   UNL     1       4.195   4.581  17.148  0.00  0.00    +0.000 A 
ATOM      6  N   UNL     1       4.811   4.029  16.041  0.00  0.00    +0.000 N 
ATOM      7  N   UNL     1       3.795   5.824  17.170  0.00  0.00    +0.000 NA
ATOM      8  C   UNL     1       3.110   6.324  18.297  0.00  0.00    +0.000 A 
ATOM      9  C   UNL     1       2.681   7.654  18.239  0.00  0.00    +0.000 A 
ATOM     10  C   UNL     1       1.970   8.220  19.291  0.00  0.00    +0.000 A 
ATOM     11  C   UNL     1       1.689   7.462  20.425  0.00  0.00    +0.000 A 
ATOM     12  C   UNL     1       2.107   6.130  20.510  0.00  0.00    +0.000 A 
ATOM     13  C   UNL     1       2.816   5.562  19.451  0.00  0.00    +0.000 A 
ATOM     14  N   UNL     1       3.277   4.230  19.422  0.00  0.00    +0.000 N 
ATOM     15  H   UNL     1       5.166   3.085  16.182  0.00  0.00    +0.000 HD
ENDROOT
BRANCH   6  16
ATOM     16  C   UNL     1       5.535   4.878  15.152  0.00  0.00    +0.000 C 
ATOM     17  C   UNL     1       7.051   4.963  15.439  0.00  0.00    +0.000 C 
ATOM     18  C   UNL     1       7.293   4.787  13.927  0.00  0.00    +0.000 C 
ATOM     19  C   UNL     1       5.895   4.149  13.834  0.00  0.00    +0.000 C 
ENDBRANCH   6  16
BRANCH   1  21
ATOM     20  C   UNL     1       1.084   2.751  21.450  0.00  0.00    +0.000 C 
ATOM     21  C   UNL     1       2.573   3.018  21.605  0.00  0.00    +0.000 C 
ENDBRANCH   1  21
TORSDOF 2
ENDMDL
MODEL 2
REMARK VINA RESULT:      -7.5      1.308      3.761
REMARK  Name = 
REMARK  3 active torsions:
REMARK  status: ('A' for Active; 'I' for Inactive)
REMARK    1  A    between atoms: C_1  and  C_2
REMARK    2  A    between atoms: C_2  and  C_3
REMARK    3  A    between atoms: N_8  and  C_9
REMARK                            x       y       z     vdW  Elec       q    Type
REMARK                         _______ _______ _______ _____ _____    ______ ____
ROOT
ATOM      1  C   UNL     1       2.265   7.486  19.307  0.00  0.00    +0.000 A 
ATOM      2  N   UNL     1       2.675   8.259  18.313  0.00  0.00    +0.000 NA
ATOM      3  N   UNL     1       3.565   7.560  17.549  0.00  0.00    +0.000 NA
ATOM      4  C   UNL     1       3.674   6.365  18.082  0.00  0.00    +0.000 A 
ATOM      5  C   UNL     1       4.508   5.291  17.590  0.00  0.00    +0.000 A 
ATOM      6  N   UNL     1       5.350   5.507  16.516  0.00  0.00    +0.000 N 
ATOM      7  N   UNL     1       4.460   4.145  18.213  0.00  0.00    +0.000 NA
ATOM      8  C   UNL     1       3.635   3.993  19.346  0.00  0.00    +0.000 A 
ATOM      9  C   UNL     1       3.657   2.749  19.986  0.00  0.00    +0.000 A 
ATOM     10  C   UNL     1       2.901   2.521  21.129  0.00  0.00    +0.000 A 
ATOM     11  C   UNL     1       2.098   3.536  21.643  0.00  0.00    +0.000 A 
ATOM     12  C   UNL     1       2.056   4.789  21.024  0.00  0.00    +0.000 A 
ATOM     13  C   UNL     1       2.820   5.018  19.880  0.00  0.00    +0.000 A 
ATOM     14  N   UNL     1       2.863   6.242  19.180  0.00  0.00    +0.000 N 
ATOM     15  H   UNL     1       5.223   6.405  16.053  0.00  0.00    +0.000 HD
ENDROOT
BRANCH   6  16
ATOM     16  C   UNL     1       5.742   4.399  15.706  0.00  0.00    +0.000 C 
ATOM     17  C   UNL     1       5.081   4.360  14.309  0.00  0.00    +0.000 C 
ATOM     18  C   UNL     1       6.470   4.045  13.719  0.00  0.00    +0.000 C 
ATOM     19  C   UNL     1       7.087   4.666  14.986  0.00  0.00    +0.000 C 
ENDBRANCH   6  16
BRANCH   1  21
ATOM     20  C   UNL     1       0.889   9.400  20.084  0.00  0.00    +0.000 C 
ATOM     21  C   UNL     1       1.346   7.978  20.368  0.00  0.00    +0.000 C 
ENDBRANCH   1  21
TORSDOF 2
ENDMDL
MODEL 3
REMARK VINA RESULT:      -7.5      2.092      5.701
REMARK  Name = 
REMARK  3 active torsions:
REMARK  status: ('A' for Active; 'I' for Inactive)
REMARK    1  A    between atoms: C_1  and  C_2
REMARK    2  A    between atoms: C_2  and  C_3
REMARK    3  A    between atoms: N_8  and  C_9
REMARK                            x       y       z     vdW  Elec       q    Type
REMARK                         _______ _______ _______ _____ _____    ______ ____
ROOT
ATOM      1  C   UNL     1       2.030   3.030  18.936  0.00  0.00    +0.000 A 
ATOM      2  N   UNL     1       1.169   3.002  19.941  0.00  0.00    +0.000 NA
ATOM      3  N   UNL     1       1.080   4.253  20.481  0.00  0.00    +0.000 NA
ATOM      4  C   UNL     1       1.881   5.029  19.787  0.00  0.00    +0.000 A 
ATOM      5  C   UNL     1       2.093   6.443  20.008  0.00  0.00    +0.000 A 
ATOM      6  N   UNL     1       1.492   7.071  21.082  0.00  0.00    +0.000 N 
ATOM      7  N   UNL     1       2.888   7.077  19.190  0.00  0.00    +0.000 NA
ATOM      8  C   UNL     1       3.532   6.378  18.149  0.00  0.00    +0.000 A 
ATOM      9  C   UNL     1       4.396   7.112  17.330  0.00  0.00    +0.000 A 
ATOM     10  C   UNL     1       5.098   6.498  16.300  0.00  0.00    +0.000 A 
ATOM     11  C   UNL     1       4.933   5.135  16.066  0.00  0.00    +0.000 A 
ATOM     12  C   UNL     1       4.075   4.376  16.868  0.00  0.00    +0.000 A 
ATOM     13  C   UNL     1       3.375   4.993  17.905  0.00  0.00    +0.000 A 
ATOM     14  N   UNL     1       2.493   4.328  18.781  0.00  0.00    +0.000 N 
ATOM     15  H   UNL     1       0.817   6.497  21.584  0.00  0.00    +0.000 HD
ENDROOT
BRANCH   6  16
ATOM     16  C   UNL     1       1.242   8.475  21.015  0.00  0.00    +0.000 C 
ATOM     17  C   UNL     1      -0.247   8.867  21.150  0.00  0.00    +0.000 C 
ATOM     18  C   UNL     1       0.188   9.969  22.138  0.00  0.00    +0.000 C 
ATOM     19  C   UNL     1       1.476   9.161  22.384  0.00  0.00    +0.000 C 
ENDBRANCH   6  16
BRANCH   1  21
ATOM     20  C   UNL     1       3.760   1.274  18.645  0.00  0.00    +0.000 C 
ATOM     21  C   UNL     1       2.412   1.805  18.184  0.00  0.00    +0.000 C 
ENDBRANCH   1  21
TORSDOF 2
ENDMDL
MODEL 4
REMARK VINA RESULT:      -7.2      1.990      6.446
REMARK  Name = 
REMARK  3 active torsions:
REMARK  status: ('A' for Active; 'I' for Inactive)
REMARK    1  A    between atoms: C_1  and  C_2
REMARK    2  A    between atoms: C_2  and  C_3
REMARK    3  A    between atoms: N_8  and  C_9
REMARK                            x       y       z     vdW  Elec       q    Type
REMARK                         _______ _______ _______ _____ _____    ______ ____
ROOT
ATOM      1  C   UNL     1       4.267   5.787  17.377  0.00  0.00    +0.000 A 
ATOM      2  N   UNL     1       4.160   7.046  16.982  0.00  0.00    +0.000 NA
ATOM      3  N   UNL     1       3.339   7.710  17.848  0.00  0.00    +0.000 NA
ATOM      4  C   UNL     1       2.968   6.848  18.765  0.00  0.00    +0.000 A 
ATOM      5  C   UNL     1       2.099   7.126  19.888  0.00  0.00    +0.000 A 
ATOM      6  N   UNL     1       1.509   8.369  20.013  0.00  0.00    +0.000 N 
ATOM      7  N   UNL     1       1.872   6.163  20.739  0.00  0.00    +0.000 NA
ATOM      8  C   UNL     1       2.444   4.890  20.532  0.00  0.00    +0.000 A 
ATOM      9  C   UNL     1       2.132   3.895  21.464  0.00  0.00    +0.000 A 
ATOM     10  C   UNL     1       2.624   2.603  21.321  0.00  0.00    +0.000 A 
ATOM     11  C   UNL     1       3.451   2.292  20.244  0.00  0.00    +0.000 A 
ATOM     12  C   UNL     1       3.780   3.268  19.297  0.00  0.00    +0.000 A 
ATOM     13  C   UNL     1       3.281   4.563  19.440  0.00  0.00    +0.000 A 
ATOM     14  N   UNL     1       3.537   5.621  18.544  0.00  0.00    +0.000 N 
ATOM     15  H   UNL     1       1.843   9.065  19.348  0.00  0.00    +0.000 HD
ENDROOT
BRANCH   6  16
ATOM     16  C   UNL     1       1.125   8.829  21.308  0.00  0.00    +0.000 C 
ATOM     17  C   UNL     1       0.876  10.352  21.400  0.00  0.00    +0.000 C 
ATOM     18  C   UNL     1      -0.414  10.040  22.186  0.00  0.00    +0.000 C 
ATOM     19  C   UNL     1      -0.393   8.637  21.554  0.00  0.00    +0.000 C 
ENDBRANCH   6  16
BRANCH   1  21
ATOM     20  C   UNL     1       5.523   5.348  15.282  0.00  0.00    +0.000 C 
ATOM     21  C   UNL     1       5.033   4.774  16.602  0.00  0.00    +0.000 C 
ENDBRANCH   1  21
TORSDOF 2
ENDMDL
MODEL 5
REMARK VINA RESULT:      -7.2      1.536      3.809
REMARK  Name = 
REMARK  3 active torsions:
REMARK  status: ('A' for Active; 'I' for Inactive)
REMARK    1  A    between atoms: C_1  and  C_2
REMARK    2  A    between atoms: C_2  and  C_3
REMARK    3  A    between atoms: N_8  and  C_9
REMARK                            x       y       z     vdW  Elec       q    Type
REMARK                         _______ _______ _______ _____ _____    ______ ____
ROOT
ATOM      1  C   UNL     1       2.794   7.107  18.477  0.00  0.00    +0.000 A 
ATOM      2  N   UNL     1       3.588   7.906  17.781  0.00  0.00    +0.000 NA
ATOM      3  N   UNL     1       4.425   7.143  17.020  0.00  0.00    +0.000 NA
ATOM      4  C   UNL     1       4.121   5.887  17.255  0.00  0.00    +0.000 A 
ATOM      5  C   UNL     1       4.755   4.734  16.654  0.00  0.00    +0.000 A 
ATOM      6  N   UNL     1       5.838   4.903  15.813  0.00  0.00    +0.000 N 
ATOM      7  N   UNL     1       4.294   3.553  16.962  0.00  0.00    +0.000 NA
ATOM      8  C   UNL     1       3.229   3.429  17.878  0.00  0.00    +0.000 A 
ATOM      9  C   UNL     1       2.808   2.132  18.189  0.00  0.00    +0.000 A 
ATOM     10  C   UNL     1       1.787   1.914  19.107  0.00  0.00    +0.000 A 
ATOM     11  C   UNL     1       1.162   2.998  19.719  0.00  0.00    +0.000 A 
ATOM     12  C   UNL     1       1.564   4.305  19.427  0.00  0.00    +0.000 A 
ATOM     13  C   UNL     1       2.592   4.522  18.509  0.00  0.00    +0.000 A 
ATOM     14  N   UNL     1       3.084   5.792  18.146  0.00  0.00    +0.000 N 
ATOM     15  H   UNL     1       6.039   5.871  15.570  0.00  0.00    +0.000 HD
ENDROOT
BRANCH   6  16
ATOM     16  C   UNL     1       6.117   3.906  14.830  0.00  0.00    +0.000 C 
ATOM     17  C   UNL     1       5.142   3.901  13.630  0.00  0.00    +0.000 C 
ATOM     18  C   UNL     1       6.369   3.782  12.703  0.00  0.00    +0.000 C 
ATOM     19  C   UNL     1       7.218   4.370  13.844  0.00  0.00    +0.000 C 
ENDBRANCH   6  16
BRANCH   1  21
ATOM     20  C   UNL     1       1.400   9.053  19.134  0.00  0.00    +0.000 C 
ATOM     21  C   UNL     1       1.813   7.628  19.467  0.00  0.00    +0.000 C 
ENDBRANCH   1  21
TORSDOF 2
ENDMDL
MODEL 6
REMARK VINA RESULT:      -7.1      1.877      6.331
REMARK  Name = 
REMARK  3 active torsions:
REMARK  status: ('A' for Active; 'I' for Inactive)
REMARK    1  A    between atoms: C_1  and  C_2
REMARK    2  A    between atoms: C_2  and  C_3
REMARK    3  A    between atoms: N_8  and  C_9
REMARK                            x       y       z     vdW  Elec       q    Type
REMARK                         _______ _______ _______ _____ _____    ______ ____
ROOT
ATOM      1  C   UNL     1       4.505   5.772  16.873  0.00  0.00    +0.000 A 
ATOM      2  N   UNL     1       4.632   7.090  16.898  0.00  0.00    +0.000 NA
ATOM      3  N   UNL     1       3.802   7.595  17.856  0.00  0.00    +0.000 NA
ATOM      4  C   UNL     1       3.189   6.575  18.411  0.00  0.00    +0.000 A 
ATOM      5  C   UNL     1       2.220   6.649  19.483  0.00  0.00    +0.000 A 
ATOM      6  N   UNL     1       1.801   7.879  19.951  0.00  0.00    +0.000 N 
ATOM      7  N   UNL     1       1.744   5.529  19.955  0.00  0.00    +0.000 NA
ATOM      8  C   UNL     1       2.153   4.299  19.399  0.00  0.00    +0.000 A 
ATOM      9  C   UNL     1       1.578   3.140  19.929  0.00  0.00    +0.000 A 
ATOM     10  C   UNL     1       1.897   1.887  19.420  0.00  0.00    +0.000 A 
ATOM     11  C   UNL     1       2.814   1.776  18.377  0.00  0.00    +0.000 A 
ATOM     12  C   UNL     1       3.405   2.918  17.828  0.00  0.00    +0.000 A 
ATOM     13  C   UNL     1       3.079   4.176  18.336  0.00  0.00    +0.000 A 
ATOM     14  N   UNL     1       3.604   5.393  17.856  0.00  0.00    +0.000 N 
ATOM     15  H   UNL     1       2.318   8.673  19.577  0.00  0.00    +0.000 HD
ENDROOT
BRANCH   6  16
ATOM     16  C   UNL     1       1.308   7.984  21.286  0.00  0.00    +0.000 C 
ATOM     17  C   UNL     1       1.535   9.364  21.946  0.00  0.00    +0.000 C 
ATOM     18  C   UNL     1       0.075   9.309  22.439  0.00  0.00    +0.000 C 
ATOM     19  C   UNL     1      -0.208   8.299  21.312  0.00  0.00    +0.000 C 
ENDBRANCH   6  16
BRANCH   1  21
ATOM     20  C   UNL     1       6.544   4.425  16.440  0.00  0.00    +0.000 C 
ATOM     21  C   UNL     1       5.220   4.924  15.882  0.00  0.00    +0.000 C 
ENDBRANCH   1  21
TORSDOF 2
ENDMDL
MODEL 7
REMARK VINA RESULT:      -7.0      1.854      5.280
REMARK  Name = 
REMARK  3 active torsions:
REMARK  status: ('A' for Active; 'I' for Inactive)
REMARK    1  A    between atoms: C_1  and  C_2
REMARK    2  A    between atoms: C_2  and  C_3
REMARK    3  A    between atoms: N_8  and  C_9
REMARK                            x       y       z     vdW  Elec       q    Type
REMARK                         _______ _______ _______ _____ _____    ______ ____
ROOT
ATOM      1  C   UNL     1       2.649   3.649  19.518  0.00  0.00    +0.000 A 
ATOM      2  N   UNL     1       1.781   4.041  20.437  0.00  0.00    +0.000 NA
ATOM      3  N   UNL     1       1.631   5.395  20.353  0.00  0.00    +0.000 NA
ATOM      4  C   UNL     1       2.403   5.808  19.374  0.00  0.00    +0.000 A 
ATOM      5  C   UNL     1       2.550   7.177  18.930  0.00  0.00    +0.000 A 
ATOM      6  N   UNL     1       1.912   8.195  19.611  0.00  0.00    +0.000 N 
ATOM      7  N   UNL     1       3.324   7.407  17.905  0.00  0.00    +0.000 NA
ATOM      8  C   UNL     1       4.008   6.341  17.285  0.00  0.00    +0.000 A 
ATOM      9  C   UNL     1       4.847   6.663  16.213  0.00  0.00    +0.000 A 
ATOM     10  C   UNL     1       5.586   5.681  15.564  0.00  0.00    +0.000 A 
ATOM     11  C   UNL     1       5.483   4.353  15.973  0.00  0.00    +0.000 A 
ATOM     12  C   UNL     1       4.652   4.002  17.041  0.00  0.00    +0.000 A 
ATOM     13  C   UNL     1       3.915   4.990  17.695  0.00  0.00    +0.000 A 
ATOM     14  N   UNL     1       3.055   4.755  18.787  0.00  0.00    +0.000 N 
ATOM     15  H   UNL     1       1.258   7.882  20.326  0.00  0.00    +0.000 HD
ENDROOT
BRANCH   6  16
ATOM     16  C   UNL     1       1.601   9.404  18.919  0.00  0.00    +0.000 C 
ATOM     17  C   UNL     1       0.404   9.296  17.946  0.00  0.00    +0.000 C 
ATOM     18  C   UNL     1      -0.118  10.627  18.525  0.00  0.00    +0.000 C 
ATOM     19  C   UNL     1       0.725  10.346  19.783  0.00  0.00    +0.000 C 
ENDBRANCH   6  16
BRANCH   1  21
ATOM     20  C   UNL     1       4.431   2.016  20.084  0.00  0.00    +0.000 C 
ATOM     21  C   UNL     1       3.092   2.234  19.396  0.00  0.00    +0.000 C 
ENDBRANCH   1  21
TORSDOF 2
ENDMDL
MODEL 8
REMARK VINA RESULT:      -6.8      2.024      5.728
REMARK  Name = 
REMARK  3 active torsions:
REMARK  status: ('A' for Active; 'I' for Inactive)
REMARK    1  A    between atoms: C_1  and  C_2
REMARK    2  A    between atoms: C_2  and  C_3
REMARK    3  A    between atoms: N_8  and  C_9
REMARK                            x       y       z     vdW  Elec       q    Type
REMARK                         _______ _______ _______ _____ _____    ______ ____
ROOT
ATOM      1  C   UNL     1       5.466   5.538  16.914  0.00  0.00    +0.000 A 
ATOM      2  N   UNL     1       5.562   6.635  16.180  0.00  0.00    +0.000 NA
ATOM      3  N   UNL     1       4.555   7.489  16.529  0.00  0.00    +0.000 NA
ATOM      4  C   UNL     1       3.866   6.903  17.480  0.00  0.00    +0.000 A 
ATOM      5  C   UNL     1       2.710   7.455  18.152  0.00  0.00    +0.000 A 
ATOM      6  N   UNL     1       2.187   8.666  17.743  0.00  0.00    +0.000 N 
ATOM      7  N   UNL     1       2.172   6.757  19.115  0.00  0.00    +0.000 NA
ATOM      8  C   UNL     1       2.701   5.494  19.452  0.00  0.00    +0.000 A 
ATOM      9  C   UNL     1       2.055   4.786  20.470  0.00  0.00    +0.000 A 
ATOM     10  C   UNL     1       2.488   3.519  20.845  0.00  0.00    +0.000 A 
ATOM     11  C   UNL     1       3.589   2.947  20.210  0.00  0.00    +0.000 A 
ATOM     12  C   UNL     1       4.254   3.633  19.189  0.00  0.00    +0.000 A 
ATOM     13  C   UNL     1       3.814   4.902  18.810  0.00  0.00    +0.000 A 
ATOM     14  N   UNL     1       4.400   5.679  17.790  0.00  0.00    +0.000 N 
ATOM     15  H   UNL     1       2.752   9.161  17.055  0.00  0.00    +0.000 HD
ENDROOT
BRANCH   6  16
ATOM     16  C   UNL     1       1.447   9.454  18.676  0.00  0.00    +0.000 C 
ATOM     17  C   UNL     1       1.723  10.973  18.592  0.00  0.00    +0.000 C 
ATOM     18  C   UNL     1       0.199  11.199  18.662  0.00  0.00    +0.000 C 
ATOM     19  C   UNL     1       0.018   9.755  18.160  0.00  0.00    +0.000 C 
ENDBRANCH   6  16
BRANCH   1  21
ATOM     20  C   UNL     1       7.634   4.516  17.560  0.00  0.00    +0.000 C 
ATOM     21  C   UNL     1       6.371   4.373  16.724  0.00  0.00    +0.000 C 
ENDBRANCH   1  21
TORSDOF 2
ENDMDL
MODEL 9
REMARK VINA RESULT:      -6.8      2.208      5.857
REMARK  Name = 
REMARK  3 active torsions:
REMARK  status: ('A' for Active; 'I' for Inactive)
REMARK    1  A    between atoms: C_1  and  C_2
REMARK    2  A    between atoms: C_2  and  C_3
REMARK    3  A    between atoms: N_8  and  C_9
REMARK                            x       y       z     vdW  Elec       q    Type
REMARK                         _______ _______ _______ _____ _____    ______ ____
ROOT
ATOM      1  C   UNL     1       5.926   5.557  16.773  0.00  0.00    +0.000 A 
ATOM      2  N   UNL     1       6.295   6.822  16.651  0.00  0.00    +0.000 NA
ATOM      3  N   UNL     1       5.243   7.624  16.987  0.00  0.00    +0.000 NA
ATOM      4  C   UNL     1       4.249   6.834  17.321  0.00  0.00    +0.000 A 
ATOM      5  C   UNL     1       2.936   7.260  17.754  0.00  0.00    +0.000 A 
ATOM      6  N   UNL     1       2.612   8.603  17.757  0.00  0.00    +0.000 N 
ATOM      7  N   UNL     1       2.077   6.339  18.099  0.00  0.00    +0.000 NA
ATOM      8  C   UNL     1       2.433   4.977  18.015  0.00  0.00    +0.000 A 
ATOM      9  C   UNL     1       1.453   4.043  18.368  0.00  0.00    +0.000 A 
ATOM     10  C   UNL     1       1.705   2.678  18.284  0.00  0.00    +0.000 A 
ATOM     11  C   UNL     1       2.952   2.229  17.856  0.00  0.00    +0.000 A 
ATOM     12  C   UNL     1       3.950   3.140  17.497  0.00  0.00    +0.000 A 
ATOM     13  C   UNL     1       3.694   4.510  17.577  0.00  0.00    +0.000 A 
ATOM     14  N   UNL     1       4.618   5.517  17.233  0.00  0.00    +0.000 N 
ATOM     15  H   UNL     1       3.394   9.227  17.566  0.00  0.00    +0.000 HD
ENDROOT
BRANCH   6  16
ATOM     16  C   UNL     1       1.597   9.071  18.644  0.00  0.00    +0.000 C 
ATOM     17  C   UNL     1       1.666  10.584  18.955  0.00  0.00    +0.000 C 
ATOM     18  C   UNL     1       0.143  10.646  18.725  0.00  0.00    +0.000 C 
ATOM     19  C   UNL     1       0.272   9.356  17.894  0.00  0.00    +0.000 C 
ENDBRANCH   6  16
BRANCH   1  21
ATOM     20  C   UNL     1       6.576   3.973  14.977  0.00  0.00    +0.000 C 
ATOM     21  C   UNL     1       6.823   4.428  16.406  0.00  0.00    +0.000 C 
ENDBRANCH   1  21
TORSDOF 2
ENDMDL
