MODEL 1
REMARK VINA RESULT:      -4.4      0.000      0.000
REMARK  Name = 
REMARK  6 active torsions:
REMARK  status: ('A' for Active; 'I' for Inactive)
REMARK    1  A    between atoms: C_1  and  C_2
REMARK    2  A    between atoms: C_2  and  C_3
REMARK    3  A    between atoms: C_3  and  C_4
REMARK    4  A    between atoms: C_3  and  C_6
REMARK    5  A    between atoms: C_4  and  O_5
REMARK    6  A    between atoms: C_6  and  C_7
REMARK                            x       y       z     vdW  Elec       q    Type
REMARK                         _______ _______ _______ _____ _____    ______ ____
ROOT
ATOM      1  C   UNL     1       1.840   2.895  18.288  0.00  0.00    +0.000 C 
ENDROOT
BRANCH   1   3
ATOM      2  C   UNL     1       2.676   5.309  17.995  0.00  0.00    +0.000 C 
ATOM      3  C   UNL     1       1.617   4.276  17.636  0.00  0.00    +0.000 C 
ENDBRANCH   1   3
BRANCH   1   4
ATOM      4  C   UNL     1       3.297   2.661  18.722  0.00  0.00    +0.000 C 
BRANCH   4   5
ATOM      5  O   UNL     1       3.842   1.507  18.100  0.00  0.00    +0.000 OA
ATOM      6  H   UNL     1       4.790   1.666  17.951  0.00  0.00    +0.000 HD
ENDBRANCH   4   5
ENDBRANCH   1   4
BRANCH   1   7
ATOM      7  C   UNL     1       0.908   2.701  19.507  0.00  0.00    +0.000 C 
BRANCH   7   8
ATOM      8  C   UNL     1       1.450   3.276  20.802  0.00  0.00    +0.000 C 
ATOM      9  F   UNL     1       1.047   4.564  20.937  0.00  0.00    +0.000 F 
ATOM     10  F   UNL     1       0.922   2.593  21.850  0.00  0.00    +0.000 F 
ENDBRANCH   7   8
ENDBRANCH   1   7
TORSDOF 5
ENDMDL
MODEL 2
REMARK VINA RESULT:      -4.3      5.223      6.187
REMARK  Name = 
REMARK  6 active torsions:
REMARK  status: ('A' for Active; 'I' for Inactive)
REMARK    1  A    between atoms: C_1  and  C_2
REMARK    2  A    between atoms: C_2  and  C_3
REMARK    3  A    between atoms: C_3  and  C_4
REMARK    4  A    between atoms: C_3  and  C_6
REMARK    5  A    between atoms: C_4  and  O_5
REMARK    6  A    between atoms: C_6  and  C_7
REMARK                            x       y       z     vdW  Elec       q    Type
REMARK                         _______ _______ _______ _____ _____    ______ ____
ROOT
ATOM      1  C   UNL     1       7.101   4.756  17.996  0.00  0.00    +0.000 C 
ENDROOT
BRANCH   1   3
ATOM      2  C   UNL     1       7.492   7.254  17.528  0.00  0.00    +0.000 C 
ATOM      3  C   UNL     1       7.635   6.106  18.518  0.00  0.00    +0.000 C 
ENDBRANCH   1   3
BRANCH   1   4
ATOM      4  C   UNL     1       5.651   4.474  18.427  0.00  0.00    +0.000 C 
BRANCH   4   5
ATOM      5  O   UNL     1       5.565   3.289  19.206  0.00  0.00    +0.000 OA
ATOM      6  H   UNL     1       5.426   2.542  18.600  0.00  0.00    +0.000 HD
ENDBRANCH   4   5
ENDBRANCH   1   4
BRANCH   1   7
ATOM      7  C   UNL     1       7.198   4.678  16.455  0.00  0.00    +0.000 C 
BRANCH   7   8
ATOM      8  C   UNL     1       5.899   4.303  15.768  0.00  0.00    +0.000 C 
ATOM      9  F   UNL     1       5.340   5.404  15.208  0.00  0.00    +0.000 F 
ATOM     10  F   UNL     1       6.163   3.442  14.752  0.00  0.00    +0.000 F 
ENDBRANCH   7   8
ENDBRANCH   1   7
TORSDOF 5
ENDMDL
MODEL 3
REMARK VINA RESULT:      -4.2      2.459      2.846
REMARK  Name = 
REMARK  6 active torsions:
REMARK  status: ('A' for Active; 'I' for Inactive)
REMARK    1  A    between atoms: C_1  and  C_2
REMARK    2  A    between atoms: C_2  and  C_3
REMARK    3  A    between atoms: C_3  and  C_4
REMARK    4  A    between atoms: C_3  and  C_6
REMARK    5  A    between atoms: C_4  and  O_5
REMARK    6  A    between atoms: C_6  and  C_7
REMARK                            x       y       z     vdW  Elec       q    Type
REMARK                         _______ _______ _______ _____ _____    ______ ____
ROOT
ATOM      1  C   UNL     1       2.123   4.638  19.404  0.00  0.00    +0.000 C 
ENDROOT
BRANCH   1   3
ATOM      2  C   UNL     1       2.577   3.303  17.253  0.00  0.00    +0.000 C 
ATOM      3  C   UNL     1       1.716   4.353  17.943  0.00  0.00    +0.000 C 
ENDBRANCH   1   3
BRANCH   1   4
ATOM      4  C   UNL     1       2.476   6.114  19.655  0.00  0.00    +0.000 C 
BRANCH   4   5
ATOM      5  O   UNL     1       1.980   6.558  20.909  0.00  0.00    +0.000 OA
ATOM      6  H   UNL     1       1.288   5.937  21.195  0.00  0.00    +0.000 HD
ENDBRANCH   4   5
ENDBRANCH   1   4
BRANCH   1   7
ATOM      7  C   UNL     1       1.008   4.208  20.385  0.00  0.00    +0.000 C 
BRANCH   7   8
ATOM      8  C   UNL     1       1.344   2.980  21.210  0.00  0.00    +0.000 C 
ATOM      9  F   UNL     1       1.710   1.963  20.392  0.00  0.00    +0.000 F 
ATOM     10  F   UNL     1       2.417   3.251  21.996  0.00  0.00    +0.000 F 
ENDBRANCH   7   8
ENDBRANCH   1   7
TORSDOF 5
ENDMDL
MODEL 4
REMARK VINA RESULT:      -4.2      1.628      1.730
REMARK  Name = 
REMARK  6 active torsions:
REMARK  status: ('A' for Active; 'I' for Inactive)
REMARK    1  A    between atoms: C_1  and  C_2
REMARK    2  A    between atoms: C_2  and  C_3
REMARK    3  A    between atoms: C_3  and  C_4
REMARK    4  A    between atoms: C_3  and  C_6
REMARK    5  A    between atoms: C_4  and  O_5
REMARK    6  A    between atoms: C_6  and  C_7
REMARK                            x       y       z     vdW  Elec       q    Type
REMARK                         _______ _______ _______ _____ _____    ______ ____
ROOT
ATOM      1  C   UNL     1       1.439   3.960  18.835  0.00  0.00    +0.000 C 
ENDROOT
BRANCH   1   3
ATOM      2  C   UNL     1       2.524   6.213  18.235  0.00  0.00    +0.000 C 
ATOM      3  C   UNL     1       2.741   4.772  18.678  0.00  0.00    +0.000 C 
ENDBRANCH   1   3
BRANCH   1   4
ATOM      4  C   UNL     1       1.584   2.495  18.388  0.00  0.00    +0.000 C 
BRANCH   4   5
ATOM      5  O   UNL     1       0.329   1.830  18.381  0.00  0.00    +0.000 OA
ATOM      6  H   UNL     1       0.453   0.954  18.785  0.00  0.00    +0.000 HD
ENDBRANCH   4   5
ENDBRANCH   1   4
BRANCH   1   7
ATOM      7  C   UNL     1       0.933   3.999  20.296  0.00  0.00    +0.000 C 
BRANCH   7   8
ATOM      8  C   UNL     1       1.805   3.238  21.276  0.00  0.00    +0.000 C 
ATOM      9  F   UNL     1       2.467   4.110  22.076  0.00  0.00    +0.000 F 
ATOM     10  F   UNL     1       1.016   2.489  22.089  0.00  0.00    +0.000 F 
ENDBRANCH   7   8
ENDBRANCH   1   7
TORSDOF 5
ENDMDL
MODEL 5
REMARK VINA RESULT:      -4.2      3.053      3.921
REMARK  Name = 
REMARK  6 active torsions:
REMARK  status: ('A' for Active; 'I' for Inactive)
REMARK    1  A    between atoms: C_1  and  C_2
REMARK    2  A    between atoms: C_2  and  C_3
REMARK    3  A    between atoms: C_3  and  C_4
REMARK    4  A    between atoms: C_3  and  C_6
REMARK    5  A    between atoms: C_4  and  O_5
REMARK    6  A    between atoms: C_6  and  C_7
REMARK                            x       y       z     vdW  Elec       q    Type
REMARK                         _______ _______ _______ _____ _____    ______ ____
ROOT
ATOM      1  C   UNL     1       1.571   4.346  19.553  0.00  0.00    +0.000 C 
ENDROOT
BRANCH   1   3
ATOM      2  C   UNL     1       1.661   2.761  21.577  0.00  0.00    +0.000 C 
ATOM      3  C   UNL     1       0.913   3.177  20.317  0.00  0.00    +0.000 C 
ENDBRANCH   1   3
BRANCH   1   4
ATOM      4  C   UNL     1       2.969   4.704  20.087  0.00  0.00    +0.000 C 
BRANCH   4   5
ATOM      5  O   UNL     1       3.172   6.110  20.098  0.00  0.00    +0.000 OA
ATOM      6  H   UNL     1       2.388   6.529  19.704  0.00  0.00    +0.000 HD
ENDBRANCH   4   5
ENDBRANCH   1   4
BRANCH   1   7
ATOM      7  C   UNL     1       1.668   4.035  18.041  0.00  0.00    +0.000 C 
BRANCH   7   8
ATOM      8  C   UNL     1       2.827   3.132  17.665  0.00  0.00    +0.000 C 
ATOM      9  F   UNL     1       2.360   1.911  17.306  0.00  0.00    +0.000 F 
ATOM     10  F   UNL     1       3.455   3.642  16.574  0.00  0.00    +0.000 F 
ENDBRANCH   7   8
ENDBRANCH   1   7
TORSDOF 5
ENDMDL
MODEL 6
REMARK VINA RESULT:      -4.2      1.474      1.742
REMARK  Name = 
REMARK  6 active torsions:
REMARK  status: ('A' for Active; 'I' for Inactive)
REMARK    1  A    between atoms: C_1  and  C_2
REMARK    2  A    between atoms: C_2  and  C_3
REMARK    3  A    between atoms: C_3  and  C_4
REMARK    4  A    between atoms: C_3  and  C_6
REMARK    5  A    between atoms: C_4  and  O_5
REMARK    6  A    between atoms: C_6  and  C_7
REMARK                            x       y       z     vdW  Elec       q    Type
REMARK                         _______ _______ _______ _____ _____    ______ ____
ROOT
ATOM      1  C   UNL     1       3.171   3.214  19.226  0.00  0.00    +0.000 C 
ENDROOT
BRANCH   1   3
ATOM      2  C   UNL     1       1.467   4.412  17.719  0.00  0.00    +0.000 C 
ATOM      3  C   UNL     1       2.732   3.568  17.790  0.00  0.00    +0.000 C 
ENDBRANCH   1   3
BRANCH   1   4
ATOM      4  C   UNL     1       4.699   3.193  19.401  0.00  0.00    +0.000 C 
BRANCH   4   5
ATOM      5  O   UNL     1       5.140   1.958  19.948  0.00  0.00    +0.000 OA
ATOM      6  H   UNL     1       4.365   1.377  20.038  0.00  0.00    +0.000 HD
ENDBRANCH   4   5
ENDBRANCH   1   4
BRANCH   1   7
ATOM      7  C   UNL     1       2.554   4.191  20.253  0.00  0.00    +0.000 C 
BRANCH   7   8
ATOM      8  C   UNL     1       1.884   3.514  21.432  0.00  0.00    +0.000 C 
ATOM      9  F   UNL     1       0.783   2.843  21.012  0.00  0.00    +0.000 F 
ATOM     10  F   UNL     1       2.728   2.586  21.953  0.00  0.00    +0.000 F 
ENDBRANCH   7   8
ENDBRANCH   1   7
TORSDOF 5
ENDMDL
MODEL 7
REMARK VINA RESULT:      -4.2      1.922      2.226
REMARK  Name = 
REMARK  6 active torsions:
REMARK  status: ('A' for Active; 'I' for Inactive)
REMARK    1  A    between atoms: C_1  and  C_2
REMARK    2  A    between atoms: C_2  and  C_3
REMARK    3  A    between atoms: C_3  and  C_4
REMARK    4  A    between atoms: C_3  and  C_6
REMARK    5  A    between atoms: C_4  and  O_5
REMARK    6  A    between atoms: C_6  and  C_7
REMARK                            x       y       z     vdW  Elec       q    Type
REMARK                         _______ _______ _______ _____ _____    ______ ____
ROOT
ATOM      1  C   UNL     1       3.322   3.340  17.745  0.00  0.00    +0.000 C 
ENDROOT
BRANCH   1   3
ATOM      2  C   UNL     1       4.999   4.462  16.151  0.00  0.00    +0.000 C 
ATOM      3  C   UNL     1       4.142   4.602  17.401  0.00  0.00    +0.000 C 
ENDBRANCH   1   3
BRANCH   1   4
ATOM      4  C   UNL     1       3.845   2.602  18.990  0.00  0.00    +0.000 C 
BRANCH   4   5
ATOM      5  O   UNL     1       5.187   2.965  19.280  0.00  0.00    +0.000 OA
ATOM      6  H   UNL     1       5.547   2.308  19.902  0.00  0.00    +0.000 HD
ENDBRANCH   4   5
ENDBRANCH   1   4
BRANCH   1   7
ATOM      7  C   UNL     1       1.829   3.686  17.948  0.00  0.00    +0.000 C 
BRANCH   7   8
ATOM      8  C   UNL     1       1.172   2.955  19.103  0.00  0.00    +0.000 C 
ATOM      9  F   UNL     1       0.593   3.849  19.943  0.00  0.00    +0.000 F 
ATOM     10  F   UNL     1       0.174   2.169  18.625  0.00  0.00    +0.000 F 
ENDBRANCH   7   8
ENDBRANCH   1   7
TORSDOF 5
ENDMDL
MODEL 8
REMARK VINA RESULT:      -4.2      1.662      2.061
REMARK  Name = 
REMARK  6 active torsions:
REMARK  status: ('A' for Active; 'I' for Inactive)
REMARK    1  A    between atoms: C_1  and  C_2
REMARK    2  A    between atoms: C_2  and  C_3
REMARK    3  A    between atoms: C_3  and  C_4
REMARK    4  A    between atoms: C_3  and  C_6
REMARK    5  A    between atoms: C_4  and  O_5
REMARK    6  A    between atoms: C_6  and  C_7
REMARK                            x       y       z     vdW  Elec       q    Type
REMARK                         _______ _______ _______ _____ _____    ______ ____
ROOT
ATOM      1  C   UNL     1       3.217   4.096  17.938  0.00  0.00    +0.000 C 
ENDROOT
BRANCH   1   3
ATOM      2  C   UNL     1       2.809   6.486  18.796  0.00  0.00    +0.000 C 
ATOM      3  C   UNL     1       3.609   5.587  17.864  0.00  0.00    +0.000 C 
ENDBRANCH   1   3
BRANCH   1   4
ATOM      4  C   UNL     1       3.828   3.372  19.150  0.00  0.00    +0.000 C 
BRANCH   4   5
ATOM      5  O   UNL     1       5.239   3.262  19.028  0.00  0.00    +0.000 OA
ATOM      6  H   UNL     1       5.553   2.655  19.721  0.00  0.00    +0.000 HD
ENDBRANCH   4   5
ENDBRANCH   1   4
BRANCH   1   7
ATOM      7  C   UNL     1       1.680   3.927  17.966  0.00  0.00    +0.000 C 
BRANCH   7   8
ATOM      8  C   UNL     1       1.170   3.068  19.107  0.00  0.00    +0.000 C 
ATOM      9  F   UNL     1       0.526   3.843  20.014  0.00  0.00    +0.000 F 
ATOM     10  F   UNL     1       0.252   2.189  18.628  0.00  0.00    +0.000 F 
ENDBRANCH   7   8
ENDBRANCH   1   7
TORSDOF 5
ENDMDL
MODEL 9
REMARK VINA RESULT:      -4.1      0.946      1.079
REMARK  Name = 
REMARK  6 active torsions:
REMARK  status: ('A' for Active; 'I' for Inactive)
REMARK    1  A    between atoms: C_1  and  C_2
REMARK    2  A    between atoms: C_2  and  C_3
REMARK    3  A    between atoms: C_3  and  C_4
REMARK    4  A    between atoms: C_3  and  C_6
REMARK    5  A    between atoms: C_4  and  O_5
REMARK    6  A    between atoms: C_6  and  C_7
REMARK                            x       y       z     vdW  Elec       q    Type
REMARK                         _______ _______ _______ _____ _____    ______ ____
ROOT
ATOM      1  C   UNL     1       2.696   2.857  18.598  0.00  0.00    +0.000 C 
ENDROOT
BRANCH   1   3
ATOM      2  C   UNL     1       2.682   5.338  17.923  0.00  0.00    +0.000 C 
ATOM      3  C   UNL     1       3.246   4.275  18.856  0.00  0.00    +0.000 C 
ENDBRANCH   1   3
BRANCH   1   4
ATOM      4  C   UNL     1       3.736   1.752  18.849  0.00  0.00    +0.000 C 
BRANCH   4   5
ATOM      5  O   UNL     1       4.898   2.269  19.479  0.00  0.00    +0.000 OA
ATOM      6  H   UNL     1       5.446   1.517  19.762  0.00  0.00    +0.000 HD
ENDBRANCH   4   5
ENDBRANCH   1   4
BRANCH   1   7
ATOM      7  C   UNL     1       1.443   2.582  19.461  0.00  0.00    +0.000 C 
BRANCH   7   8
ATOM      8  C   UNL     1       1.367   3.411  20.730  0.00  0.00    +0.000 C 
ATOM      9  F   UNL     1       0.447   4.395  20.582  0.00  0.00    +0.000 F 
ATOM     10  F   UNL     1       0.935   2.626  21.750  0.00  0.00    +0.000 F 
ENDBRANCH   7   8
ENDBRANCH   1   7
TORSDOF 5
ENDMDL
