MODEL 1
REMARK VINA RESULT:      -6.7      0.000      0.000
REMARK  Name = 
REMARK  4 active torsions:
REMARK  status: ('A' for Active; 'I' for Inactive)
REMARK    1  A    between atoms: C_1  and  C_2
REMARK    2  A    between atoms: C_7  and  C_8
REMARK    3  A    between atoms: N_10  and  O_11
REMARK    4  A    between atoms: C_12  and  C_13
REMARK                            x       y       z     vdW  Elec       q    Type
REMARK                         _______ _______ _______ _____ _____    ______ ____
ROOT
ATOM      1  C   UNL     1       6.543   4.294  13.944  0.00  0.00    +0.000 C 
ATOM      2  C   UNL     1       6.193   4.321  15.385  0.00  0.00    +0.000 A 
ATOM      3  C   UNL     1       7.032   4.582  16.487  0.00  0.00    +0.000 A 
ATOM      4  C   UNL     1       6.218   4.483  17.590  0.00  0.00    +0.000 A 
ATOM      5  N   UNL     1       6.441   4.618  18.925  0.00  0.00    +0.000 NA
ATOM      6  N   UNL     1       5.488   4.482  19.739  0.00  0.00    +0.000 NA
ATOM      7  C   UNL     1       4.190   4.206  19.318  0.00  0.00    +0.000 A 
ATOM      8  C   UNL     1       3.883   4.029  18.013  0.00  0.00    +0.000 A 
ATOM      9  C   UNL     1       2.565   3.672  17.393  0.00  0.00    +0.000 C 
ATOM     10  N   UNL     1       4.948   4.181  17.121  0.00  0.00    +0.000 N 
ATOM     11  N   UNL     1       4.936   4.073  15.766  0.00  0.00    +0.000 NA
ENDROOT
BRANCH   7  12
ATOM     12  C   UNL     1       3.180   4.081  20.445  0.00  0.00    +0.000 C 
ATOM     13  N   UNL     1       2.495   5.197  20.879  0.00  0.00    +0.000 N 
ATOM     14  N   UNL     1       2.916   2.910  20.964  0.00  0.00    +0.000 NA
ATOM     15  H   UNL     1       2.229   5.842  20.142  0.00  0.00    +0.000 HD
ATOM     16  H   UNL     1       1.711   4.913  21.460  0.00  0.00    +0.000 HD
BRANCH  14  17
ATOM     17  O   UNL     1       1.930   3.000  21.962  0.00  0.00    +0.000 OA
ATOM     18  H   UNL     1       1.807   2.065  22.211  0.00  0.00    +0.000 HD
ENDBRANCH  14  17
ENDBRANCH   7  12
TORSDOF 2
ENDMDL
MODEL 2
REMARK VINA RESULT:      -6.6      1.573      1.926
REMARK  Name = 
REMARK  4 active torsions:
REMARK  status: ('A' for Active; 'I' for Inactive)
REMARK    1  A    between atoms: C_1  and  C_2
REMARK    2  A    between atoms: C_7  and  C_8
REMARK    3  A    between atoms: N_10  and  O_11
REMARK    4  A    between atoms: C_12  and  C_13
REMARK                            x       y       z     vdW  Elec       q    Type
REMARK                         _______ _______ _______ _____ _____    ______ ____
ROOT
ATOM      1  C   UNL     1       6.254   4.694  14.748  0.00  0.00    +0.000 C 
ATOM      2  C   UNL     1       5.365   4.795  15.931  0.00  0.00    +0.000 A 
ATOM      3  C   UNL     1       4.925   5.954  16.600  0.00  0.00    +0.000 A 
ATOM      4  C   UNL     1       4.126   5.498  17.622  0.00  0.00    +0.000 A 
ATOM      5  N   UNL     1       3.427   6.125  18.606  0.00  0.00    +0.000 NA
ATOM      6  N   UNL     1       2.752   5.447  19.427  0.00  0.00    +0.000 NA
ATOM      7  C   UNL     1       2.681   4.058  19.358  0.00  0.00    +0.000 A 
ATOM      8  C   UNL     1       3.365   3.352  18.430  0.00  0.00    +0.000 A 
ATOM      9  C   UNL     1       3.450   1.866  18.248  0.00  0.00    +0.000 C 
ATOM     10  N   UNL     1       4.110   4.115  17.526  0.00  0.00    +0.000 N 
ATOM     11  N   UNL     1       4.880   3.683  16.492  0.00  0.00    +0.000 NA
ENDROOT
BRANCH   7  12
ATOM     12  C   UNL     1       1.816   3.422  20.431  0.00  0.00    +0.000 C 
ATOM     13  N   UNL     1       0.474   3.206  20.192  0.00  0.00    +0.000 N 
ATOM     14  N   UNL     1       2.351   3.025  21.557  0.00  0.00    +0.000 NA
ATOM     15  H   UNL     1       0.256   2.915  19.244  0.00  0.00    +0.000 HD
ATOM     16  H   UNL     1       0.097   2.578  20.897  0.00  0.00    +0.000 HD
BRANCH  14  17
ATOM     17  O   UNL     1       1.395   2.430  22.399  0.00  0.00    +0.000 OA
ATOM     18  H   UNL     1       1.396   3.033  23.166  0.00  0.00    +0.000 HD
ENDBRANCH  14  17
ENDBRANCH   7  12
TORSDOF 2
ENDMDL
MODEL 3
REMARK VINA RESULT:      -6.4      3.062      4.429
REMARK  Name = 
REMARK  4 active torsions:
REMARK  status: ('A' for Active; 'I' for Inactive)
REMARK    1  A    between atoms: C_1  and  C_2
REMARK    2  A    between atoms: C_7  and  C_8
REMARK    3  A    between atoms: N_10  and  O_11
REMARK    4  A    between atoms: C_12  and  C_13
REMARK                            x       y       z     vdW  Elec       q    Type
REMARK                         _______ _______ _______ _____ _____    ______ ____
ROOT
ATOM      1  C   UNL     1       1.922   9.512  17.962  0.00  0.00    +0.000 C 
ATOM      2  C   UNL     1       2.183   8.164  18.522  0.00  0.00    +0.000 A 
ATOM      3  C   UNL     1       1.780   7.638  19.765  0.00  0.00    +0.000 A 
ATOM      4  C   UNL     1       2.278   6.356  19.792  0.00  0.00    +0.000 A 
ATOM      5  N   UNL     1       2.229   5.359  20.716  0.00  0.00    +0.000 NA
ATOM      6  N   UNL     1       2.777   4.250  20.472  0.00  0.00    +0.000 NA
ATOM      7  C   UNL     1       3.431   3.996  19.270  0.00  0.00    +0.000 A 
ATOM      8  C   UNL     1       3.550   4.937  18.307  0.00  0.00    +0.000 A 
ATOM      9  C   UNL     1       4.263   4.856  16.990  0.00  0.00    +0.000 C 
ATOM     10  N   UNL     1       2.940   6.163  18.589  0.00  0.00    +0.000 N 
ATOM     11  N   UNL     1       2.889   7.278  17.813  0.00  0.00    +0.000 NA
ENDROOT
BRANCH   7  12
ATOM     12  C   UNL     1       4.023   2.602  19.162  0.00  0.00    +0.000 C 
ATOM     13  N   UNL     1       5.102   2.252  19.948  0.00  0.00    +0.000 N 
ATOM     14  N   UNL     1       3.476   1.715  18.371  0.00  0.00    +0.000 NA
ATOM     15  H   UNL     1       5.079   2.631  20.889  0.00  0.00    +0.000 HD
ATOM     16  H   UNL     1       5.227   1.244  19.928  0.00  0.00    +0.000 HD
BRANCH  14  17
ATOM     17  O   UNL     1       4.145   0.480  18.442  0.00  0.00    +0.000 OA
ATOM     18  H   UNL     1       4.942   0.650  17.905  0.00  0.00    +0.000 HD
ENDBRANCH  14  17
ENDBRANCH   7  12
TORSDOF 2
ENDMDL
MODEL 4
REMARK VINA RESULT:      -6.4      3.090      5.024
REMARK  Name = 
REMARK  4 active torsions:
REMARK  status: ('A' for Active; 'I' for Inactive)
REMARK    1  A    between atoms: C_1  and  C_2
REMARK    2  A    between atoms: C_7  and  C_8
REMARK    3  A    between atoms: N_10  and  O_11
REMARK    4  A    between atoms: C_12  and  C_13
REMARK                            x       y       z     vdW  Elec       q    Type
REMARK                         _______ _______ _______ _____ _____    ______ ____
ROOT
ATOM      1  C   UNL     1       0.777   8.998  20.982  0.00  0.00    +0.000 C 
ATOM      2  C   UNL     1       1.526   7.919  20.293  0.00  0.00    +0.000 A 
ATOM      3  C   UNL     1       2.220   7.978  19.068  0.00  0.00    +0.000 A 
ATOM      4  C   UNL     1       2.733   6.716  18.884  0.00  0.00    +0.000 A 
ATOM      5  N   UNL     1       3.479   6.150  17.898  0.00  0.00    +0.000 NA
ATOM      6  N   UNL     1       3.829   4.942  17.989  0.00  0.00    +0.000 NA
ATOM      7  C   UNL     1       3.487   4.153  19.083  0.00  0.00    +0.000 A 
ATOM      8  C   UNL     1       2.726   4.625  20.096  0.00  0.00    +0.000 A 
ATOM      9  C   UNL     1       2.218   3.906  21.310  0.00  0.00    +0.000 C 
ATOM     10  N   UNL     1       2.343   5.965  19.983  0.00  0.00    +0.000 N 
ATOM     11  N   UNL     1       1.593   6.703  20.844  0.00  0.00    +0.000 NA
ENDROOT
BRANCH   7  12
ATOM     12  C   UNL     1       4.004   2.728  19.012  0.00  0.00    +0.000 C 
ATOM     13  N   UNL     1       5.070   2.344  19.799  0.00  0.00    +0.000 N 
ATOM     14  N   UNL     1       3.404   1.848  18.251  0.00  0.00    +0.000 NA
ATOM     15  H   UNL     1       5.076   2.750  20.729  0.00  0.00    +0.000 HD
ATOM     16  H   UNL     1       5.142   1.330  19.808  0.00  0.00    +0.000 HD
BRANCH  14  17
ATOM     17  O   UNL     1       4.007   0.583  18.354  0.00  0.00    +0.000 OA
ATOM     18  H   UNL     1       3.252   0.018  18.604  0.00  0.00    +0.000 HD
ENDBRANCH  14  17
ENDBRANCH   7  12
TORSDOF 2
ENDMDL
MODEL 5
REMARK VINA RESULT:      -6.2      2.934      5.562
REMARK  Name = 
REMARK  4 active torsions:
REMARK  status: ('A' for Active; 'I' for Inactive)
REMARK    1  A    between atoms: C_1  and  C_2
REMARK    2  A    between atoms: C_7  and  C_8
REMARK    3  A    between atoms: N_10  and  O_11
REMARK    4  A    between atoms: C_12  and  C_13
REMARK                            x       y       z     vdW  Elec       q    Type
REMARK                         _______ _______ _______ _____ _____    ______ ____
ROOT
ATOM      1  C   UNL     1       1.499   2.669  21.761  0.00  0.00    +0.000 C 
ATOM      2  C   UNL     1       2.072   3.004  20.435  0.00  0.00    +0.000 A 
ATOM      3  C   UNL     1       1.584   2.663  19.158  0.00  0.00    +0.000 A 
ATOM      4  C   UNL     1       2.480   3.214  18.272  0.00  0.00    +0.000 A 
ATOM      5  N   UNL     1       2.559   3.223  16.914  0.00  0.00    +0.000 NA
ATOM      6  N   UNL     1       3.506   3.829  16.344  0.00  0.00    +0.000 NA
ATOM      7  C   UNL     1       4.485   4.512  17.060  0.00  0.00    +0.000 A 
ATOM      8  C   UNL     1       4.500   4.532  18.411  0.00  0.00    +0.000 A 
ATOM      9  C   UNL     1       5.500   5.161  19.335  0.00  0.00    +0.000 C 
ATOM     10  N   UNL     1       3.446   3.856  19.032  0.00  0.00    +0.000 N 
ATOM     11  N   UNL     1       3.199   3.718  20.362  0.00  0.00    +0.000 NA
ENDROOT
BRANCH   7  12
ATOM     12  C   UNL     1       5.539   5.181  16.196  0.00  0.00    +0.000 C 
ATOM     13  N   UNL     1       5.331   6.462  15.728  0.00  0.00    +0.000 N 
ATOM     14  N   UNL     1       6.668   4.568  15.943  0.00  0.00    +0.000 NA
ATOM     15  H   UNL     1       4.867   7.081  16.385  0.00  0.00    +0.000 HD
ATOM     16  H   UNL     1       6.204   6.842  15.372  0.00  0.00    +0.000 HD
BRANCH  14  17
ATOM     17  O   UNL     1       7.522   5.366  15.163  0.00  0.00    +0.000 OA
ATOM     18  H   UNL     1       7.657   6.143  15.738  0.00  0.00    +0.000 HD
ENDBRANCH  14  17
ENDBRANCH   7  12
TORSDOF 2
ENDMDL
MODEL 6
REMARK VINA RESULT:      -6.2      2.398      2.668
REMARK  Name = 
REMARK  4 active torsions:
REMARK  status: ('A' for Active; 'I' for Inactive)
REMARK    1  A    between atoms: C_1  and  C_2
REMARK    2  A    between atoms: C_7  and  C_8
REMARK    3  A    between atoms: N_10  and  O_11
REMARK    4  A    between atoms: C_12  and  C_13
REMARK                            x       y       z     vdW  Elec       q    Type
REMARK                         _______ _______ _______ _____ _____    ______ ____
ROOT
ATOM      1  C   UNL     1       7.675   7.746  17.482  0.00  0.00    +0.000 C 
ATOM      2  C   UNL     1       6.770   6.659  17.926  0.00  0.00    +0.000 A 
ATOM      3  C   UNL     1       7.104   5.435  18.539  0.00  0.00    +0.000 A 
ATOM      4  C   UNL     1       5.904   4.796  18.744  0.00  0.00    +0.000 A 
ATOM      5  N   UNL     1       5.573   3.592  19.284  0.00  0.00    +0.000 NA
ATOM      6  N   UNL     1       4.362   3.250  19.360  0.00  0.00    +0.000 NA
ATOM      7  C   UNL     1       3.331   4.074  18.918  0.00  0.00    +0.000 A 
ATOM      8  C   UNL     1       3.570   5.275  18.345  0.00  0.00    +0.000 A 
ATOM      9  C   UNL     1       2.595   6.256  17.766  0.00  0.00    +0.000 C 
ATOM     10  N   UNL     1       4.916   5.643  18.265  0.00  0.00    +0.000 N 
ATOM     11  N   UNL     1       5.451   6.784  17.754  0.00  0.00    +0.000 NA
ENDROOT
BRANCH   7  12
ATOM     12  C   UNL     1       1.941   3.489  19.097  0.00  0.00    +0.000 C 
ATOM     13  N   UNL     1       1.162   3.886  20.164  0.00  0.00    +0.000 N 
ATOM     14  N   UNL     1       1.460   2.655  18.212  0.00  0.00    +0.000 NA
ATOM     15  H   UNL     1       1.241   4.870  20.402  0.00  0.00    +0.000 HD
ATOM     16  H   UNL     1       0.201   3.589  20.016  0.00  0.00    +0.000 HD
BRANCH  14  17
ATOM     17  O   UNL     1       0.151   2.259  18.536  0.00  0.00    +0.000 OA
ATOM     18  H   UNL     1       0.099   2.486  19.484  0.00  0.00    +0.000 HD
ENDBRANCH  14  17
ENDBRANCH   7  12
TORSDOF 2
ENDMDL
MODEL 7
REMARK VINA RESULT:      -6.2      0.639      1.055
REMARK  Name = 
REMARK  4 active torsions:
REMARK  status: ('A' for Active; 'I' for Inactive)
REMARK    1  A    between atoms: C_1  and  C_2
REMARK    2  A    between atoms: C_7  and  C_8
REMARK    3  A    between atoms: N_10  and  O_11
REMARK    4  A    between atoms: C_12  and  C_13
REMARK                            x       y       z     vdW  Elec       q    Type
REMARK                         _______ _______ _______ _____ _____    ______ ____
ROOT
ATOM      1  C   UNL     1       6.717   4.488  13.537  0.00  0.00    +0.000 C 
ATOM      2  C   UNL     1       6.401   4.401  14.983  0.00  0.00    +0.000 A 
ATOM      3  C   UNL     1       7.246   4.657  16.082  0.00  0.00    +0.000 A 
ATOM      4  C   UNL     1       6.469   4.431  17.193  0.00  0.00    +0.000 A 
ATOM      5  N   UNL     1       6.714   4.502  18.530  0.00  0.00    +0.000 NA
ATOM      6  N   UNL     1       5.794   4.245  19.352  0.00  0.00    +0.000 NA
ATOM      7  C   UNL     1       4.510   3.898  18.941  0.00  0.00    +0.000 A 
ATOM      8  C   UNL     1       4.185   3.778  17.634  0.00  0.00    +0.000 A 
ATOM      9  C   UNL     1       2.882   3.361  17.019  0.00  0.00    +0.000 C 
ATOM     10  N   UNL     1       5.214   4.064  16.732  0.00  0.00    +0.000 N 
ATOM     11  N   UNL     1       5.176   4.037  15.373  0.00  0.00    +0.000 NA
ENDROOT
BRANCH   7  12
ATOM     12  C   UNL     1       3.540   3.630  20.078  0.00  0.00    +0.000 C 
ATOM     13  N   UNL     1       3.584   2.425  20.748  0.00  0.00    +0.000 N 
ATOM     14  N   UNL     1       2.703   4.560  20.461  0.00  0.00    +0.000 NA
ATOM     15  H   UNL     1       4.519   2.057  20.893  0.00  0.00    +0.000 HD
ATOM     16  H   UNL     1       3.045   2.491  21.607  0.00  0.00    +0.000 HD
BRANCH  14  17
ATOM     17  O   UNL     1       1.921   4.132  21.548  0.00  0.00    +0.000 OA
ATOM     18  H   UNL     1       1.081   3.894  21.112  0.00  0.00    +0.000 HD
ENDBRANCH  14  17
ENDBRANCH   7  12
TORSDOF 2
ENDMDL
MODEL 8
REMARK VINA RESULT:      -6.2      3.156      5.199
REMARK  Name = 
REMARK  4 active torsions:
REMARK  status: ('A' for Active; 'I' for Inactive)
REMARK    1  A    between atoms: C_1  and  C_2
REMARK    2  A    between atoms: C_7  and  C_8
REMARK    3  A    between atoms: N_10  and  O_11
REMARK    4  A    between atoms: C_12  and  C_13
REMARK                            x       y       z     vdW  Elec       q    Type
REMARK                         _______ _______ _______ _____ _____    ______ ____
ROOT
ATOM      1  C   UNL     1       0.731   3.130  20.621  0.00  0.00    +0.000 C 
ATOM      2  C   UNL     1       2.058   3.520  20.085  0.00  0.00    +0.000 A 
ATOM      3  C   UNL     1       3.285   2.838  20.202  0.00  0.00    +0.000 A 
ATOM      4  C   UNL     1       4.196   3.621  19.533  0.00  0.00    +0.000 A 
ATOM      5  N   UNL     1       5.532   3.503  19.303  0.00  0.00    +0.000 NA
ATOM      6  N   UNL     1       6.135   4.384  18.633  0.00  0.00    +0.000 NA
ATOM      7  C   UNL     1       5.474   5.486  18.097  0.00  0.00    +0.000 A 
ATOM      8  C   UNL     1       4.154   5.697  18.298  0.00  0.00    +0.000 A 
ATOM      9  C   UNL     1       3.303   6.847  17.850  0.00  0.00    +0.000 C 
ATOM     10  N   UNL     1       3.498   4.714  19.044  0.00  0.00    +0.000 N 
ATOM     11  N   UNL     1       2.185   4.656  19.392  0.00  0.00    +0.000 NA
ENDROOT
BRANCH   7  12
ATOM     12  C   UNL     1       6.369   6.433  17.318  0.00  0.00    +0.000 C 
ATOM     13  N   UNL     1       6.211   6.560  15.953  0.00  0.00    +0.000 N 
ATOM     14  N   UNL     1       7.249   7.172  17.945  0.00  0.00    +0.000 NA
ATOM     15  H   UNL     1       5.248   6.530  15.635  0.00  0.00    +0.000 HD
ATOM     16  H   UNL     1       6.713   7.381  15.625  0.00  0.00    +0.000 HD
BRANCH  14  17
ATOM     17  O   UNL     1       7.948   8.006  17.055  0.00  0.00    +0.000 OA
ATOM     18  H   UNL     1       7.643   7.678  16.188  0.00  0.00    +0.000 HD
ENDBRANCH  14  17
ENDBRANCH   7  12
TORSDOF 2
ENDMDL
MODEL 9
REMARK VINA RESULT:      -6.2      3.021      4.505
REMARK  Name = 
REMARK  4 active torsions:
REMARK  status: ('A' for Active; 'I' for Inactive)
REMARK    1  A    between atoms: C_1  and  C_2
REMARK    2  A    between atoms: C_7  and  C_8
REMARK    3  A    between atoms: N_10  and  O_11
REMARK    4  A    between atoms: C_12  and  C_13
REMARK                            x       y       z     vdW  Elec       q    Type
REMARK                         _______ _______ _______ _____ _____    ______ ____
ROOT
ATOM      1  C   UNL     1       1.353   9.545  19.292  0.00  0.00    +0.000 C 
ATOM      2  C   UNL     1       2.073   8.309  18.900  0.00  0.00    +0.000 A 
ATOM      3  C   UNL     1       2.917   8.101  17.791  0.00  0.00    +0.000 A 
ATOM      4  C   UNL     1       3.322   6.790  17.889  0.00  0.00    +0.000 A 
ATOM      5  N   UNL     1       4.127   6.006  17.122  0.00  0.00    +0.000 NA
ATOM      6  N   UNL     1       4.342   4.810  17.456  0.00  0.00    +0.000 NA
ATOM      7  C   UNL     1       3.790   4.252  18.606  0.00  0.00    +0.000 A 
ATOM      8  C   UNL     1       2.957   4.950  19.411  0.00  0.00    +0.000 A 
ATOM      9  C   UNL     1       2.233   4.494  20.643  0.00  0.00    +0.000 C 
ATOM     10  N   UNL     1       2.725   6.274  19.029  0.00  0.00    +0.000 N 
ATOM     11  N   UNL     1       1.950   7.206  19.645  0.00  0.00    +0.000 NA
ENDROOT
BRANCH   7  12
ATOM     12  C   UNL     1       4.168   2.801  18.841  0.00  0.00    +0.000 C 
ATOM     13  N   UNL     1       5.106   2.483  19.802  0.00  0.00    +0.000 N 
ATOM     14  N   UNL     1       3.565   1.848  18.177  0.00  0.00    +0.000 NA
ATOM     15  H   UNL     1       5.057   3.049  20.642  0.00  0.00    +0.000 HD
ATOM     16  H   UNL     1       5.076   1.485  19.992  0.00  0.00    +0.000 HD
BRANCH  14  17
ATOM     17  O   UNL     1       4.027   0.579  18.564  0.00  0.00    +0.000 OA
ATOM     18  H   UNL     1       4.623   0.797  19.305  0.00  0.00    +0.000 HD
ENDBRANCH  14  17
ENDBRANCH   7  12
TORSDOF 2
ENDMDL
