MODEL 1
REMARK VINA RESULT:      -9.0      0.000      0.000
REMARK  Name = 
REMARK  5 active torsions:
REMARK  status: ('A' for Active; 'I' for Inactive)
REMARK    1  A    between atoms: C_1  and  C_2
REMARK    2  A    between atoms: N_4  and  C_22
REMARK    3  A    between atoms: C_7  and  C_8
REMARK    4  A    between atoms: C_9  and  C_10
REMARK    5  A    between atoms: C_10  and  C_12
REMARK                            x       y       z     vdW  Elec       q    Type
REMARK                         _______ _______ _______ _____ _____    ______ ____
ROOT
ATOM      1  C   UNL     1       1.677   2.276  19.149  0.00  0.00    +0.000 C 
ATOM      2  C   UNL     1       3.105   2.617  18.774  0.00  0.00    +0.000 C 
ATOM      3  O   UNL     1       3.913   1.689  18.648  0.00  0.00    +0.000 OA
ATOM      4  N   UNL     1       3.424   3.937  18.472  0.00  0.00    +0.000 N 
ATOM      5  C   UNL     1       2.819   5.051  19.052  0.00  0.00    +0.000 A 
ATOM      6  N   UNL     1       2.705   6.240  18.489  0.00  0.00    +0.000 NA
ATOM      7  C   UNL     1       2.070   7.114  19.357  0.00  0.00    +0.000 A 
ATOM      8  C   UNL     1       1.762   6.606  20.597  0.00  0.00    +0.000 A 
ATOM      9  S   UNL     1       2.299   4.988  20.691  0.00  0.00    +0.000 S 
ENDROOT
BRANCH   4  10
ATOM     10  C   UNL     1       4.557   4.205  17.639  0.00  0.00    +0.000 A 
ATOM     11  C   UNL     1       4.467   4.045  16.244  0.00  0.00    +0.000 A 
ATOM     12  C   UNL     1       5.593   4.234  15.434  0.00  0.00    +0.000 A 
ATOM     13  C   UNL     1       6.817   4.544  16.016  0.00  0.00    +0.000 A 
ATOM     14  F   UNL     1       7.900   4.692  15.240  0.00  0.00    +0.000 F 
ATOM     15  C   UNL     1       6.937   4.690  17.389  0.00  0.00    +0.000 A 
ATOM     16  C   UNL     1       5.807   4.534  18.190  0.00  0.00    +0.000 A 
ATOM     17  F   UNL     1       5.965   4.614  19.520  0.00  0.00    +0.000 F 
ENDBRANCH   4  10
BRANCH   7  18
ATOM     18  C   UNL     1       1.801   8.456  18.955  0.00  0.00    +0.000 C 
ATOM     19  C   UNL     1       1.034   9.301  19.651  0.00  0.00    +0.000 C 
BRANCH  19  20
ATOM     20  C   UNL     1       0.755  10.666  19.131  0.00  0.00    +0.000 C 
ATOM     21  O   UNL     1       1.625  11.520  19.049  0.00  0.00    +0.000 OA
BRANCH  20  22
ATOM     22  C   UNL     1      -0.645  10.959  18.734  0.00  0.00    +0.000 A 
ATOM     23  C   UNL     1      -1.489  11.740  19.540  0.00  0.00    +0.000 A 
ATOM     24  C   UNL     1      -2.803  11.988  19.140  0.00  0.00    +0.000 A 
ATOM     25  C   UNL     1      -3.273  11.450  17.947  0.00  0.00    +0.000 A 
ATOM     26  F   UNL     1      -4.539  11.703  17.586  0.00  0.00    +0.000 F 
ATOM     27  C   UNL     1      -2.444  10.661  17.149  0.00  0.00    +0.000 A 
ATOM     28 BR   UNL     1      -3.089   9.928  15.530  0.00  0.00    +0.000 Br
ATOM     29  C   UNL     1      -1.130  10.407  17.543  0.00  0.00    +0.000 A 
ENDBRANCH  20  22
ENDBRANCH  19  20
ENDBRANCH   7  18
TORSDOF 4
ENDMDL
MODEL 2
REMARK VINA RESULT:      -8.9      0.913      1.062
REMARK  Name = 
REMARK  5 active torsions:
REMARK  status: ('A' for Active; 'I' for Inactive)
REMARK    1  A    between atoms: C_1  and  C_2
REMARK    2  A    between atoms: N_4  and  C_22
REMARK    3  A    between atoms: C_7  and  C_8
REMARK    4  A    between atoms: C_9  and  C_10
REMARK    5  A    between atoms: C_10  and  C_12
REMARK                            x       y       z     vdW  Elec       q    Type
REMARK                         _______ _______ _______ _____ _____    ______ ____
ROOT
ATOM      1  C   UNL     1       1.428   2.124  18.716  0.00  0.00    +0.000 C 
ATOM      2  C   UNL     1       2.877   2.442  18.403  0.00  0.00    +0.000 C 
ATOM      3  O   UNL     1       3.633   1.506  18.122  0.00  0.00    +0.000 OA
ATOM      4  N   UNL     1       3.271   3.775  18.329  0.00  0.00    +0.000 N 
ATOM      5  C   UNL     1       2.723   4.807  19.090  0.00  0.00    +0.000 A 
ATOM      6  N   UNL     1       2.680   6.078  18.737  0.00  0.00    +0.000 NA
ATOM      7  C   UNL     1       2.087   6.827  19.740  0.00  0.00    +0.000 A 
ATOM      8  C   UNL     1       1.740   6.135  20.877  0.00  0.00    +0.000 A 
ATOM      9  S   UNL     1       2.186   4.497  20.695  0.00  0.00    +0.000 S 
ENDROOT
BRANCH   4  10
ATOM     10  C   UNL     1       4.424   4.116  17.553  0.00  0.00    +0.000 A 
ATOM     11  C   UNL     1       4.369   4.086  16.147  0.00  0.00    +0.000 A 
ATOM     12  C   UNL     1       5.515   4.346  15.386  0.00  0.00    +0.000 A 
ATOM     13  C   UNL     1       6.724   4.597  16.025  0.00  0.00    +0.000 A 
ATOM     14  F   UNL     1       7.826   4.813  15.294  0.00  0.00    +0.000 F 
ATOM     15  C   UNL     1       6.810   4.615  17.408  0.00  0.00    +0.000 A 
ATOM     16  C   UNL     1       5.661   4.389  18.163  0.00  0.00    +0.000 A 
ATOM     17  F   UNL     1       5.785   4.344  19.499  0.00  0.00    +0.000 F 
ENDBRANCH   4  10
BRANCH   7  18
ATOM     18  C   UNL     1       1.896   8.231  19.571  0.00  0.00    +0.000 C 
ATOM     19  C   UNL     1       1.620   8.807  18.397  0.00  0.00    +0.000 C 
BRANCH  19  20
ATOM     20  C   UNL     1       1.494  10.286  18.296  0.00  0.00    +0.000 C 
ATOM     21  O   UNL     1       2.414  10.991  17.911  0.00  0.00    +0.000 OA
BRANCH  20  22
ATOM     22  C   UNL     1       0.197  10.878  18.710  0.00  0.00    +0.000 A 
ATOM     23  C   UNL     1       0.115  11.812  19.755  0.00  0.00    +0.000 A 
ATOM     24  C   UNL     1      -1.122  12.341  20.123  0.00  0.00    +0.000 A 
ATOM     25  C   UNL     1      -2.272  11.932  19.456  0.00  0.00    +0.000 A 
ATOM     26  F   UNL     1      -3.448  12.456  19.829  0.00  0.00    +0.000 F 
ATOM     27  C   UNL     1      -2.200  10.995  18.427  0.00  0.00    +0.000 A 
ATOM     28 BR   UNL     1      -3.766  10.439  17.526  0.00  0.00    +0.000 Br
ATOM     29  C   UNL     1      -0.967  10.459  18.053  0.00  0.00    +0.000 A 
ENDBRANCH  20  22
ENDBRANCH  19  20
ENDBRANCH   7  18
TORSDOF 4
ENDMDL
MODEL 3
REMARK VINA RESULT:      -8.7      1.134      1.447
REMARK  Name = 
REMARK  5 active torsions:
REMARK  status: ('A' for Active; 'I' for Inactive)
REMARK    1  A    between atoms: C_1  and  C_2
REMARK    2  A    between atoms: N_4  and  C_22
REMARK    3  A    between atoms: C_7  and  C_8
REMARK    4  A    between atoms: C_9  and  C_10
REMARK    5  A    between atoms: C_10  and  C_12
REMARK                            x       y       z     vdW  Elec       q    Type
REMARK                         _______ _______ _______ _____ _____    ______ ____
ROOT
ATOM      1  C   UNL     1       1.717   2.242  19.159  0.00  0.00    +0.000 C 
ATOM      2  C   UNL     1       3.135   2.600  18.765  0.00  0.00    +0.000 C 
ATOM      3  O   UNL     1       3.953   1.683  18.629  0.00  0.00    +0.000 OA
ATOM      4  N   UNL     1       3.433   3.925  18.458  0.00  0.00    +0.000 N 
ATOM      5  C   UNL     1       2.822   5.031  19.045  0.00  0.00    +0.000 A 
ATOM      6  N   UNL     1       2.685   6.218  18.483  0.00  0.00    +0.000 NA
ATOM      7  C   UNL     1       2.050   7.084  19.358  0.00  0.00    +0.000 A 
ATOM      8  C   UNL     1       1.765   6.574  20.603  0.00  0.00    +0.000 A 
ATOM      9  S   UNL     1       2.324   4.963  20.691  0.00  0.00    +0.000 S 
ENDROOT
BRANCH   4  10
ATOM     10  C   UNL     1       4.551   4.206  17.610  0.00  0.00    +0.000 A 
ATOM     11  C   UNL     1       4.443   4.052  16.216  0.00  0.00    +0.000 A 
ATOM     12  C   UNL     1       5.555   4.254  15.390  0.00  0.00    +0.000 A 
ATOM     13  C   UNL     1       6.785   4.572  15.956  0.00  0.00    +0.000 A 
ATOM     14  F   UNL     1       7.855   4.733  15.166  0.00  0.00    +0.000 F 
ATOM     15  C   UNL     1       6.924   4.713  17.328  0.00  0.00    +0.000 A 
ATOM     16  C   UNL     1       5.807   4.544  18.144  0.00  0.00    +0.000 A 
ATOM     17  F   UNL     1       5.983   4.619  19.473  0.00  0.00    +0.000 F 
ENDBRANCH   4  10
BRANCH   7  18
ATOM     18  C   UNL     1       1.758   8.423  18.959  0.00  0.00    +0.000 C 
ATOM     19  C   UNL     1       1.071   9.289  19.709  0.00  0.00    +0.000 C 
BRANCH  19  20
ATOM     20  C   UNL     1       0.758  10.649  19.193  0.00  0.00    +0.000 C 
ATOM     21  O   UNL     1       1.619  11.506  19.059  0.00  0.00    +0.000 OA
BRANCH  20  22
ATOM     22  C   UNL     1      -0.662  10.931  18.867  0.00  0.00    +0.000 A 
ATOM     23  C   UNL     1      -1.270  10.406  17.716  0.00  0.00    +0.000 A 
ATOM     24  C   UNL     1      -2.605  10.700  17.435  0.00  0.00    +0.000 A 
ATOM     25  C   UNL     1      -3.325  11.521  18.297  0.00  0.00    +0.000 A 
ATOM     26  F   UNL     1      -4.606  11.787  18.005  0.00  0.00    +0.000 F 
ATOM     27  C   UNL     1      -2.723  12.057  19.435  0.00  0.00    +0.000 A 
ATOM     28 BR   UNL     1      -3.705  13.175  20.601  0.00  0.00    +0.000 Br
ATOM     29  C   UNL     1      -1.388  11.769  19.721  0.00  0.00    +0.000 A 
ENDBRANCH  20  22
ENDBRANCH  19  20
ENDBRANCH   7  18
TORSDOF 4
ENDMDL
MODEL 4
REMARK VINA RESULT:      -8.7      1.732      2.043
REMARK  Name = 
REMARK  5 active torsions:
REMARK  status: ('A' for Active; 'I' for Inactive)
REMARK    1  A    between atoms: C_1  and  C_2
REMARK    2  A    between atoms: N_4  and  C_22
REMARK    3  A    between atoms: C_7  and  C_8
REMARK    4  A    between atoms: C_9  and  C_10
REMARK    5  A    between atoms: C_10  and  C_12
REMARK                            x       y       z     vdW  Elec       q    Type
REMARK                         _______ _______ _______ _____ _____    ______ ____
ROOT
ATOM      1  C   UNL     1       1.596   1.991  18.932  0.00  0.00    +0.000 C 
ATOM      2  C   UNL     1       3.028   2.353  18.592  0.00  0.00    +0.000 C 
ATOM      3  O   UNL     1       3.822   1.434  18.356  0.00  0.00    +0.000 OA
ATOM      4  N   UNL     1       3.366   3.695  18.445  0.00  0.00    +0.000 N 
ATOM      5  C   UNL     1       2.779   4.742  19.153  0.00  0.00    +0.000 A 
ATOM      6  N   UNL     1       2.681   5.990  18.732  0.00  0.00    +0.000 NA
ATOM      7  C   UNL     1       2.062   6.766  19.698  0.00  0.00    +0.000 A 
ATOM      8  C   UNL     1       1.749   6.122  20.872  0.00  0.00    +0.000 A 
ATOM      9  S   UNL     1       2.262   4.497  20.776  0.00  0.00    +0.000 S 
ENDROOT
BRANCH   4  10
ATOM     10  C   UNL     1       4.501   4.041  17.644  0.00  0.00    +0.000 A 
ATOM     11  C   UNL     1       4.441   3.934  16.242  0.00  0.00    +0.000 A 
ATOM     12  C   UNL     1       5.571   4.200  15.461  0.00  0.00    +0.000 A 
ATOM     13  C   UNL     1       6.772   4.535  16.077  0.00  0.00    +0.000 A 
ATOM     14  F   UNL     1       7.860   4.757  15.328  0.00  0.00    +0.000 F 
ATOM     15  C   UNL     1       6.863   4.630  17.457  0.00  0.00    +0.000 A 
ATOM     16  C   UNL     1       5.727   4.397  18.230  0.00  0.00    +0.000 A 
ATOM     17  F   UNL     1       5.860   4.429  19.565  0.00  0.00    +0.000 F 
ENDBRANCH   4  10
BRANCH   7  18
ATOM     18  C   UNL     1       1.811   8.150  19.456  0.00  0.00    +0.000 C 
ATOM     19  C   UNL     1       1.960   8.734  18.263  0.00  0.00    +0.000 C 
BRANCH  19  20
ATOM     20  C   UNL     1       1.735  10.196  18.108  0.00  0.00    +0.000 C 
ATOM     21  O   UNL     1       2.532  10.918  17.528  0.00  0.00    +0.000 OA
BRANCH  20  22
ATOM     22  C   UNL     1       0.499  10.752  18.713  0.00  0.00    +0.000 A 
ATOM     23  C   UNL     1      -0.769  10.485  18.172  0.00  0.00    +0.000 A 
ATOM     24  C   UNL     1      -1.909  11.031  18.762  0.00  0.00    +0.000 A 
ATOM     25  C   UNL     1      -1.782  11.846  19.882  0.00  0.00    +0.000 A 
ATOM     26  F   UNL     1      -2.893  12.358  20.429  0.00  0.00    +0.000 F 
ATOM     27  C   UNL     1      -0.525  12.126  20.416  0.00  0.00    +0.000 A 
ATOM     28 BR   UNL     1      -0.357  13.238  21.936  0.00  0.00    +0.000 Br
ATOM     29  C   UNL     1       0.620  11.586  19.831  0.00  0.00    +0.000 A 
ENDBRANCH  20  22
ENDBRANCH  19  20
ENDBRANCH   7  18
TORSDOF 4
ENDMDL
MODEL 5
REMARK VINA RESULT:      -8.6      2.630      3.119
REMARK  Name = 
REMARK  5 active torsions:
REMARK  status: ('A' for Active; 'I' for Inactive)
REMARK    1  A    between atoms: C_1  and  C_2
REMARK    2  A    between atoms: N_4  and  C_22
REMARK    3  A    between atoms: C_7  and  C_8
REMARK    4  A    between atoms: C_9  and  C_10
REMARK    5  A    between atoms: C_10  and  C_12
REMARK                            x       y       z     vdW  Elec       q    Type
REMARK                         _______ _______ _______ _____ _____    ______ ____
ROOT
ATOM      1  C   UNL     1       2.465   3.237  17.234  0.00  0.00    +0.000 C 
ATOM      2  C   UNL     1       3.850   3.671  17.671  0.00  0.00    +0.000 C 
ATOM      3  O   UNL     1       4.814   2.972  17.336  0.00  0.00    +0.000 OA
ATOM      4  N   UNL     1       3.997   4.890  18.327  0.00  0.00    +0.000 N 
ATOM      5  C   UNL     1       3.045   5.453  19.176  0.00  0.00    +0.000 A 
ATOM      6  N   UNL     1       2.895   6.744  19.407  0.00  0.00    +0.000 NA
ATOM      7  C   UNL     1       1.870   6.944  20.318  0.00  0.00    +0.000 A 
ATOM      8  C   UNL     1       1.288   5.804  20.823  0.00  0.00    +0.000 A 
ATOM      9  S   UNL     1       2.059   4.436  20.153  0.00  0.00    +0.000 S 
ENDROOT
BRANCH   4  10
ATOM     10  C   UNL     1       5.263   5.555  18.280  0.00  0.00    +0.000 A 
ATOM     11  C   UNL     1       6.238   5.298  19.260  0.00  0.00    +0.000 A 
ATOM     12  C   UNL     1       7.449   6.001  19.260  0.00  0.00    +0.000 A 
ATOM     13  C   UNL     1       7.672   6.989  18.308  0.00  0.00    +0.000 A 
ATOM     14  F   UNL     1       8.818   7.683  18.330  0.00  0.00    +0.000 F 
ATOM     15  C   UNL     1       6.720   7.275  17.341  0.00  0.00    +0.000 A 
ATOM     16  C   UNL     1       5.530   6.550  17.323  0.00  0.00    +0.000 A 
ATOM     17  F   UNL     1       4.599   6.893  16.420  0.00  0.00    +0.000 F 
ENDBRANCH   4  10
BRANCH   7  18
ATOM     18  C   UNL     1       1.496   8.267  20.699  0.00  0.00    +0.000 C 
ATOM     19  C   UNL     1       0.751   8.548  21.773  0.00  0.00    +0.000 C 
BRANCH  19  20
ATOM     20  C   UNL     1       0.355   9.951  22.068  0.00  0.00    +0.000 C 
ATOM     21  O   UNL     1       0.259  10.372  23.211  0.00  0.00    +0.000 OA
BRANCH  20  22
ATOM     22  C   UNL     1       0.057  10.822  20.903  0.00  0.00    +0.000 A 
ATOM     23  C   UNL     1      -0.993  10.531  20.018  0.00  0.00    +0.000 A 
ATOM     24  C   UNL     1      -1.239  11.366  18.928  0.00  0.00    +0.000 A 
ATOM     25  C   UNL     1      -0.435  12.483  18.720  0.00  0.00    +0.000 A 
ATOM     26  F   UNL     1      -0.693  13.269  17.666  0.00  0.00    +0.000 F 
ATOM     27  C   UNL     1       0.618  12.770  19.588  0.00  0.00    +0.000 A 
ATOM     28 BR   UNL     1       1.710  14.286  19.299  0.00  0.00    +0.000 Br
ATOM     29  C   UNL     1       0.872  11.938  20.679  0.00  0.00    +0.000 A 
ENDBRANCH  20  22
ENDBRANCH  19  20
ENDBRANCH   7  18
TORSDOF 4
ENDMDL
MODEL 6
REMARK VINA RESULT:      -8.5      0.881      1.256
REMARK  Name = 
REMARK  5 active torsions:
REMARK  status: ('A' for Active; 'I' for Inactive)
REMARK    1  A    between atoms: C_1  and  C_2
REMARK    2  A    between atoms: N_4  and  C_22
REMARK    3  A    between atoms: C_7  and  C_8
REMARK    4  A    between atoms: C_9  and  C_10
REMARK    5  A    between atoms: C_10  and  C_12
REMARK                            x       y       z     vdW  Elec       q    Type
REMARK                         _______ _______ _______ _____ _____    ______ ____
ROOT
ATOM      1  C   UNL     1       1.701   2.238  19.640  0.00  0.00    +0.000 C 
ATOM      2  C   UNL     1       3.135   2.564  19.273  0.00  0.00    +0.000 C 
ATOM      3  O   UNL     1       3.951   1.636  19.231  0.00  0.00    +0.000 OA
ATOM      4  N   UNL     1       3.452   3.863  18.886  0.00  0.00    +0.000 N 
ATOM      5  C   UNL     1       2.826   5.009  19.373  0.00  0.00    +0.000 A 
ATOM      6  N   UNL     1       2.717   6.155  18.725  0.00  0.00    +0.000 NA
ATOM      7  C   UNL     1       2.056   7.082  19.515  0.00  0.00    +0.000 A 
ATOM      8  C   UNL     1       1.723   6.660  20.781  0.00  0.00    +0.000 A 
ATOM      9  S   UNL     1       2.269   5.057  21.001  0.00  0.00    +0.000 S 
ENDROOT
BRANCH   4  10
ATOM     10  C   UNL     1       4.601   4.081  18.062  0.00  0.00    +0.000 A 
ATOM     11  C   UNL     1       5.798   4.561  18.624  0.00  0.00    +0.000 A 
ATOM     12  C   UNL     1       6.901   4.846  17.810  0.00  0.00    +0.000 A 
ATOM     13  C   UNL     1       6.799   4.690  16.432  0.00  0.00    +0.000 A 
ATOM     14  F   UNL     1       7.845   4.996  15.653  0.00  0.00    +0.000 F 
ATOM     15  C   UNL     1       5.626   4.236  15.850  0.00  0.00    +0.000 A 
ATOM     16  C   UNL     1       4.541   3.921  16.667  0.00  0.00    +0.000 A 
ATOM     17  F   UNL     1       3.396   3.548  16.073  0.00  0.00    +0.000 F 
ENDBRANCH   4  10
BRANCH   7  18
ATOM     18  C   UNL     1       1.787   8.390  19.014  0.00  0.00    +0.000 C 
ATOM     19  C   UNL     1       1.106   9.320  19.690  0.00  0.00    +0.000 C 
BRANCH  19  20
ATOM     20  C   UNL     1       0.817  10.641  19.071  0.00  0.00    +0.000 C 
ATOM     21  O   UNL     1       1.688  11.478  18.892  0.00  0.00    +0.000 OA
BRANCH  20  22
ATOM     22  C   UNL     1      -0.594  10.912  18.697  0.00  0.00    +0.000 A 
ATOM     23  C   UNL     1      -1.443  11.663  19.526  0.00  0.00    +0.000 A 
ATOM     24  C   UNL     1      -2.766  11.890  19.148  0.00  0.00    +0.000 A 
ATOM     25  C   UNL     1      -3.241  11.363  17.951  0.00  0.00    +0.000 A 
ATOM     26  F   UNL     1      -4.516  11.596  17.611  0.00  0.00    +0.000 F 
ATOM     27  C   UNL     1      -2.407  10.604  17.130  0.00  0.00    +0.000 A 
ATOM     28 BR   UNL     1      -3.058   9.886  15.507  0.00  0.00    +0.000 Br
ATOM     29  C   UNL     1      -1.083  10.371  17.502  0.00  0.00    +0.000 A 
ENDBRANCH  20  22
ENDBRANCH  19  20
ENDBRANCH   7  18
TORSDOF 4
ENDMDL
MODEL 7
REMARK VINA RESULT:      -8.4      1.298      1.741
REMARK  Name = 
REMARK  5 active torsions:
REMARK  status: ('A' for Active; 'I' for Inactive)
REMARK    1  A    between atoms: C_1  and  C_2
REMARK    2  A    between atoms: N_4  and  C_22
REMARK    3  A    between atoms: C_7  and  C_8
REMARK    4  A    between atoms: C_9  and  C_10
REMARK    5  A    between atoms: C_10  and  C_12
REMARK                            x       y       z     vdW  Elec       q    Type
REMARK                         _______ _______ _______ _____ _____    ______ ____
ROOT
ATOM      1  C   UNL     1       1.678   1.877  19.245  0.00  0.00    +0.000 C 
ATOM      2  C   UNL     1       3.116   2.244  18.942  0.00  0.00    +0.000 C 
ATOM      3  O   UNL     1       3.931   1.328  18.780  0.00  0.00    +0.000 OA
ATOM      4  N   UNL     1       3.441   3.583  18.742  0.00  0.00    +0.000 N 
ATOM      5  C   UNL     1       2.814   4.653  19.378  0.00  0.00    +0.000 A 
ATOM      6  N   UNL     1       2.715   5.878  18.894  0.00  0.00    +0.000 NA
ATOM      7  C   UNL     1       2.048   6.689  19.798  0.00  0.00    +0.000 A 
ATOM      8  C   UNL     1       1.701   6.097  20.990  0.00  0.00    +0.000 A 
ATOM      9  S   UNL     1       2.239   4.477  20.990  0.00  0.00    +0.000 S 
ENDROOT
BRANCH   4  10
ATOM     10  C   UNL     1       4.600   3.908  17.968  0.00  0.00    +0.000 A 
ATOM     11  C   UNL     1       5.780   4.340  18.602  0.00  0.00    +0.000 A 
ATOM     12  C   UNL     1       6.890   4.731  17.844  0.00  0.00    +0.000 A 
ATOM     13  C   UNL     1       6.813   4.728  16.456  0.00  0.00    +0.000 A 
ATOM     14  F   UNL     1       7.867   5.133  15.734  0.00  0.00    +0.000 F 
ATOM     15  C   UNL     1       5.657   4.324  15.806  0.00  0.00    +0.000 A 
ATOM     16  C   UNL     1       4.565   3.904  16.563  0.00  0.00    +0.000 A 
ATOM     17  F   UNL     1       3.436   3.583  15.912  0.00  0.00    +0.000 F 
ENDBRANCH   4  10
BRANCH   7  18
ATOM     18  C   UNL     1       1.788   8.056  19.481  0.00  0.00    +0.000 C 
ATOM     19  C   UNL     1       2.080   8.613  18.302  0.00  0.00    +0.000 C 
BRANCH  19  20
ATOM     20  C   UNL     1       1.830  10.062  18.071  0.00  0.00    +0.000 C 
ATOM     21  O   UNL     1       2.645  10.779  17.511  0.00  0.00    +0.000 OA
BRANCH  20  22
ATOM     22  C   UNL     1       0.546  10.609  18.577  0.00  0.00    +0.000 A 
ATOM     23  C   UNL     1       0.502  11.481  19.676  0.00  0.00    +0.000 A 
ATOM     24  C   UNL     1      -0.724  11.970  20.130  0.00  0.00    +0.000 A 
ATOM     25  C   UNL     1      -1.899  11.581  19.495  0.00  0.00    +0.000 A 
ATOM     26  F   UNL     1      -3.062  12.065  19.951  0.00  0.00    +0.000 F 
ATOM     27  C   UNL     1      -1.862  10.704  18.411  0.00  0.00    +0.000 A 
ATOM     28 BR   UNL     1      -3.462  10.175  17.554  0.00  0.00    +0.000 Br
ATOM     29  C   UNL     1      -0.641  10.209  17.952  0.00  0.00    +0.000 A 
ENDBRANCH  20  22
ENDBRANCH  19  20
ENDBRANCH   7  18
TORSDOF 4
ENDMDL
MODEL 8
REMARK VINA RESULT:      -8.4      2.292      2.792
REMARK  Name = 
REMARK  5 active torsions:
REMARK  status: ('A' for Active; 'I' for Inactive)
REMARK    1  A    between atoms: C_1  and  C_2
REMARK    2  A    between atoms: N_4  and  C_22
REMARK    3  A    between atoms: C_7  and  C_8
REMARK    4  A    between atoms: C_9  and  C_10
REMARK    5  A    between atoms: C_10  and  C_12
REMARK                            x       y       z     vdW  Elec       q    Type
REMARK                         _______ _______ _______ _____ _____    ______ ____
ROOT
ATOM      1  C   UNL     1       2.705   2.950  16.931  0.00  0.00    +0.000 C 
ATOM      2  C   UNL     1       4.062   3.486  17.343  0.00  0.00    +0.000 C 
ATOM      3  O   UNL     1       5.070   2.929  16.893  0.00  0.00    +0.000 OA
ATOM      4  N   UNL     1       4.122   4.646  18.109  0.00  0.00    +0.000 N 
ATOM      5  C   UNL     1       3.169   5.022  19.055  0.00  0.00    +0.000 A 
ATOM      6  N   UNL     1       2.903   6.262  19.421  0.00  0.00    +0.000 NA
ATOM      7  C   UNL     1       1.917   6.264  20.395  0.00  0.00    +0.000 A 
ATOM      8  C   UNL     1       1.485   5.027  20.811  0.00  0.00    +0.000 A 
ATOM      9  S   UNL     1       2.349   3.818  19.971  0.00  0.00    +0.000 S 
ENDROOT
BRANCH   4  10
ATOM     10  C   UNL     1       5.310   5.444  18.068  0.00  0.00    +0.000 A 
ATOM     11  C   UNL     1       6.321   5.263  19.029  0.00  0.00    +0.000 A 
ATOM     12  C   UNL     1       7.450   6.091  19.037  0.00  0.00    +0.000 A 
ATOM     13  C   UNL     1       7.552   7.125  18.113  0.00  0.00    +0.000 A 
ATOM     14  F   UNL     1       8.618   7.937  18.145  0.00  0.00    +0.000 F 
ATOM     15  C   UNL     1       6.562   7.338  17.167  0.00  0.00    +0.000 A 
ATOM     16  C   UNL     1       5.455   6.490  17.141  0.00  0.00    +0.000 A 
ATOM     17  F   UNL     1       4.480   6.759  16.259  0.00  0.00    +0.000 F 
ENDBRANCH   4  10
BRANCH   7  18
ATOM     18  C   UNL     1       1.434   7.498  20.925  0.00  0.00    +0.000 C 
ATOM     19  C   UNL     1       1.301   8.615  20.204  0.00  0.00    +0.000 C 
BRANCH  19  20
ATOM     20  C   UNL     1       0.846   9.877  20.847  0.00  0.00    +0.000 C 
ATOM     21  O   UNL     1       1.398  10.338  21.835  0.00  0.00    +0.000 OA
BRANCH  20  22
ATOM     22  C   UNL     1      -0.335  10.546  20.247  0.00  0.00    +0.000 A 
ATOM     23  C   UNL     1      -0.854  10.146  19.005  0.00  0.00    +0.000 A 
ATOM     24  C   UNL     1      -1.960  10.805  18.465  0.00  0.00    +0.000 A 
ATOM     25  C   UNL     1      -2.538  11.862  19.160  0.00  0.00    +0.000 A 
ATOM     26  F   UNL     1      -3.600  12.476  18.620  0.00  0.00    +0.000 F 
ATOM     27  C   UNL     1      -2.019  12.273  20.387  0.00  0.00    +0.000 A 
ATOM     28 BR   UNL     1      -2.807  13.713  21.325  0.00  0.00    +0.000 Br
ATOM     29  C   UNL     1      -0.913  11.621  20.932  0.00  0.00    +0.000 A 
ENDBRANCH  20  22
ENDBRANCH  19  20
ENDBRANCH   7  18
TORSDOF 4
ENDMDL
MODEL 9
REMARK VINA RESULT:      -8.4      1.448      1.922
REMARK  Name = 
REMARK  5 active torsions:
REMARK  status: ('A' for Active; 'I' for Inactive)
REMARK    1  A    between atoms: C_1  and  C_2
REMARK    2  A    between atoms: N_4  and  C_22
REMARK    3  A    between atoms: C_7  and  C_8
REMARK    4  A    between atoms: C_9  and  C_10
REMARK    5  A    between atoms: C_10  and  C_12
REMARK                            x       y       z     vdW  Elec       q    Type
REMARK                         _______ _______ _______ _____ _____    ______ ____
ROOT
ATOM      1  C   UNL     1       1.811   2.184  19.666  0.00  0.00    +0.000 C 
ATOM      2  C   UNL     1       3.227   2.499  19.228  0.00  0.00    +0.000 C 
ATOM      3  O   UNL     1       4.040   1.569  19.168  0.00  0.00    +0.000 OA
ATOM      4  N   UNL     1       3.527   3.789  18.801  0.00  0.00    +0.000 N 
ATOM      5  C   UNL     1       2.926   4.947  19.292  0.00  0.00    +0.000 A 
ATOM      6  N   UNL     1       2.789   6.079  18.627  0.00  0.00    +0.000 NA
ATOM      7  C   UNL     1       2.166   7.023  19.427  0.00  0.00    +0.000 A 
ATOM      8  C   UNL     1       1.890   6.627  20.715  0.00  0.00    +0.000 A 
ATOM      9  S   UNL     1       2.443   5.028  20.942  0.00  0.00    +0.000 S 
ENDROOT
BRANCH   4  10
ATOM     10  C   UNL     1       4.639   3.988  17.921  0.00  0.00    +0.000 A 
ATOM     11  C   UNL     1       5.875   4.431  18.427  0.00  0.00    +0.000 A 
ATOM     12  C   UNL     1       6.942   4.698  17.560  0.00  0.00    +0.000 A 
ATOM     13  C   UNL     1       6.766   4.562  16.188  0.00  0.00    +0.000 A 
ATOM     14  F   UNL     1       7.779   4.850  15.359  0.00  0.00    +0.000 F 
ATOM     15  C   UNL     1       5.553   4.144  15.662  0.00  0.00    +0.000 A 
ATOM     16  C   UNL     1       4.503   3.847  16.530  0.00  0.00    +0.000 A 
ATOM     17  F   UNL     1       3.321   3.511  15.991  0.00  0.00    +0.000 F 
ENDBRANCH   4  10
BRANCH   7  18
ATOM     18  C   UNL     1       1.875   8.322  18.911  0.00  0.00    +0.000 C 
ATOM     19  C   UNL     1       1.021   9.175  19.485  0.00  0.00    +0.000 C 
BRANCH  19  20
ATOM     20  C   UNL     1       0.729  10.488  18.850  0.00  0.00    +0.000 C 
ATOM     21  O   UNL     1       1.616  11.262  18.524  0.00  0.00    +0.000 OA
BRANCH  20  22
ATOM     22  C   UNL     1      -0.701  10.832  18.649  0.00  0.00    +0.000 A 
ATOM     23  C   UNL     1      -1.430  10.333  17.558  0.00  0.00    +0.000 A 
ATOM     24  C   UNL     1      -2.771  10.685  17.395  0.00  0.00    +0.000 A 
ATOM     25  C   UNL     1      -3.376  11.537  18.313  0.00  0.00    +0.000 A 
ATOM     26  F   UNL     1      -4.665  11.859  18.133  0.00  0.00    +0.000 F 
ATOM     27  C   UNL     1      -2.653  12.047  19.391  0.00  0.00    +0.000 A 
ATOM     28 BR   UNL     1      -3.479  13.209  20.633  0.00  0.00    +0.000 Br
ATOM     29  C   UNL     1      -1.312  11.702  19.560  0.00  0.00    +0.000 A 
ENDBRANCH  20  22
ENDBRANCH  19  20
ENDBRANCH   7  18
TORSDOF 4
ENDMDL
