MODEL 1
REMARK VINA RESULT:      -7.8      0.000      0.000
REMARK  Name = 
REMARK  7 active torsions:
REMARK  status: ('A' for Active; 'I' for Inactive)
REMARK    1  A    between atoms: C_1  and  C_2
REMARK    2  A    between atoms: C_2  and  C_3
REMARK    3  A    between atoms: C_2  and  C_4
REMARK    4  A    between atoms: C_2  and  C_5
REMARK    5  A    between atoms: C_8  and  C_9
REMARK    6  A    between atoms: N_12  and  C_13
REMARK    7  A    between atoms: C_13  and  C_14
REMARK                            x       y       z     vdW  Elec       q    Type
REMARK                         _______ _______ _______ _____ _____    ______ ____
ROOT
ATOM      1  C   UNL     1       5.300   5.787  18.198  0.00  0.00    +0.000 C 
ATOM      2  C   UNL     1       6.785   5.838  18.535  0.00  0.00    +0.000 C 
ATOM      3  C   UNL     1       7.362   6.576  17.343  0.00  0.00    +0.000 C 
ATOM      4  N   UNL     1       6.645   6.038  16.171  0.00  0.00    +0.000 NA
ATOM      5  C   UNL     1       5.269   5.752  16.666  0.00  0.00    +0.000 C 
ENDROOT
BRANCH   1   9
ATOM      6  C   UNL     1       3.017   3.590  19.803  0.00  0.00    +0.000 A 
ATOM      7  N   UNL     1       4.110   2.871  19.961  0.00  0.00    +0.000 NA
ATOM      8  N   UNL     1       5.135   3.575  19.377  0.00  0.00    +0.000 NA
ATOM      9  C   UNL     1       4.606   4.682  18.899  0.00  0.00    +0.000 A 
ATOM     10  O   UNL     1       3.260   4.772  19.147  0.00  0.00    +0.000 OA
BRANCH   6  12
ATOM     11  C   UNL     1       0.878   2.484  19.235  0.00  0.00    +0.000 C 
ATOM     12  C   UNL     1       1.627   3.309  20.295  0.00  0.00    +0.000 C 
ATOM     13  C   UNL     1       0.883   4.641  20.512  0.00  0.00    +0.000 C 
ATOM     14  C   UNL     1       1.640   2.538  21.624  0.00  0.00    +0.000 C 
ENDBRANCH   6  12
ENDBRANCH   1   9
BRANCH   4  15
ATOM     15  C   UNL     1       7.304   4.798  15.695  0.00  0.00    +0.000 C 
BRANCH  15  16
ATOM     16  C   UNL     1       7.108   4.563  14.228  0.00  0.00    +0.000 A 
ATOM     17  N   UNL     1       7.635   5.262  13.240  0.00  0.00    +0.000 NA
ATOM     18  C   UNL     1       7.188   4.669  12.090  0.00  0.00    +0.000 A 
ATOM     19  C   UNL     1       6.384   3.595  12.375  0.00  0.00    +0.000 A 
ATOM     20  N   UNL     1       6.342   3.534  13.741  0.00  0.00    +0.000 N 
ATOM     21  H   UNL     1       5.866   2.846  14.309  0.00  0.00    +0.000 HD
ENDBRANCH  15  16
ENDBRANCH   4  15
TORSDOF 4
ENDMDL
MODEL 2
REMARK VINA RESULT:      -7.5      0.126      1.279
REMARK  Name = 
REMARK  7 active torsions:
REMARK  status: ('A' for Active; 'I' for Inactive)
REMARK    1  A    between atoms: C_1  and  C_2
REMARK    2  A    between atoms: C_2  and  C_3
REMARK    3  A    between atoms: C_2  and  C_4
REMARK    4  A    between atoms: C_2  and  C_5
REMARK    5  A    between atoms: C_8  and  C_9
REMARK    6  A    between atoms: N_12  and  C_13
REMARK    7  A    between atoms: C_13  and  C_14
REMARK                            x       y       z     vdW  Elec       q    Type
REMARK                         _______ _______ _______ _____ _____    ______ ____
ROOT
ATOM      1  C   UNL     1       5.250   5.870  18.089  0.00  0.00    +0.000 C 
ATOM      2  C   UNL     1       6.726   5.986  18.447  0.00  0.00    +0.000 C 
ATOM      3  C   UNL     1       7.294   6.718  17.246  0.00  0.00    +0.000 C 
ATOM      4  N   UNL     1       6.615   6.127  16.077  0.00  0.00    +0.000 NA
ATOM      5  C   UNL     1       5.244   5.800  16.559  0.00  0.00    +0.000 C 
ENDROOT
BRANCH   1   9
ATOM      6  C   UNL     1       3.028   3.628  19.717  0.00  0.00    +0.000 A 
ATOM      7  N   UNL     1       4.143   2.948  19.897  0.00  0.00    +0.000 NA
ATOM      8  N   UNL     1       5.149   3.676  19.307  0.00  0.00    +0.000 NA
ATOM      9  C   UNL     1       4.587   4.756  18.806  0.00  0.00    +0.000 A 
ATOM     10  O   UNL     1       3.237   4.805  19.041  0.00  0.00    +0.000 OA
BRANCH   6  12
ATOM     11  C   UNL     1       0.891   4.624  20.467  0.00  0.00    +0.000 C 
ATOM     12  C   UNL     1       1.644   3.309  20.204  0.00  0.00    +0.000 C 
ATOM     13  C   UNL     1       1.738   2.512  21.520  0.00  0.00    +0.000 C 
ATOM     14  C   UNL     1       0.861   2.470  19.183  0.00  0.00    +0.000 C 
ENDBRANCH   6  12
ENDBRANCH   1   9
BRANCH   4  15
ATOM     15  C   UNL     1       7.327   4.903  15.639  0.00  0.00    +0.000 C 
BRANCH  15  16
ATOM     16  C   UNL     1       7.088   4.577  14.197  0.00  0.00    +0.000 A 
ATOM     17  N   UNL     1       6.251   3.674  13.720  0.00  0.00    +0.000 NA
ATOM     18  C   UNL     1       6.365   3.747  12.358  0.00  0.00    +0.000 A 
ATOM     19  C   UNL     1       7.277   4.707  11.996  0.00  0.00    +0.000 A 
ATOM     20  N   UNL     1       7.729   5.231  13.175  0.00  0.00    +0.000 N 
ATOM     21  H   UNL     1       8.392   5.986  13.296  0.00  0.00    +0.000 HD
ENDBRANCH  15  16
ENDBRANCH   4  15
TORSDOF 4
ENDMDL
MODEL 3
REMARK VINA RESULT:      -7.3      1.377      1.764
REMARK  Name = 
REMARK  7 active torsions:
REMARK  status: ('A' for Active; 'I' for Inactive)
REMARK    1  A    between atoms: C_1  and  C_2
REMARK    2  A    between atoms: C_2  and  C_3
REMARK    3  A    between atoms: C_2  and  C_4
REMARK    4  A    between atoms: C_2  and  C_5
REMARK    5  A    between atoms: C_8  and  C_9
REMARK    6  A    between atoms: N_12  and  C_13
REMARK    7  A    between atoms: C_13  and  C_14
REMARK                            x       y       z     vdW  Elec       q    Type
REMARK                         _______ _______ _______ _____ _____    ______ ____
ROOT
ATOM      1  C   UNL     1       5.045   6.480  17.831  0.00  0.00    +0.000 C 
ATOM      2  C   UNL     1       6.356   5.937  18.387  0.00  0.00    +0.000 C 
ATOM      3  C   UNL     1       7.348   6.316  17.304  0.00  0.00    +0.000 C 
ATOM      4  N   UNL     1       6.647   6.061  16.031  0.00  0.00    +0.000 NA
ATOM      5  C   UNL     1       5.220   6.387  16.312  0.00  0.00    +0.000 C 
ENDROOT
BRANCH   1   9
ATOM      6  C   UNL     1       2.640   4.193  19.095  0.00  0.00    +0.000 A 
ATOM      7  N   UNL     1       1.931   5.297  19.222  0.00  0.00    +0.000 NA
ATOM      8  N   UNL     1       2.724   6.329  18.778  0.00  0.00    +0.000 NA
ATOM      9  C   UNL     1       3.867   5.791  18.405  0.00  0.00    +0.000 A 
ATOM     10  O   UNL     1       3.883   4.429  18.562  0.00  0.00    +0.000 OA
BRANCH   6  12
ATOM     11  C   UNL     1       2.199   2.571  20.910  0.00  0.00    +0.000 C 
ATOM     12  C   UNL     1       2.234   2.777  19.387  0.00  0.00    +0.000 C 
ATOM     13  C   UNL     1       3.269   1.813  18.774  0.00  0.00    +0.000 C 
ATOM     14  C   UNL     1       0.855   2.448  18.796  0.00  0.00    +0.000 C 
ENDBRANCH   6  12
ENDBRANCH   1   9
BRANCH   4  15
ATOM     15  C   UNL     1       6.798   4.639  15.641  0.00  0.00    +0.000 C 
BRANCH  15  16
ATOM     16  C   UNL     1       6.865   4.449  14.156  0.00  0.00    +0.000 A 
ATOM     17  N   UNL     1       7.514   5.207  13.292  0.00  0.00    +0.000 NA
ATOM     18  C   UNL     1       7.300   4.636  12.067  0.00  0.00    +0.000 A 
ATOM     19  C   UNL     1       6.516   3.515  12.181  0.00  0.00    +0.000 A 
ATOM     20  N   UNL     1       6.248   3.403  13.517  0.00  0.00    +0.000 N 
ATOM     21  H   UNL     1       5.719   2.673  13.977  0.00  0.00    +0.000 HD
ENDBRANCH  15  16
ENDBRANCH   4  15
TORSDOF 4
ENDMDL
MODEL 4
REMARK VINA RESULT:      -7.3      1.438      1.625
REMARK  Name = 
REMARK  7 active torsions:
REMARK  status: ('A' for Active; 'I' for Inactive)
REMARK    1  A    between atoms: C_1  and  C_2
REMARK    2  A    between atoms: C_2  and  C_3
REMARK    3  A    between atoms: C_2  and  C_4
REMARK    4  A    between atoms: C_2  and  C_5
REMARK    5  A    between atoms: C_8  and  C_9
REMARK    6  A    between atoms: N_12  and  C_13
REMARK    7  A    between atoms: C_13  and  C_14
REMARK                            x       y       z     vdW  Elec       q    Type
REMARK                         _______ _______ _______ _____ _____    ______ ____
ROOT
ATOM      1  C   UNL     1       5.011   6.428  17.843  0.00  0.00    +0.000 C 
ATOM      2  C   UNL     1       6.242   5.882  18.556  0.00  0.00    +0.000 C 
ATOM      3  C   UNL     1       7.369   6.337  17.649  0.00  0.00    +0.000 C 
ATOM      4  N   UNL     1       6.866   6.136  16.276  0.00  0.00    +0.000 NA
ATOM      5  C   UNL     1       5.405   6.418  16.363  0.00  0.00    +0.000 C 
ENDROOT
BRANCH   1   9
ATOM      6  C   UNL     1       2.552   4.074  18.855  0.00  0.00    +0.000 A 
ATOM      7  N   UNL     1       1.743   5.068  18.548  0.00  0.00    +0.000 NA
ATOM      8  N   UNL     1       2.536   6.109  18.130  0.00  0.00    +0.000 NA
ATOM      9  C   UNL     1       3.781   5.687  18.206  0.00  0.00    +0.000 A 
ATOM     10  O   UNL     1       3.872   4.391  18.645  0.00  0.00    +0.000 OA
BRANCH   6  12
ATOM     11  C   UNL     1       0.774   2.354  18.865  0.00  0.00    +0.000 C 
ATOM     12  C   UNL     1       2.205   2.687  19.317  0.00  0.00    +0.000 C 
ATOM     13  C   UNL     1       2.273   2.631  20.856  0.00  0.00    +0.000 C 
ATOM     14  C   UNL     1       3.176   1.640  18.749  0.00  0.00    +0.000 C 
ENDBRANCH   6  12
ENDBRANCH   1   9
BRANCH   4  15
ATOM     15  C   UNL     1       7.110   4.740  15.843  0.00  0.00    +0.000 C 
BRANCH  15  16
ATOM     16  C   UNL     1       7.082   4.582  14.353  0.00  0.00    +0.000 A 
ATOM     17  N   UNL     1       7.749   5.302  13.471  0.00  0.00    +0.000 NA
ATOM     18  C   UNL     1       7.421   4.783  12.247  0.00  0.00    +0.000 A 
ATOM     19  C   UNL     1       6.549   3.732  12.382  0.00  0.00    +0.000 A 
ATOM     20  N   UNL     1       6.342   3.610  13.728  0.00  0.00    +0.000 N 
ATOM     21  H   UNL     1       5.776   2.917  14.201  0.00  0.00    +0.000 HD
ENDBRANCH  15  16
ENDBRANCH   4  15
TORSDOF 4
ENDMDL
MODEL 5
REMARK VINA RESULT:      -7.0      1.511      1.847
REMARK  Name = 
REMARK  7 active torsions:
REMARK  status: ('A' for Active; 'I' for Inactive)
REMARK    1  A    between atoms: C_1  and  C_2
REMARK    2  A    between atoms: C_2  and  C_3
REMARK    3  A    between atoms: C_2  and  C_4
REMARK    4  A    between atoms: C_2  and  C_5
REMARK    5  A    between atoms: C_8  and  C_9
REMARK    6  A    between atoms: N_12  and  C_13
REMARK    7  A    between atoms: C_13  and  C_14
REMARK                            x       y       z     vdW  Elec       q    Type
REMARK                         _______ _______ _______ _____ _____    ______ ____
ROOT
ATOM      1  C   UNL     1       5.260   6.218  18.471  0.00  0.00    +0.000 C 
ATOM      2  C   UNL     1       6.311   5.493  19.302  0.00  0.00    +0.000 C 
ATOM      3  C   UNL     1       7.604   5.943  18.650  0.00  0.00    +0.000 C 
ATOM      4  N   UNL     1       7.330   5.935  17.201  0.00  0.00    +0.000 NA
ATOM      5  C   UNL     1       5.899   6.332  17.083  0.00  0.00    +0.000 C 
ENDROOT
BRANCH   1   9
ATOM      6  C   UNL     1       2.488   4.054  18.971  0.00  0.00    +0.000 A 
ATOM      7  N   UNL     1       1.855   5.023  18.339  0.00  0.00    +0.000 NA
ATOM      8  N   UNL     1       2.792   5.991  18.061  0.00  0.00    +0.000 NA
ATOM      9  C   UNL     1       3.938   5.552  18.538  0.00  0.00    +0.000 A 
ATOM     10  O   UNL     1       3.828   4.315  19.119  0.00  0.00    +0.000 OA
BRANCH   6  12
ATOM     11  C   UNL     1       2.932   1.623  19.073  0.00  0.00    +0.000 C 
ATOM     12  C   UNL     1       1.947   2.740  19.456  0.00  0.00    +0.000 C 
ATOM     13  C   UNL     1       0.589   2.467  18.781  0.00  0.00    +0.000 C 
ATOM     14  C   UNL     1       1.742   2.737  20.979  0.00  0.00    +0.000 C 
ENDBRANCH   6  12
ENDBRANCH   1   9
BRANCH   4  15
ATOM     15  C   UNL     1       7.549   4.578  16.647  0.00  0.00    +0.000 C 
BRANCH  15  16
ATOM     16  C   UNL     1       7.129   4.461  15.214  0.00  0.00    +0.000 A 
ATOM     17  N   UNL     1       6.197   3.665  14.727  0.00  0.00    +0.000 NA
ATOM     18  C   UNL     1       6.158   3.919  13.382  0.00  0.00    +0.000 A 
ATOM     19  C   UNL     1       7.074   4.883  13.042  0.00  0.00    +0.000 A 
ATOM     20  N   UNL     1       7.685   5.224  14.218  0.00  0.00    +0.000 N 
ATOM     21  H   UNL     1       8.396   5.930  14.356  0.00  0.00    +0.000 HD
ENDBRANCH  15  16
ENDBRANCH   4  15
TORSDOF 4
ENDMDL
MODEL 6
REMARK VINA RESULT:      -6.9      0.882      1.414
REMARK  Name = 
REMARK  7 active torsions:
REMARK  status: ('A' for Active; 'I' for Inactive)
REMARK    1  A    between atoms: C_1  and  C_2
REMARK    2  A    between atoms: C_2  and  C_3
REMARK    3  A    between atoms: C_2  and  C_4
REMARK    4  A    between atoms: C_2  and  C_5
REMARK    5  A    between atoms: C_8  and  C_9
REMARK    6  A    between atoms: N_12  and  C_13
REMARK    7  A    between atoms: C_13  and  C_14
REMARK                            x       y       z     vdW  Elec       q    Type
REMARK                         _______ _______ _______ _____ _____    ______ ____
ROOT
ATOM      1  C   UNL     1       5.242   5.620  17.800  0.00  0.00    +0.000 C 
ATOM      2  C   UNL     1       6.760   5.615  17.930  0.00  0.00    +0.000 C 
ATOM      3  C   UNL     1       7.199   6.240  16.620  0.00  0.00    +0.000 C 
ATOM      4  N   UNL     1       6.304   5.664  15.598  0.00  0.00    +0.000 NA
ATOM      5  C   UNL     1       4.999   5.484  16.294  0.00  0.00    +0.000 C 
ENDROOT
BRANCH   1   9
ATOM      6  C   UNL     1       3.068   3.573  19.723  0.00  0.00    +0.000 A 
ATOM      7  N   UNL     1       4.201   2.962  20.010  0.00  0.00    +0.000 NA
ATOM      8  N   UNL     1       5.192   3.626  19.327  0.00  0.00    +0.000 NA
ATOM      9  C   UNL     1       4.604   4.603  18.667  0.00  0.00    +0.000 A 
ATOM     10  O   UNL     1       3.251   4.643  18.883  0.00  0.00    +0.000 OA
BRANCH   6  12
ATOM     11  C   UNL     1       1.802   2.502  21.559  0.00  0.00    +0.000 C 
ATOM     12  C   UNL     1       1.688   3.285  20.241  0.00  0.00    +0.000 C 
ATOM     13  C   UNL     1       0.926   2.428  19.211  0.00  0.00    +0.000 C 
ATOM     14  C   UNL     1       0.892   4.577  20.483  0.00  0.00    +0.000 C 
ENDBRANCH   6  12
ENDBRANCH   1   9
BRANCH   4  15
ATOM     15  C   UNL     1       6.837   4.362  15.130  0.00  0.00    +0.000 C 
BRANCH  15  16
ATOM     16  C   UNL     1       6.211   3.906  13.847  0.00  0.00    +0.000 A 
ATOM     17  N   UNL     1       4.990   4.177  13.425  0.00  0.00    +0.000 NA
ATOM     18  C   UNL     1       4.876   3.565  12.206  0.00  0.00    +0.000 A 
ATOM     19  C   UNL     1       6.040   2.917  11.875  0.00  0.00    +0.000 A 
ATOM     20  N   UNL     1       6.885   3.144  12.927  0.00  0.00    +0.000 N 
ATOM     21  H   UNL     1       7.846   2.841  13.016  0.00  0.00    +0.000 HD
ENDBRANCH  15  16
ENDBRANCH   4  15
TORSDOF 4
ENDMDL
MODEL 7
REMARK VINA RESULT:      -6.7      1.346      1.570
REMARK  Name = 
REMARK  7 active torsions:
REMARK  status: ('A' for Active; 'I' for Inactive)
REMARK    1  A    between atoms: C_1  and  C_2
REMARK    2  A    between atoms: C_2  and  C_3
REMARK    3  A    between atoms: C_2  and  C_4
REMARK    4  A    between atoms: C_2  and  C_5
REMARK    5  A    between atoms: C_8  and  C_9
REMARK    6  A    between atoms: N_12  and  C_13
REMARK    7  A    between atoms: C_13  and  C_14
REMARK                            x       y       z     vdW  Elec       q    Type
REMARK                         _______ _______ _______ _____ _____    ______ ____
ROOT
ATOM      1  C   UNL     1       5.599   5.779  18.488  0.00  0.00    +0.000 C 
ATOM      2  C   UNL     1       6.547   4.586  18.489  0.00  0.00    +0.000 C 
ATOM      3  C   UNL     1       7.480   4.915  17.339  0.00  0.00    +0.000 C 
ATOM      4  N   UNL     1       6.613   5.472  16.284  0.00  0.00    +0.000 NA
ATOM      5  C   UNL     1       5.547   6.210  17.019  0.00  0.00    +0.000 C 
ENDROOT
BRANCH   1   9
ATOM      6  C   UNL     1       2.689   4.290  19.878  0.00  0.00    +0.000 A 
ATOM      7  N   UNL     1       2.361   5.552  20.068  0.00  0.00    +0.000 NA
ATOM      8  N   UNL     1       3.403   6.308  19.587  0.00  0.00    +0.000 NA
ATOM      9  C   UNL     1       4.302   5.461  19.130  0.00  0.00    +0.000 A 
ATOM     10  O   UNL     1       3.911   4.154  19.266  0.00  0.00    +0.000 OA
BRANCH   6  12
ATOM     11  C   UNL     1       2.341   1.926  19.235  0.00  0.00    +0.000 C 
ATOM     12  C   UNL     1       1.888   3.055  20.176  0.00  0.00    +0.000 C 
ATOM     13  C   UNL     1       0.394   3.346  19.929  0.00  0.00    +0.000 C 
ATOM     14  C   UNL     1       2.060   2.603  21.634  0.00  0.00    +0.000 C 
ENDBRANCH   6  12
ENDBRANCH   1   9
BRANCH   4  15
ATOM     15  C   UNL     1       6.031   4.377  15.471  0.00  0.00    +0.000 C 
BRANCH  15  16
ATOM     16  C   UNL     1       6.552   4.359  14.066  0.00  0.00    +0.000 A 
ATOM     17  N   UNL     1       6.220   3.509  13.112  0.00  0.00    +0.000 NA
ATOM     18  C   UNL     1       6.933   3.894  12.009  0.00  0.00    +0.000 A 
ATOM     19  C   UNL     1       7.706   4.993  12.288  0.00  0.00    +0.000 A 
ATOM     20  N   UNL     1       7.453   5.283  13.600  0.00  0.00    +0.000 N 
ATOM     21  H   UNL     1       7.826   6.053  14.140  0.00  0.00    +0.000 HD
ENDBRANCH  15  16
ENDBRANCH   4  15
TORSDOF 4
ENDMDL
MODEL 8
REMARK VINA RESULT:      -6.6      3.764      5.408
REMARK  Name = 
REMARK  7 active torsions:
REMARK  status: ('A' for Active; 'I' for Inactive)
REMARK    1  A    between atoms: C_1  and  C_2
REMARK    2  A    between atoms: C_2  and  C_3
REMARK    3  A    between atoms: C_2  and  C_4
REMARK    4  A    between atoms: C_2  and  C_5
REMARK    5  A    between atoms: C_8  and  C_9
REMARK    6  A    between atoms: N_12  and  C_13
REMARK    7  A    between atoms: C_13  and  C_14
REMARK                            x       y       z     vdW  Elec       q    Type
REMARK                         _______ _______ _______ _____ _____    ______ ____
ROOT
ATOM      1  C   UNL     1       2.700   5.955  19.780  0.00  0.00    +0.000 C 
ATOM      2  C   UNL     1       1.752   4.833  19.376  0.00  0.00    +0.000 C 
ATOM      3  C   UNL     1       2.557   3.593  19.715  0.00  0.00    +0.000 C 
ATOM      4  N   UNL     1       3.938   3.902  19.299  0.00  0.00    +0.000 NA
ATOM      5  C   UNL     1       4.095   5.361  19.557  0.00  0.00    +0.000 C 
ENDROOT
BRANCH   1   9
ATOM      6  C   UNL     1       1.591   9.161  18.728  0.00  0.00    +0.000 A 
ATOM      7  N   UNL     1       2.223   8.812  17.625  0.00  0.00    +0.000 NA
ATOM      8  N   UNL     1       2.747   7.560  17.849  0.00  0.00    +0.000 NA
ATOM      9  C   UNL     1       2.400   7.222  19.073  0.00  0.00    +0.000 A 
ATOM     10  O   UNL     1       1.647   8.185  19.693  0.00  0.00    +0.000 OA
BRANCH   6  12
ATOM     11  C   UNL     1       1.611  11.627  18.531  0.00  0.00    +0.000 C 
ATOM     12  C   UNL     1       0.802  10.408  19.004  0.00  0.00    +0.000 C 
ATOM     13  C   UNL     1       0.552  10.528  20.520  0.00  0.00    +0.000 C 
ATOM     14  C   UNL     1      -0.557  10.390  18.287  0.00  0.00    +0.000 C 
ENDBRANCH   6  12
ENDBRANCH   1   9
BRANCH   4  15
ATOM     15  C   UNL     1       4.118   3.598  17.860  0.00  0.00    +0.000 C 
BRANCH  15  16
ATOM     16  C   UNL     1       5.373   4.190  17.294  0.00  0.00    +0.000 A 
ATOM     17  N   UNL     1       5.466   4.988  16.247  0.00  0.00    +0.000 NA
ATOM     18  C   UNL     1       6.797   5.280  16.122  0.00  0.00    +0.000 A 
ATOM     19  C   UNL     1       7.527   4.658  17.105  0.00  0.00    +0.000 A 
ATOM     20  N   UNL     1       6.608   3.969  17.848  0.00  0.00    +0.000 N 
ATOM     21  H   UNL     1       6.782   3.416  18.677  0.00  0.00    +0.000 HD
ENDBRANCH  15  16
ENDBRANCH   4  15
TORSDOF 4
ENDMDL
MODEL 9
REMARK VINA RESULT:      -6.5      3.711      5.573
REMARK  Name = 
REMARK  7 active torsions:
REMARK  status: ('A' for Active; 'I' for Inactive)
REMARK    1  A    between atoms: C_1  and  C_2
REMARK    2  A    between atoms: C_2  and  C_3
REMARK    3  A    between atoms: C_2  and  C_4
REMARK    4  A    between atoms: C_2  and  C_5
REMARK    5  A    between atoms: C_8  and  C_9
REMARK    6  A    between atoms: N_12  and  C_13
REMARK    7  A    between atoms: C_13  and  C_14
REMARK                            x       y       z     vdW  Elec       q    Type
REMARK                         _______ _______ _______ _____ _____    ______ ____
ROOT
ATOM      1  C   UNL     1       2.634   5.761  19.124  0.00  0.00    +0.000 C 
ATOM      2  C   UNL     1       2.247   4.752  18.050  0.00  0.00    +0.000 C 
ATOM      3  C   UNL     1       3.018   3.517  18.476  0.00  0.00    +0.000 C 
ATOM      4  N   UNL     1       4.334   4.015  18.919  0.00  0.00    +0.000 NA
ATOM      5  C   UNL     1       4.049   5.342  19.535  0.00  0.00    +0.000 C 
ENDROOT
BRANCH   1   9
ATOM      6  C   UNL     1       1.733   9.157  18.608  0.00  0.00    +0.000 A 
ATOM      7  N   UNL     1       2.549   9.023  17.581  0.00  0.00    +0.000 NA
ATOM      8  N   UNL     1       3.022   7.733  17.618  0.00  0.00    +0.000 NA
ATOM      9  C   UNL     1       2.465   7.158  18.664  0.00  0.00    +0.000 A 
ATOM     10  O   UNL     1       1.616   8.000  19.336  0.00  0.00    +0.000 OA
BRANCH   6  12
ATOM     11  C   UNL     1       1.654  11.630  18.593  0.00  0.00    +0.000 C 
ATOM     12  C   UNL     1       0.910  10.349  19.004  0.00  0.00    +0.000 C 
ATOM     13  C   UNL     1       0.717  10.349  20.534  0.00  0.00    +0.000 C 
ATOM     14  C   UNL     1      -0.475  10.329  18.340  0.00  0.00    +0.000 C 
ENDBRANCH   6  12
ENDBRANCH   1   9
BRANCH   4  15
ATOM     15  C   UNL     1       5.244   4.156  17.758  0.00  0.00    +0.000 C 
BRANCH  15  16
ATOM     16  C   UNL     1       6.232   5.270  17.927  0.00  0.00    +0.000 A 
ATOM     17  N   UNL     1       7.273   5.284  18.738  0.00  0.00    +0.000 NA
ATOM     18  C   UNL     1       7.883   6.492  18.534  0.00  0.00    +0.000 A 
ATOM     19  C   UNL     1       7.211   7.224  17.587  0.00  0.00    +0.000 A 
ATOM     20  N   UNL     1       6.163   6.434  17.204  0.00  0.00    +0.000 N 
ATOM     21  H   UNL     1       5.470   6.637  16.496  0.00  0.00    +0.000 HD
ENDBRANCH  15  16
ENDBRANCH   4  15
TORSDOF 4
ENDMDL
