MODEL 1
REMARK VINA RESULT:      -6.2      0.000      0.000
REMARK  Name = 
REMARK  3 active torsions:
REMARK  status: ('A' for Active; 'I' for Inactive)
REMARK    1  A    between atoms: C_1  and  S_2
REMARK    2  A    between atoms: S_2  and  C_3
REMARK    3  A    between atoms: C_5  and  C_6
REMARK                            x       y       z     vdW  Elec       q    Type
REMARK                         _______ _______ _______ _____ _____    ______ ____
ROOT
ATOM      1  C   UNL     1       5.922   5.191  15.287  0.00  0.00    +0.000 A 
ATOM      2  C   UNL     1       5.062   4.412  16.009  0.00  0.00    +0.000 A 
ATOM      3  C   UNL     1       4.404   5.292  16.914  0.00  0.00    +0.000 A 
ATOM      4  N   UNL     1       4.850   6.551  16.747  0.00  0.00    +0.000 NA
ATOM      5  N   UNL     1       5.759   6.460  15.756  0.00  0.00    +0.000 N 
ATOM      6  H   UNL     1       6.235   7.299  15.446  0.00  0.00    +0.000 HD
ENDROOT
BRANCH   3   7
ATOM      7  C   UNL     1       3.378   4.938  17.904  0.00  0.00    +0.000 A 
ATOM      8  C   UNL     1       3.381   5.537  19.178  0.00  0.00    +0.000 A 
ATOM      9  C   UNL     1       2.428   5.192  20.137  0.00  0.00    +0.000 A 
ATOM     10  C   UNL     1       1.463   4.246  19.828  0.00  0.00    +0.000 A 
ATOM     11  F   UNL     1       0.554   3.909  20.752  0.00  0.00    +0.000 F 
ATOM     12  C   UNL     1       1.427   3.645  18.576  0.00  0.00    +0.000 A 
ATOM     13  C   UNL     1       2.383   3.991  17.614  0.00  0.00    +0.000 A 
ENDBRANCH   3   7
BRANCH   1  15
ATOM     14  C   UNL     1       6.155   3.634  13.036  0.00  0.00    +0.000 C 
ATOM     15  S   UNL     1       7.051   4.862  14.023  0.00  0.00    +0.000 S 
ENDBRANCH   1  15
TORSDOF 2
ENDMDL
MODEL 2
REMARK VINA RESULT:      -6.2      4.502      6.065
REMARK  Name = 
REMARK  3 active torsions:
REMARK  status: ('A' for Active; 'I' for Inactive)
REMARK    1  A    between atoms: C_1  and  S_2
REMARK    2  A    between atoms: S_2  and  C_3
REMARK    3  A    between atoms: C_5  and  C_6
REMARK                            x       y       z     vdW  Elec       q    Type
REMARK                         _______ _______ _______ _____ _____    ______ ____
ROOT
ATOM      1  C   UNL     1       3.044   3.251  19.981  0.00  0.00    +0.000 A 
ATOM      2  C   UNL     1       3.450   4.458  19.484  0.00  0.00    +0.000 A 
ATOM      3  C   UNL     1       4.851   4.337  19.262  0.00  0.00    +0.000 A 
ATOM      4  N   UNL     1       5.274   3.108  19.612  0.00  0.00    +0.000 NA
ATOM      5  N   UNL     1       4.162   2.475  20.035  0.00  0.00    +0.000 N 
ATOM      6  H   UNL     1       4.233   1.515  20.350  0.00  0.00    +0.000 HD
ENDROOT
BRANCH   3   7
ATOM      7  C   UNL     1       5.754   5.366  18.727  0.00  0.00    +0.000 A 
ATOM      8  C   UNL     1       5.340   6.193  17.666  0.00  0.00    +0.000 A 
ATOM      9  C   UNL     1       6.195   7.157  17.130  0.00  0.00    +0.000 A 
ATOM     10  C   UNL     1       7.470   7.302  17.654  0.00  0.00    +0.000 A 
ATOM     11  F   UNL     1       8.293   8.221  17.133  0.00  0.00    +0.000 F 
ATOM     12  C   UNL     1       7.904   6.508  18.708  0.00  0.00    +0.000 A 
ATOM     13  C   UNL     1       7.046   5.542  19.246  0.00  0.00    +0.000 A 
ENDBRANCH   3   7
BRANCH   1  15
ATOM     14  C   UNL     1       0.648   2.436  18.913  0.00  0.00    +0.000 C 
ATOM     15  S   UNL     1       1.518   2.626  20.491  0.00  0.00    +0.000 S 
ENDBRANCH   1  15
TORSDOF 2
ENDMDL
MODEL 3
REMARK VINA RESULT:      -6.1      1.798      1.969
REMARK  Name = 
REMARK  3 active torsions:
REMARK  status: ('A' for Active; 'I' for Inactive)
REMARK    1  A    between atoms: C_1  and  S_2
REMARK    2  A    between atoms: S_2  and  C_3
REMARK    3  A    between atoms: C_5  and  C_6
REMARK                            x       y       z     vdW  Elec       q    Type
REMARK                         _______ _______ _______ _____ _____    ______ ____
ROOT
ATOM      1  C   UNL     1       6.207   4.540  16.201  0.00  0.00    +0.000 A 
ATOM      2  C   UNL     1       4.919   4.286  16.584  0.00  0.00    +0.000 A 
ATOM      3  C   UNL     1       4.973   4.018  17.981  0.00  0.00    +0.000 A 
ATOM      4  N   UNL     1       6.240   4.105  18.424  0.00  0.00    +0.000 NA
ATOM      5  N   UNL     1       6.960   4.427  17.331  0.00  0.00    +0.000 N 
ATOM      6  H   UNL     1       7.962   4.553  17.421  0.00  0.00    +0.000 HD
ENDROOT
BRANCH   3   7
ATOM      7  C   UNL     1       3.843   3.694  18.863  0.00  0.00    +0.000 A 
ATOM      8  C   UNL     1       2.556   4.190  18.582  0.00  0.00    +0.000 A 
ATOM      9  C   UNL     1       1.479   3.912  19.424  0.00  0.00    +0.000 A 
ATOM     10  C   UNL     1       1.681   3.133  20.553  0.00  0.00    +0.000 A 
ATOM     11  F   UNL     1       0.648   2.873  21.365  0.00  0.00    +0.000 F 
ATOM     12  C   UNL     1       2.937   2.619  20.851  0.00  0.00    +0.000 A 
ATOM     13  C   UNL     1       4.017   2.898  20.006  0.00  0.00    +0.000 A 
ENDBRANCH   3   7
BRANCH   1  15
ATOM     14  C   UNL     1       6.144   3.762  13.568  0.00  0.00    +0.000 C 
ATOM     15  S   UNL     1       6.945   4.936  14.692  0.00  0.00    +0.000 S 
ENDBRANCH   1  15
TORSDOF 2
ENDMDL
MODEL 4
REMARK VINA RESULT:      -6.1      0.114      1.294
REMARK  Name = 
REMARK  3 active torsions:
REMARK  status: ('A' for Active; 'I' for Inactive)
REMARK    1  A    between atoms: C_1  and  S_2
REMARK    2  A    between atoms: S_2  and  C_3
REMARK    3  A    between atoms: C_5  and  C_6
REMARK                            x       y       z     vdW  Elec       q    Type
REMARK                         _______ _______ _______ _____ _____    ______ ____
ROOT
ATOM      1  C   UNL     1       5.916   5.143  15.220  0.00  0.00    +0.000 A 
ATOM      2  C   UNL     1       5.029   4.386  15.932  0.00  0.00    +0.000 A 
ATOM      3  C   UNL     1       4.435   5.267  16.879  0.00  0.00    +0.000 A 
ATOM      4  N   UNL     1       4.943   6.506  16.745  0.00  0.00    +0.000 NA
ATOM      5  N   UNL     1       5.828   6.402  15.734  0.00  0.00    +0.000 N 
ATOM      6  H   UNL     1       6.342   7.225  15.443  0.00  0.00    +0.000 HD
ENDROOT
BRANCH   3   7
ATOM      7  C   UNL     1       3.410   4.933  17.877  0.00  0.00    +0.000 A 
ATOM      8  C   UNL     1       2.458   3.931  17.610  0.00  0.00    +0.000 A 
ATOM      9  C   UNL     1       1.462   3.620  18.537  0.00  0.00    +0.000 A 
ATOM     10  C   UNL     1       1.413   4.308  19.740  0.00  0.00    +0.000 A 
ATOM     11  F   UNL     1       0.452   4.015  20.625  0.00  0.00    +0.000 F 
ATOM     12  C   UNL     1       2.345   5.295  20.037  0.00  0.00    +0.000 A 
ATOM     13  C   UNL     1       3.343   5.606  19.107  0.00  0.00    +0.000 A 
ENDBRANCH   3   7
BRANCH   1  15
ATOM     14  C   UNL     1       6.041   3.624  12.935  0.00  0.00    +0.000 C 
ATOM     15  S   UNL     1       7.003   4.800  13.923  0.00  0.00    +0.000 S 
ENDBRANCH   1  15
TORSDOF 2
ENDMDL
MODEL 5
REMARK VINA RESULT:      -6.1      4.440      6.046
REMARK  Name = 
REMARK  3 active torsions:
REMARK  status: ('A' for Active; 'I' for Inactive)
REMARK    1  A    between atoms: C_1  and  S_2
REMARK    2  A    between atoms: S_2  and  C_3
REMARK    3  A    between atoms: C_5  and  C_6
REMARK                            x       y       z     vdW  Elec       q    Type
REMARK                         _______ _______ _______ _____ _____    ______ ____
ROOT
ATOM      1  C   UNL     1       3.100   3.176  19.284  0.00  0.00    +0.000 A 
ATOM      2  C   UNL     1       3.514   4.362  18.745  0.00  0.00    +0.000 A 
ATOM      3  C   UNL     1       4.928   4.389  18.899  0.00  0.00    +0.000 A 
ATOM      4  N   UNL     1       5.352   3.266  19.507  0.00  0.00    +0.000 NA
ATOM      5  N   UNL     1       4.229   2.552  19.721  0.00  0.00    +0.000 N 
ATOM      6  H   UNL     1       4.300   1.647  20.171  0.00  0.00    +0.000 HD
ENDROOT
BRANCH   3   7
ATOM      7  C   UNL     1       5.845   5.455  18.472  0.00  0.00    +0.000 A 
ATOM      8  C   UNL     1       7.109   5.590  19.075  0.00  0.00    +0.000 A 
ATOM      9  C   UNL     1       7.981   6.613  18.698  0.00  0.00    +0.000 A 
ATOM     10  C   UNL     1       7.594   7.507  17.711  0.00  0.00    +0.000 A 
ATOM     11  F   UNL     1       8.426   8.493  17.356  0.00  0.00    +0.000 F 
ATOM     12  C   UNL     1       6.356   7.393  17.089  0.00  0.00    +0.000 A 
ATOM     13  C   UNL     1       5.483   6.367  17.468  0.00  0.00    +0.000 A 
ENDBRANCH   3   7
BRANCH   1  15
ATOM     14  C   UNL     1       1.196   2.765  21.221  0.00  0.00    +0.000 C 
ATOM     15  S   UNL     1       1.555   2.430  19.476  0.00  0.00    +0.000 S 
ENDBRANCH   1  15
TORSDOF 2
ENDMDL
MODEL 6
REMARK VINA RESULT:      -6.1      1.867      2.172
REMARK  Name = 
REMARK  3 active torsions:
REMARK  status: ('A' for Active; 'I' for Inactive)
REMARK    1  A    between atoms: C_1  and  S_2
REMARK    2  A    between atoms: S_2  and  C_3
REMARK    3  A    between atoms: C_5  and  C_6
REMARK                            x       y       z     vdW  Elec       q    Type
REMARK                         _______ _______ _______ _____ _____    ______ ____
ROOT
ATOM      1  C   UNL     1       6.340   4.569  16.426  0.00  0.00    +0.000 A 
ATOM      2  C   UNL     1       5.065   4.341  16.864  0.00  0.00    +0.000 A 
ATOM      3  C   UNL     1       5.162   4.158  18.272  0.00  0.00    +0.000 A 
ATOM      4  N   UNL     1       6.443   4.269  18.669  0.00  0.00    +0.000 NA
ATOM      5  N   UNL     1       7.128   4.522  17.536  0.00  0.00    +0.000 N 
ATOM      6  H   UNL     1       8.132   4.652  17.587  0.00  0.00    +0.000 HD
ENDROOT
BRANCH   3   7
ATOM      7  C   UNL     1       4.061   3.891  19.208  0.00  0.00    +0.000 A 
ATOM      8  C   UNL     1       3.651   2.569  19.464  0.00  0.00    +0.000 A 
ATOM      9  C   UNL     1       2.590   2.300  20.330  0.00  0.00    +0.000 A 
ATOM     10  C   UNL     1       1.933   3.353  20.949  0.00  0.00    +0.000 A 
ATOM     11  F   UNL     1       0.910   3.096  21.773  0.00  0.00    +0.000 F 
ATOM     12  C   UNL     1       2.323   4.668  20.724  0.00  0.00    +0.000 A 
ATOM     13  C   UNL     1       3.386   4.937  19.856  0.00  0.00    +0.000 A 
ENDBRANCH   3   7
BRANCH   1  15
ATOM     14  C   UNL     1       5.995   3.839  13.800  0.00  0.00    +0.000 C 
ATOM     15  S   UNL     1       7.030   4.870  14.873  0.00  0.00    +0.000 S 
ENDBRANCH   1  15
TORSDOF 2
ENDMDL
MODEL 7
REMARK VINA RESULT:      -6.0      1.646      2.486
REMARK  Name = 
REMARK  3 active torsions:
REMARK  status: ('A' for Active; 'I' for Inactive)
REMARK    1  A    between atoms: C_1  and  S_2
REMARK    2  A    between atoms: S_2  and  C_3
REMARK    3  A    between atoms: C_5  and  C_6
REMARK                            x       y       z     vdW  Elec       q    Type
REMARK                         _______ _______ _______ _____ _____    ______ ____
ROOT
ATOM      1  C   UNL     1       6.679   4.392  13.788  0.00  0.00    +0.000 A 
ATOM      2  C   UNL     1       5.677   4.094  14.669  0.00  0.00    +0.000 A 
ATOM      3  C   UNL     1       5.978   4.811  15.861  0.00  0.00    +0.000 A 
ATOM      4  N   UNL     1       7.116   5.513  15.707  0.00  0.00    +0.000 NA
ATOM      5  N   UNL     1       7.512   5.245  14.447  0.00  0.00    +0.000 N 
ATOM      6  H   UNL     1       8.360   5.675  14.096  0.00  0.00    +0.000 HD
ENDROOT
BRANCH   3   7
ATOM      7  C   UNL     1       5.197   4.827  17.105  0.00  0.00    +0.000 A 
ATOM      8  C   UNL     1       3.916   4.245  17.148  0.00  0.00    +0.000 A 
ATOM      9  C   UNL     1       3.151   4.275  18.315  0.00  0.00    +0.000 A 
ATOM     10  C   UNL     1       3.664   4.884  19.449  0.00  0.00    +0.000 A 
ATOM     11  F   UNL     1       2.927   4.920  20.566  0.00  0.00    +0.000 F 
ATOM     12  C   UNL     1       4.930   5.457  19.441  0.00  0.00    +0.000 A 
ATOM     13  C   UNL     1       5.696   5.427  18.271  0.00  0.00    +0.000 A 
ENDBRANCH   3   7
BRANCH   1  15
ATOM     14  C   UNL     1       5.639   2.795  11.810  0.00  0.00    +0.000 C 
ATOM     15  S   UNL     1       7.018   3.916  12.164  0.00  0.00    +0.000 S 
ENDBRANCH   1  15
TORSDOF 2
ENDMDL
MODEL 8
REMARK VINA RESULT:      -6.0      1.390      1.620
REMARK  Name = 
REMARK  3 active torsions:
REMARK  status: ('A' for Active; 'I' for Inactive)
REMARK    1  A    between atoms: C_1  and  S_2
REMARK    2  A    between atoms: S_2  and  C_3
REMARK    3  A    between atoms: C_5  and  C_6
REMARK                            x       y       z     vdW  Elec       q    Type
REMARK                         _______ _______ _______ _____ _____    ______ ____
ROOT
ATOM      1  C   UNL     1       5.550   5.039  16.343  0.00  0.00    +0.000 A 
ATOM      2  C   UNL     1       4.995   4.096  17.162  0.00  0.00    +0.000 A 
ATOM      3  C   UNL     1       4.081   4.795  18.000  0.00  0.00    +0.000 A 
ATOM      4  N   UNL     1       4.083   6.107  17.700  0.00  0.00    +0.000 NA
ATOM      5  N   UNL     1       4.973   6.223  16.694  0.00  0.00    +0.000 N 
ATOM      6  H   UNL     1       5.143   7.137  16.291  0.00  0.00    +0.000 HD
ENDROOT
BRANCH   3   7
ATOM      7  C   UNL     1       3.228   4.222  19.050  0.00  0.00    +0.000 A 
ATOM      8  C   UNL     1       3.744   3.260  19.939  0.00  0.00    +0.000 A 
ATOM      9  C   UNL     1       2.940   2.687  20.926  0.00  0.00    +0.000 A 
ATOM     10  C   UNL     1       1.614   3.076  21.032  0.00  0.00    +0.000 A 
ATOM     11  F   UNL     1       0.840   2.520  21.973  0.00  0.00    +0.000 F 
ATOM     12  C   UNL     1       1.078   4.031  20.176  0.00  0.00    +0.000 A 
ATOM     13  C   UNL     1       1.885   4.604  19.188  0.00  0.00    +0.000 A 
ENDBRANCH   3   7
BRANCH   1  15
ATOM     14  C   UNL     1       5.899   3.933  13.852  0.00  0.00    +0.000 C 
ATOM     15  S   UNL     1       6.726   4.978  15.081  0.00  0.00    +0.000 S 
ENDBRANCH   1  15
TORSDOF 2
ENDMDL
MODEL 9
REMARK VINA RESULT:      -6.0      4.133      6.157
REMARK  Name = 
REMARK  3 active torsions:
REMARK  status: ('A' for Active; 'I' for Inactive)
REMARK    1  A    between atoms: C_1  and  S_2
REMARK    2  A    between atoms: S_2  and  C_3
REMARK    3  A    between atoms: C_5  and  C_6
REMARK                            x       y       z     vdW  Elec       q    Type
REMARK                         _______ _______ _______ _____ _____    ______ ____
ROOT
ATOM      1  C   UNL     1       2.639   3.269  19.244  0.00  0.00    +0.000 A 
ATOM      2  C   UNL     1       3.003   3.692  17.995  0.00  0.00    +0.000 A 
ATOM      3  C   UNL     1       4.426   3.729  17.995  0.00  0.00    +0.000 A 
ATOM      4  N   UNL     1       4.902   3.346  19.194  0.00  0.00    +0.000 NA
ATOM      5  N   UNL     1       3.803   3.070  19.923  0.00  0.00    +0.000 N 
ATOM      6  H   UNL     1       3.914   2.751  20.878  0.00  0.00    +0.000 HD
ENDROOT
BRANCH   3   7
ATOM      7  C   UNL     1       5.300   4.115  16.879  0.00  0.00    +0.000 A 
ATOM      8  C   UNL     1       6.620   4.537  17.122  0.00  0.00    +0.000 A 
ATOM      9  C   UNL     1       7.455   4.930  16.075  0.00  0.00    +0.000 A 
ATOM     10  C   UNL     1       6.974   4.902  14.775  0.00  0.00    +0.000 A 
ATOM     11  F   UNL     1       7.772   5.288  13.772  0.00  0.00    +0.000 F 
ATOM     12  C   UNL     1       5.678   4.480  14.502  0.00  0.00    +0.000 A 
ATOM     13  C   UNL     1       4.843   4.086  15.552  0.00  0.00    +0.000 A 
ENDBRANCH   3   7
BRANCH   1  15
ATOM     14  C   UNL     1       1.615   2.684  21.724  0.00  0.00    +0.000 C 
ATOM     15  S   UNL     1       1.118   2.981  20.007  0.00  0.00    +0.000 S 
ENDBRANCH   1  15
TORSDOF 2
ENDMDL
