MODEL 1
REMARK VINA RESULT:      -7.7      0.000      0.000
REMARK  Name = 
REMARK  8 active torsions:
REMARK  status: ('A' for Active; 'I' for Inactive)
REMARK    1  A    between atoms: C_1  and  O_2
REMARK    2  A    between atoms: O_2  and  C_3
REMARK    3  A    between atoms: C_7  and  C_8
REMARK    4  A    between atoms: C_10  and  N_11
REMARK    5  A    between atoms: C_16  and  O_17
REMARK    6  A    between atoms: O_17  and  C_18
REMARK    7  A    between atoms: C_19  and  O_20
REMARK    8  A    between atoms: O_20  and  C_21
REMARK                            x       y       z     vdW  Elec       q    Type
REMARK                         _______ _______ _______ _____ _____    ______ ____
ROOT
ATOM      1  C   UNL     1       3.951   6.171  17.956  0.00  0.00    +0.000 A 
ATOM      2  N   UNL     1       3.483   5.503  19.025  0.00  0.00    +0.000 NA
ATOM      3  C   UNL     1       2.602   6.135  19.804  0.00  0.00    +0.000 A 
ATOM      4  C   UNL     1       2.143   7.418  19.536  0.00  0.00    +0.000 A 
ATOM      5  C   UNL     1       1.294   8.111  20.416  0.00  0.00    +0.000 A 
ATOM      6  C   UNL     1       0.842   9.397  20.137  0.00  0.00    +0.000 A 
ATOM      7  C   UNL     1       1.202   9.992  18.923  0.00  0.00    +0.000 A 
ATOM      8  C   UNL     1       2.059   9.284  18.048  0.00  0.00    +0.000 A 
ATOM      9  C   UNL     1       2.583   8.009  18.353  0.00  0.00    +0.000 A 
ATOM     10  N   UNL     1       3.492   7.383  17.566  0.00  0.00    +0.000 NA
ENDROOT
BRANCH   1  15
ATOM     11  C   UNL     1       6.396   4.966  15.283  0.00  0.00    +0.000 A 
ATOM     12  C   UNL     1       7.476   4.553  16.063  0.00  0.00    +0.000 A 
ATOM     13  C   UNL     1       7.389   4.595  17.446  0.00  0.00    +0.000 A 
ATOM     14  C   UNL     1       6.224   5.081  18.048  0.00  0.00    +0.000 A 
ATOM     15  C   UNL     1       5.123   5.549  17.290  0.00  0.00    +0.000 A 
ATOM     16  C   UNL     1       5.235   5.467  15.892  0.00  0.00    +0.000 A 
BRANCH  11  18
ATOM     17  C   UNL     1       6.135   3.685  13.319  0.00  0.00    +0.000 C 
ATOM     18  O   UNL     1       6.602   4.879  13.931  0.00  0.00    +0.000 OA
ENDBRANCH  11  18
ENDBRANCH   1  15
BRANCH   3  19
ATOM     19  N   UNL     1       2.125   5.431  20.923  0.00  0.00    +0.000 NA
ATOM     20  N   UNL     1       1.481   4.409  20.636  0.00  0.00    +0.000 NA
ATOM     21  N   UNL     1       0.896   3.456  20.417  0.00  0.00    +0.000 NA
ENDBRANCH   3  19
BRANCH   6  22
ATOM     22  O   UNL     1       0.078   9.888  21.160  0.00  0.00    +0.000 OA
ATOM     23  C   UNL     1      -0.497   8.998  22.102  0.00  0.00    +0.000 C 
ENDBRANCH   6  22
BRANCH   7  24
ATOM     24  O   UNL     1       0.732  11.254  18.702  0.00  0.00    +0.000 OA
ATOM     25  C   UNL     1       1.598  12.374  18.718  0.00  0.00    +0.000 C 
ENDBRANCH   7  24
TORSDOF 5
ENDMDL
MODEL 2
REMARK VINA RESULT:      -7.5      3.085      5.049
REMARK  Name = 
REMARK  8 active torsions:
REMARK  status: ('A' for Active; 'I' for Inactive)
REMARK    1  A    between atoms: C_1  and  O_2
REMARK    2  A    between atoms: O_2  and  C_3
REMARK    3  A    between atoms: C_7  and  C_8
REMARK    4  A    between atoms: C_10  and  N_11
REMARK    5  A    between atoms: C_16  and  O_17
REMARK    6  A    between atoms: O_17  and  C_18
REMARK    7  A    between atoms: C_19  and  O_20
REMARK    8  A    between atoms: O_20  and  C_21
REMARK                            x       y       z     vdW  Elec       q    Type
REMARK                         _______ _______ _______ _____ _____    ______ ____
ROOT
ATOM      1  C   UNL     1       5.475   4.727  15.564  0.00  0.00    +0.000 A 
ATOM      2  N   UNL     1       5.874   5.929  16.015  0.00  0.00    +0.000 NA
ATOM      3  C   UNL     1       5.223   6.436  17.064  0.00  0.00    +0.000 A 
ATOM      4  C   UNL     1       4.191   5.765  17.708  0.00  0.00    +0.000 A 
ATOM      5  C   UNL     1       3.448   6.351  18.746  0.00  0.00    +0.000 A 
ATOM      6  C   UNL     1       2.415   5.669  19.382  0.00  0.00    +0.000 A 
ATOM      7  C   UNL     1       2.148   4.347  19.011  0.00  0.00    +0.000 A 
ATOM      8  C   UNL     1       2.903   3.770  17.962  0.00  0.00    +0.000 A 
ATOM      9  C   UNL     1       3.903   4.477  17.260  0.00  0.00    +0.000 A 
ATOM     10  N   UNL     1       4.545   3.962  16.183  0.00  0.00    +0.000 NA
ENDROOT
BRANCH   1  15
ATOM     11  C   UNL     1       5.918   3.053  12.161  0.00  0.00    +0.000 A 
ATOM     12  C   UNL     1       6.985   3.779  11.634  0.00  0.00    +0.000 A 
ATOM     13  C   UNL     1       7.607   4.754  12.400  0.00  0.00    +0.000 A 
ATOM     14  C   UNL     1       7.135   5.022  13.689  0.00  0.00    +0.000 A 
ATOM     15  C   UNL     1       6.027   4.336  14.243  0.00  0.00    +0.000 A 
ATOM     16  C   UNL     1       5.439   3.336  13.450  0.00  0.00    +0.000 A 
BRANCH  11  18
ATOM     17  C   UNL     1       6.191   0.969  11.089  0.00  0.00    +0.000 C 
ATOM     18  O   UNL     1       5.387   2.119  11.311  0.00  0.00    +0.000 OA
ENDBRANCH  11  18
ENDBRANCH   1  15
BRANCH   3  19
ATOM     19  N   UNL     1       5.643   7.697  17.523  0.00  0.00    +0.000 NA
ATOM     20  N   UNL     1       6.867   7.884  17.425  0.00  0.00    +0.000 NA
ATOM     21  N   UNL     1       7.981   8.102  17.342  0.00  0.00    +0.000 NA
ENDBRANCH   3  19
BRANCH   6  22
ATOM     22  O   UNL     1       1.801   6.457  20.317  0.00  0.00    +0.000 OA
ATOM     23  C   UNL     1       1.847   7.867  20.192  0.00  0.00    +0.000 C 
ENDBRANCH   6  22
BRANCH   7  24
ATOM     24  O   UNL     1       1.124   3.727  19.666  0.00  0.00    +0.000 OA
ATOM     25  C   UNL     1       1.324   3.104  20.921  0.00  0.00    +0.000 C 
ENDBRANCH   7  24
TORSDOF 5
ENDMDL
MODEL 3
REMARK VINA RESULT:      -7.3      2.078      7.478
REMARK  Name = 
REMARK  8 active torsions:
REMARK  status: ('A' for Active; 'I' for Inactive)
REMARK    1  A    between atoms: C_1  and  O_2
REMARK    2  A    between atoms: O_2  and  C_3
REMARK    3  A    between atoms: C_7  and  C_8
REMARK    4  A    between atoms: C_10  and  N_11
REMARK    5  A    between atoms: C_16  and  O_17
REMARK    6  A    between atoms: O_17  and  C_18
REMARK    7  A    between atoms: C_19  and  O_20
REMARK    8  A    between atoms: O_20  and  C_21
REMARK                            x       y       z     vdW  Elec       q    Type
REMARK                         _______ _______ _______ _____ _____    ______ ____
ROOT
ATOM      1  C   UNL     1       1.775   7.509  20.088  0.00  0.00    +0.000 A 
ATOM      2  N   UNL     1       1.231   6.416  20.651  0.00  0.00    +0.000 NA
ATOM      3  C   UNL     1       1.630   5.228  20.191  0.00  0.00    +0.000 A 
ATOM      4  C   UNL     1       2.588   5.088  19.195  0.00  0.00    +0.000 A 
ATOM      5  C   UNL     1       2.926   3.838  18.650  0.00  0.00    +0.000 A 
ATOM      6  C   UNL     1       3.885   3.710  17.650  0.00  0.00    +0.000 A 
ATOM      7  C   UNL     1       4.568   4.852  17.217  0.00  0.00    +0.000 A 
ATOM      8  C   UNL     1       4.215   6.104  17.773  0.00  0.00    +0.000 A 
ATOM      9  C   UNL     1       3.192   6.256  18.734  0.00  0.00    +0.000 A 
ATOM     10  N   UNL     1       2.780   7.468  19.181  0.00  0.00    +0.000 NA
ENDROOT
BRANCH   1  15
ATOM     11  C   UNL     1       0.056  10.311  22.030  0.00  0.00    +0.000 A 
ATOM     12  C   UNL     1       0.034  11.331  21.081  0.00  0.00    +0.000 A 
ATOM     13  C   UNL     1       0.504  11.095  19.797  0.00  0.00    +0.000 A 
ATOM     14  C   UNL     1       1.026   9.838  19.476  0.00  0.00    +0.000 A 
ATOM     15  C   UNL     1       1.105   8.790  20.425  0.00  0.00    +0.000 A 
ATOM     16  C   UNL     1       0.595   9.056  21.707  0.00  0.00    +0.000 A 
BRANCH  11  18
ATOM     17  C   UNL     1      -1.612  11.458  23.242  0.00  0.00    +0.000 C 
ATOM     18  O   UNL     1      -0.433  10.664  23.260  0.00  0.00    +0.000 OA
ENDBRANCH  11  18
ENDBRANCH   1  15
BRANCH   3  19
ATOM     19  N   UNL     1       1.049   4.092  20.780  0.00  0.00    +0.000 NA
ATOM     20  N   UNL     1       1.832   3.437  21.487  0.00  0.00    +0.000 NA
ATOM     21  N   UNL     1       2.514   2.815  22.155  0.00  0.00    +0.000 NA
ENDBRANCH   3  19
BRANCH   6  22
ATOM     22  O   UNL     1       4.004   2.411  17.238  0.00  0.00    +0.000 OA
ATOM     23  C   UNL     1       3.622   1.357  18.105  0.00  0.00    +0.000 C 
ENDBRANCH   6  22
BRANCH   7  24
ATOM     24  O   UNL     1       5.497   4.669  16.235  0.00  0.00    +0.000 OA
ATOM     25  C   UNL     1       6.869   4.505  16.543  0.00  0.00    +0.000 C 
ENDBRANCH   7  24
TORSDOF 5
ENDMDL
MODEL 4
REMARK VINA RESULT:      -7.3      3.351      4.942
REMARK  Name = 
REMARK  8 active torsions:
REMARK  status: ('A' for Active; 'I' for Inactive)
REMARK    1  A    between atoms: C_1  and  O_2
REMARK    2  A    between atoms: O_2  and  C_3
REMARK    3  A    between atoms: C_7  and  C_8
REMARK    4  A    between atoms: C_10  and  N_11
REMARK    5  A    between atoms: C_16  and  O_17
REMARK    6  A    between atoms: O_17  and  C_18
REMARK    7  A    between atoms: C_19  and  O_20
REMARK    8  A    between atoms: O_20  and  C_21
REMARK                            x       y       z     vdW  Elec       q    Type
REMARK                         _______ _______ _______ _____ _____    ______ ____
ROOT
ATOM      1  C   UNL     1       5.752   4.392  15.792  0.00  0.00    +0.000 A 
ATOM      2  N   UNL     1       6.489   5.186  16.590  0.00  0.00    +0.000 NA
ATOM      3  C   UNL     1       5.941   5.570  17.745  0.00  0.00    +0.000 A 
ATOM      4  C   UNL     1       4.677   5.162  18.153  0.00  0.00    +0.000 A 
ATOM      5  C   UNL     1       4.071   5.653  19.321  0.00  0.00    +0.000 A 
ATOM      6  C   UNL     1       2.804   5.239  19.719  0.00  0.00    +0.000 A 
ATOM      7  C   UNL     1       2.141   4.267  18.961  0.00  0.00    +0.000 A 
ATOM      8  C   UNL     1       2.762   3.784  17.785  0.00  0.00    +0.000 A 
ATOM      9  C   UNL     1       4.015   4.252  17.332  0.00  0.00    +0.000 A 
ATOM     10  N   UNL     1       4.554   3.871  16.148  0.00  0.00    +0.000 NA
ENDROOT
BRANCH   1  15
ATOM     11  C   UNL     1       6.193   3.207  12.190  0.00  0.00    +0.000 A 
ATOM     12  C   UNL     1       7.163   4.093  11.725  0.00  0.00    +0.000 A 
ATOM     13  C   UNL     1       7.727   5.021  12.588  0.00  0.00    +0.000 A 
ATOM     14  C   UNL     1       7.291   5.079  13.916  0.00  0.00    +0.000 A 
ATOM     15  C   UNL     1       6.277   4.224  14.414  0.00  0.00    +0.000 A 
ATOM     16  C   UNL     1       5.749   3.279  13.519  0.00  0.00    +0.000 A 
BRANCH  11  18
ATOM     17  C   UNL     1       6.456   1.139  11.084  0.00  0.00    +0.000 C 
ATOM     18  O   UNL     1       5.712   2.339  11.245  0.00  0.00    +0.000 OA
ENDBRANCH  11  18
ENDBRANCH   1  15
BRANCH   3  19
ATOM     19  N   UNL     1       6.715   6.407  18.567  0.00  0.00    +0.000 NA
ATOM     20  N   UNL     1       7.373   5.796  19.426  0.00  0.00    +0.000 NA
ATOM     21  N   UNL     1       8.002   5.275  20.219  0.00  0.00    +0.000 NA
ENDBRANCH   3  19
BRANCH   6  22
ATOM     22  O   UNL     1       2.400   5.891  20.852  0.00  0.00    +0.000 OA
ATOM     23  C   UNL     1       1.679   7.106  20.748  0.00  0.00    +0.000 C 
ENDBRANCH   6  22
BRANCH   7  24
ATOM     24  O   UNL     1       0.901   3.899  19.396  0.00  0.00    +0.000 OA
ATOM     25  C   UNL     1       0.732   2.853  20.334  0.00  0.00    +0.000 C 
ENDBRANCH   7  24
TORSDOF 5
ENDMDL
MODEL 5
REMARK VINA RESULT:      -7.1      1.587      2.082
REMARK  Name = 
REMARK  8 active torsions:
REMARK  status: ('A' for Active; 'I' for Inactive)
REMARK    1  A    between atoms: C_1  and  O_2
REMARK    2  A    between atoms: O_2  and  C_3
REMARK    3  A    between atoms: C_7  and  C_8
REMARK    4  A    between atoms: C_10  and  N_11
REMARK    5  A    between atoms: C_16  and  O_17
REMARK    6  A    between atoms: O_17  and  C_18
REMARK    7  A    between atoms: C_19  and  O_20
REMARK    8  A    between atoms: O_20  and  C_21
REMARK                            x       y       z     vdW  Elec       q    Type
REMARK                         _______ _______ _______ _____ _____    ______ ____
ROOT
ATOM      1  C   UNL     1       3.352   6.520  18.307  0.00  0.00    +0.000 A 
ATOM      2  N   UNL     1       3.004   5.624  19.248  0.00  0.00    +0.000 NA
ATOM      3  C   UNL     1       2.122   6.016  20.169  0.00  0.00    +0.000 A 
ATOM      4  C   UNL     1       1.543   7.279  20.171  0.00  0.00    +0.000 A 
ATOM      5  C   UNL     1       0.694   7.714  21.202  0.00  0.00    +0.000 A 
ATOM      6  C   UNL     1       0.122   8.983  21.194  0.00  0.00    +0.000 A 
ATOM      7  C   UNL     1       0.359   9.825  20.102  0.00  0.00    +0.000 A 
ATOM      8  C   UNL     1       1.219   9.375  19.072  0.00  0.00    +0.000 A 
ATOM      9  C   UNL     1       1.863   8.119  19.106  0.00  0.00    +0.000 A 
ATOM     10  N   UNL     1       2.773   7.737  18.176  0.00  0.00    +0.000 NA
ENDROOT
BRANCH   1  15
ATOM     11  C   UNL     1       6.827   6.511  16.724  0.00  0.00    +0.000 A 
ATOM     12  C   UNL     1       6.832   5.275  16.079  0.00  0.00    +0.000 A 
ATOM     13  C   UNL     1       5.695   4.480  16.092  0.00  0.00    +0.000 A 
ATOM     14  C   UNL     1       4.559   4.915  16.783  0.00  0.00    +0.000 A 
ATOM     15  C   UNL     1       4.529   6.144  17.486  0.00  0.00    +0.000 A 
ATOM     16  C   UNL     1       5.689   6.936  17.428  0.00  0.00    +0.000 A 
BRANCH  11  18
ATOM     17  C   UNL     1       8.149   8.275  17.565  0.00  0.00    +0.000 C 
ATOM     18  O   UNL     1       8.006   7.203  16.642  0.00  0.00    +0.000 OA
ENDBRANCH  11  18
ENDBRANCH   1  15
BRANCH   3  19
ATOM     19  N   UNL     1       1.771   5.075  21.153  0.00  0.00    +0.000 NA
ATOM     20  N   UNL     1       1.315   4.015  20.693  0.00  0.00    +0.000 NA
ATOM     21  N   UNL     1       0.906   3.023  20.313  0.00  0.00    +0.000 NA
ENDBRANCH   3  19
BRANCH   6  22
ATOM     22  O   UNL     1      -0.618   9.201  22.324  0.00  0.00    +0.000 OA
ATOM     23  C   UNL     1       0.025   9.580  23.528  0.00  0.00    +0.000 C 
ENDBRANCH   6  22
BRANCH   7  24
ATOM     24  O   UNL     1      -0.225  11.057  20.147  0.00  0.00    +0.000 OA
ATOM     25  C   UNL     1      -1.411  11.335  19.425  0.00  0.00    +0.000 C 
ENDBRANCH   7  24
TORSDOF 5
ENDMDL
MODEL 6
REMARK VINA RESULT:      -7.1      1.102      1.206
REMARK  Name = 
REMARK  8 active torsions:
REMARK  status: ('A' for Active; 'I' for Inactive)
REMARK    1  A    between atoms: C_1  and  O_2
REMARK    2  A    between atoms: O_2  and  C_3
REMARK    3  A    between atoms: C_7  and  C_8
REMARK    4  A    between atoms: C_10  and  N_11
REMARK    5  A    between atoms: C_16  and  O_17
REMARK    6  A    between atoms: O_17  and  C_18
REMARK    7  A    between atoms: C_19  and  O_20
REMARK    8  A    between atoms: O_20  and  C_21
REMARK                            x       y       z     vdW  Elec       q    Type
REMARK                         _______ _______ _______ _____ _____    ______ ____
ROOT
ATOM      1  C   UNL     1       4.048   5.706  17.414  0.00  0.00    +0.000 A 
ATOM      2  N   UNL     1       3.824   4.905  18.470  0.00  0.00    +0.000 NA
ATOM      3  C   UNL     1       3.093   5.402  19.470  0.00  0.00    +0.000 A 
ATOM      4  C   UNL     1       2.545   6.678  19.443  0.00  0.00    +0.000 A 
ATOM      5  C   UNL     1       1.863   7.226  20.542  0.00  0.00    +0.000 A 
ATOM      6  C   UNL     1       1.320   8.507  20.503  0.00  0.00    +0.000 A 
ATOM      7  C   UNL     1       1.411   9.244  19.318  0.00  0.00    +0.000 A 
ATOM      8  C   UNL     1       2.103   8.681  18.219  0.00  0.00    +0.000 A 
ATOM      9  C   UNL     1       2.722   7.413  18.272  0.00  0.00    +0.000 A 
ATOM     10  N   UNL     1       3.479   6.925  17.259  0.00  0.00    +0.000 NA
ENDROOT
BRANCH   1  15
ATOM     11  C   UNL     1       5.756   4.218  14.340  0.00  0.00    +0.000 A 
ATOM     12  C   UNL     1       7.093   4.521  14.594  0.00  0.00    +0.000 A 
ATOM     13  C   UNL     1       7.451   5.136  15.784  0.00  0.00    +0.000 A 
ATOM     14  C   UNL     1       6.459   5.476  16.709  0.00  0.00    +0.000 A 
ATOM     15  C   UNL     1       5.086   5.224  16.469  0.00  0.00    +0.000 A 
ATOM     16  C   UNL     1       4.762   4.576  15.265  0.00  0.00    +0.000 A 
BRANCH  11  18
ATOM     17  C   UNL     1       6.623   3.619  12.229  0.00  0.00    +0.000 C 
ATOM     18  O   UNL     1       5.526   3.613  13.132  0.00  0.00    +0.000 OA
ENDBRANCH  11  18
ENDBRANCH   1  15
BRANCH   3  19
ATOM     19  N   UNL     1       2.871   4.559  20.574  0.00  0.00    +0.000 NA
ATOM     20  N   UNL     1       2.149   3.581  20.321  0.00  0.00    +0.000 NA
ATOM     21  N   UNL     1       1.502   2.664  20.129  0.00  0.00    +0.000 NA
ENDBRANCH   3  19
BRANCH   6  22
ATOM     22  O   UNL     1       0.756   8.844  21.703  0.00  0.00    +0.000 OA
ATOM     23  C   UNL     1      -0.625   8.616  21.923  0.00  0.00    +0.000 C 
ENDBRANCH   6  22
BRANCH   7  24
ATOM     24  O   UNL     1       0.863  10.493  19.336  0.00  0.00    +0.000 OA
ATOM     25  C   UNL     1      -0.341  10.778  18.648  0.00  0.00    +0.000 C 
ENDBRANCH   7  24
TORSDOF 5
ENDMDL
MODEL 7
REMARK VINA RESULT:      -7.0      1.034      1.141
REMARK  Name = 
REMARK  8 active torsions:
REMARK  status: ('A' for Active; 'I' for Inactive)
REMARK    1  A    between atoms: C_1  and  O_2
REMARK    2  A    between atoms: O_2  and  C_3
REMARK    3  A    between atoms: C_7  and  C_8
REMARK    4  A    between atoms: C_10  and  N_11
REMARK    5  A    between atoms: C_16  and  O_17
REMARK    6  A    between atoms: O_17  and  C_18
REMARK    7  A    between atoms: C_19  and  O_20
REMARK    8  A    between atoms: O_20  and  C_21
REMARK                            x       y       z     vdW  Elec       q    Type
REMARK                         _______ _______ _______ _____ _____    ______ ____
ROOT
ATOM      1  C   UNL     1       3.429   5.968  17.758  0.00  0.00    +0.000 A 
ATOM      2  N   UNL     1       3.109   5.349  18.908  0.00  0.00    +0.000 NA
ATOM      3  C   UNL     1       2.444   6.061  19.821  0.00  0.00    +0.000 A 
ATOM      4  C   UNL     1       2.057   7.379  19.615  0.00  0.00    +0.000 A 
ATOM      5  C   UNL     1       1.448   8.148  20.621  0.00  0.00    +0.000 A 
ATOM      6  C   UNL     1       1.065   9.468  20.404  0.00  0.00    +0.000 A 
ATOM      7  C   UNL     1       1.246  10.024  19.132  0.00  0.00    +0.000 A 
ATOM      8  C   UNL     1       1.863   9.238  18.130  0.00  0.00    +0.000 A 
ATOM      9  C   UNL     1       2.322   7.923  18.361  0.00  0.00    +0.000 A 
ATOM     10  N   UNL     1       3.013   7.215  17.434  0.00  0.00    +0.000 NA
ENDROOT
BRANCH   1  15
ATOM     11  C   UNL     1       6.406   5.179  15.502  0.00  0.00    +0.000 A 
ATOM     12  C   UNL     1       6.358   3.786  15.459  0.00  0.00    +0.000 A 
ATOM     13  C   UNL     1       5.328   3.107  16.094  0.00  0.00    +0.000 A 
ATOM     14  C   UNL     1       4.360   3.830  16.800  0.00  0.00    +0.000 A 
ATOM     15  C   UNL     1       4.399   5.242  16.902  0.00  0.00    +0.000 A 
ATOM     16  C   UNL     1       5.441   5.898  16.225  0.00  0.00    +0.000 A 
BRANCH  11  18
ATOM     17  C   UNL     1       7.710   5.223  13.536  0.00  0.00    +0.000 C 
ATOM     18  O   UNL     1       7.469   5.734  14.840  0.00  0.00    +0.000 OA
ENDBRANCH  11  18
ENDBRANCH   1  15
BRANCH   3  19
ATOM     19  N   UNL     1       2.121   5.407  21.023  0.00  0.00    +0.000 NA
ATOM     20  N   UNL     1       1.516   4.335  20.864  0.00  0.00    +0.000 NA
ATOM     21  N   UNL     1       0.971   3.340  20.763  0.00  0.00    +0.000 NA
ENDBRANCH   3  19
BRANCH   6  22
ATOM     22  O   UNL     1       0.547  10.029  21.539  0.00  0.00    +0.000 OA
ATOM     23  C   UNL     1      -0.154   9.222  22.469  0.00  0.00    +0.000 C 
ENDBRANCH   6  22
BRANCH   7  24
ATOM     24  O   UNL     1       0.855  11.321  18.975  0.00  0.00    +0.000 OA
ATOM     25  C   UNL     1      -0.482  11.652  18.648  0.00  0.00    +0.000 C 
ENDBRANCH   7  24
TORSDOF 5
ENDMDL
MODEL 8
REMARK VINA RESULT:      -7.0      4.649      6.817
REMARK  Name = 
REMARK  8 active torsions:
REMARK  status: ('A' for Active; 'I' for Inactive)
REMARK    1  A    between atoms: C_1  and  O_2
REMARK    2  A    between atoms: O_2  and  C_3
REMARK    3  A    between atoms: C_7  and  C_8
REMARK    4  A    between atoms: C_10  and  N_11
REMARK    5  A    between atoms: C_16  and  O_17
REMARK    6  A    between atoms: O_17  and  C_18
REMARK    7  A    between atoms: C_19  and  O_20
REMARK    8  A    between atoms: O_20  and  C_21
REMARK                            x       y       z     vdW  Elec       q    Type
REMARK                         _______ _______ _______ _____ _____    ______ ____
ROOT
ATOM      1  C   UNL     1       6.973   7.864  17.397  0.00  0.00    +0.000 A 
ATOM      2  N   UNL     1       7.571   6.948  16.617  0.00  0.00    +0.000 NA
ATOM      3  C   UNL     1       6.914   5.806  16.399  0.00  0.00    +0.000 A 
ATOM      4  C   UNL     1       5.650   5.553  16.917  0.00  0.00    +0.000 A 
ATOM      5  C   UNL     1       5.013   4.310  16.766  0.00  0.00    +0.000 A 
ATOM      6  C   UNL     1       3.747   4.068  17.290  0.00  0.00    +0.000 A 
ATOM      7  C   UNL     1       3.073   5.108  17.939  0.00  0.00    +0.000 A 
ATOM      8  C   UNL     1       3.728   6.353  18.087  0.00  0.00    +0.000 A 
ATOM      9  C   UNL     1       5.041   6.588  17.623  0.00  0.00    +0.000 A 
ATOM     10  N   UNL     1       5.708   7.743  17.866  0.00  0.00    +0.000 NA
ENDROOT
BRANCH   1  15
ATOM     11  C   UNL     1       8.504  11.338  17.804  0.00  0.00    +0.000 A 
ATOM     12  C   UNL     1       9.380  11.130  18.868  0.00  0.00    +0.000 A 
ATOM     13  C   UNL     1       9.532   9.860  19.404  0.00  0.00    +0.000 A 
ATOM     14  C   UNL     1       8.777   8.801  18.889  0.00  0.00    +0.000 A 
ATOM     15  C   UNL     1       7.845   8.981  17.838  0.00  0.00    +0.000 A 
ATOM     16  C   UNL     1       7.737  10.275  17.301  0.00  0.00    +0.000 A 
BRANCH  11  18
ATOM     17  C   UNL     1       8.908  13.614  18.276  0.00  0.00    +0.000 C 
ATOM     18  O   UNL     1       8.440  12.633  17.361  0.00  0.00    +0.000 OA
ENDBRANCH  11  18
ENDBRANCH   1  15
BRANCH   3  19
ATOM     19  N   UNL     1       7.552   4.851  15.589  0.00  0.00    +0.000 NA
ATOM     20  N   UNL     1       7.831   5.264  14.452  0.00  0.00    +0.000 NA
ATOM     21  N   UNL     1       8.117   5.607  13.403  0.00  0.00    +0.000 NA
ENDBRANCH   3  19
BRANCH   6  22
ATOM     22  O   UNL     1       3.356   2.776  17.068  0.00  0.00    +0.000 OA
ATOM     23  C   UNL     1       3.531   1.800  18.081  0.00  0.00    +0.000 C 
ENDBRANCH   6  22
BRANCH   7  24
ATOM     24  O   UNL     1       1.837   4.814  18.436  0.00  0.00    +0.000 OA
ATOM     25  C   UNL     1       1.648   4.507  19.804  0.00  0.00    +0.000 C 
ENDBRANCH   7  24
TORSDOF 5
ENDMDL
MODEL 9
REMARK VINA RESULT:      -7.0      2.064      7.145
REMARK  Name = 
REMARK  8 active torsions:
REMARK  status: ('A' for Active; 'I' for Inactive)
REMARK    1  A    between atoms: C_1  and  O_2
REMARK    2  A    between atoms: O_2  and  C_3
REMARK    3  A    between atoms: C_7  and  C_8
REMARK    4  A    between atoms: C_10  and  N_11
REMARK    5  A    between atoms: C_16  and  O_17
REMARK    6  A    between atoms: O_17  and  C_18
REMARK    7  A    between atoms: C_19  and  O_20
REMARK    8  A    between atoms: O_20  and  C_21
REMARK                            x       y       z     vdW  Elec       q    Type
REMARK                         _______ _______ _______ _____ _____    ______ ____
ROOT
ATOM      1  C   UNL     1       1.738   7.446  20.309  0.00  0.00    +0.000 A 
ATOM      2  N   UNL     1       1.233   6.319  20.841  0.00  0.00    +0.000 NA
ATOM      3  C   UNL     1       1.627   5.161  20.309  0.00  0.00    +0.000 A 
ATOM      4  C   UNL     1       2.544   5.082  19.268  0.00  0.00    +0.000 A 
ATOM      5  C   UNL     1       2.874   3.864  18.650  0.00  0.00    +0.000 A 
ATOM      6  C   UNL     1       3.792   3.798  17.606  0.00  0.00    +0.000 A 
ATOM      7  C   UNL     1       4.440   4.970  17.200  0.00  0.00    +0.000 A 
ATOM      8  C   UNL     1       4.096   6.189  17.830  0.00  0.00    +0.000 A 
ATOM      9  C   UNL     1       3.112   6.279  18.839  0.00  0.00    +0.000 A 
ATOM     10  N   UNL     1       2.704   7.462  19.359  0.00  0.00    +0.000 NA
ENDROOT
BRANCH   1  15
ATOM     11  C   UNL     1      -0.031  10.828  20.232  0.00  0.00    +0.000 A 
ATOM     12  C   UNL     1      -0.410  10.971  21.567  0.00  0.00    +0.000 A 
ATOM     13  C   UNL     1      -0.033  10.018  22.501  0.00  0.00    +0.000 A 
ATOM     14  C   UNL     1       0.700   8.901  22.088  0.00  0.00    +0.000 A 
ATOM     15  C   UNL     1       1.067   8.699  20.735  0.00  0.00    +0.000 A 
ATOM     16  C   UNL     1       0.692   9.698  19.820  0.00  0.00    +0.000 A 
BRANCH  11  18
ATOM     17  C   UNL     1      -1.693  11.586  18.740  0.00  0.00    +0.000 C 
ATOM     18  O   UNL     1      -0.462  11.832  19.405  0.00  0.00    +0.000 OA
ENDBRANCH  11  18
ENDBRANCH   1  15
BRANCH   3  19
ATOM     19  N   UNL     1       1.087   3.989  20.867  0.00  0.00    +0.000 NA
ATOM     20  N   UNL     1       1.910   3.308  21.499  0.00  0.00    +0.000 NA
ATOM     21  N   UNL     1       2.630   2.661  22.100  0.00  0.00    +0.000 NA
ENDBRANCH   3  19
BRANCH   6  22
ATOM     22  O   UNL     1       3.910   2.522  17.128  0.00  0.00    +0.000 OA
ATOM     23  C   UNL     1       3.675   1.421  17.988  0.00  0.00    +0.000 C 
ENDBRANCH   6  22
BRANCH   7  24
ATOM     24  O   UNL     1       5.329   4.847  16.172  0.00  0.00    +0.000 OA
ATOM     25  C   UNL     1       6.658   5.320  16.289  0.00  0.00    +0.000 C 
ENDBRANCH   7  24
TORSDOF 5
ENDMDL
