MODEL 1
REMARK VINA RESULT:      -6.1      0.000      0.000
REMARK  Name = 
REMARK  8 active torsions:
REMARK  status: ('A' for Active; 'I' for Inactive)
REMARK    1  A    between atoms: C_1  and  O_2
REMARK    2  A    between atoms: O_2  and  C_3
REMARK    3  A    between atoms: C_5  and  O_6
REMARK    4  A    between atoms: O_6  and  C_7
REMARK    5  A    between atoms: C_9  and  C_10
REMARK    6  A    between atoms: C_11  and  C_12
REMARK    7  A    between atoms: C_13  and  C_14
REMARK    8  A    between atoms: N_26  and  C_27
REMARK                            x       y       z     vdW  Elec       q    Type
REMARK                         _______ _______ _______ _____ _____    ______ ____
ROOT
ATOM      1  C   UNL     1      -0.056  13.419  18.892  0.00  0.00    +0.000 A 
ATOM      2  C   UNL     1       1.151  12.763  18.679  0.00  0.00    +0.000 A 
ATOM      3  C   UNL     1       2.189  13.698  18.501  0.00  0.00    +0.000 A 
ATOM      4  C   UNL     1       3.543  13.583  18.131  0.00  0.00    +0.000 A 
ATOM      5  C   UNL     1       4.381  14.680  18.299  0.00  0.00    +0.000 A 
ATOM      6 BR   UNL     1       6.213  14.513  17.859  0.00  0.00    +0.000 Br
ATOM      7  C   UNL     1       3.889  15.871  18.823  0.00  0.00    +0.000 A 
ATOM      8  C   UNL     1       2.520  16.031  19.096  0.00  0.00    +0.000 A 
ATOM      9  C   UNL     1       1.670  14.931  18.890  0.00  0.00    +0.000 A 
ATOM     10  N   UNL     1       0.289  14.768  18.957  0.00  0.00    +0.000 N 
ATOM     11  C   UNL     1      -0.647  15.873  18.926  0.00  0.00    +0.000 C 
ENDROOT
BRANCH   1  16
ATOM     12  C   UNL     1      -3.120  11.522  17.753  0.00  0.00    +0.000 A 
ATOM     13  C   UNL     1      -3.986  11.705  18.823  0.00  0.00    +0.000 A 
ATOM     14  C   UNL     1      -3.592  12.423  19.955  0.00  0.00    +0.000 A 
ATOM     15  C   UNL     1      -2.298  12.969  20.018  0.00  0.00    +0.000 A 
ATOM     16  C   UNL     1      -1.421  12.834  18.935  0.00  0.00    +0.000 A 
ATOM     17  C   UNL     1      -1.851  12.090  17.818  0.00  0.00    +0.000 A 
BRANCH  12  19
ATOM     18  C   UNL     1      -2.844  10.767  15.513  0.00  0.00    +0.000 C 
ATOM     19  O   UNL     1      -3.619  10.799  16.707  0.00  0.00    +0.000 OA
ENDBRANCH  12  19
BRANCH  14  20
ATOM     20  O   UNL     1      -4.572  12.520  20.903  0.00  0.00    +0.000 OA
ATOM     21  C   UNL     1      -5.894  12.172  20.535  0.00  0.00    +0.000 C 
ENDBRANCH  14  20
ENDBRANCH   1  16
BRANCH   2  22
ATOM     22  C   UNL     1       1.368  11.358  18.690  0.00  0.00    +0.000 C 
ATOM     23  C   UNL     1       1.661  10.200  18.686  0.00  0.00    +0.000 C 
BRANCH  23  24
ATOM     24  C   UNL     1       2.031   8.827  18.748  0.00  0.00    +0.000 A 
ATOM     25  C   UNL     1       1.818   7.985  19.869  0.00  0.00    +0.000 A 
ATOM     26  C   UNL     1       2.377   6.741  19.682  0.00  0.00    +0.000 A 
ATOM     27  S   UNL     1       3.077   6.573  18.127  0.00  0.00    +0.000 S 
ATOM     28  C   UNL     1       2.664   8.182  17.708  0.00  0.00    +0.000 A 
ENDBRANCH  23  24
ENDBRANCH   2  22
TORSDOF 5
ENDMDL
MODEL 2
REMARK VINA RESULT:      -5.8      4.635      7.083
REMARK  Name = 
REMARK  8 active torsions:
REMARK  status: ('A' for Active; 'I' for Inactive)
REMARK    1  A    between atoms: C_1  and  O_2
REMARK    2  A    between atoms: O_2  and  C_3
REMARK    3  A    between atoms: C_5  and  O_6
REMARK    4  A    between atoms: O_6  and  C_7
REMARK    5  A    between atoms: C_9  and  C_10
REMARK    6  A    between atoms: C_11  and  C_12
REMARK    7  A    between atoms: C_13  and  C_14
REMARK    8  A    between atoms: N_26  and  C_27
REMARK                            x       y       z     vdW  Elec       q    Type
REMARK                         _______ _______ _______ _____ _____    ______ ____
ROOT
ATOM      1  C   UNL     1      -4.486  12.554  19.571  0.00  0.00    +0.000 A 
ATOM      2  C   UNL     1      -3.143  12.513  19.928  0.00  0.00    +0.000 A 
ATOM      3  C   UNL     1      -2.468  11.533  19.174  0.00  0.00    +0.000 A 
ATOM      4  C   UNL     1      -1.166  10.999  19.226  0.00  0.00    +0.000 A 
ATOM      5  C   UNL     1      -0.717  10.220  18.165  0.00  0.00    +0.000 A 
ATOM      6 BR   UNL     1       1.050   9.548  18.200  0.00  0.00    +0.000 Br
ATOM      7  C   UNL     1      -1.541   9.973  17.071  0.00  0.00    +0.000 A 
ATOM      8  C   UNL     1      -2.876  10.411  17.057  0.00  0.00    +0.000 A 
ATOM      9  C   UNL     1      -3.337  11.167  18.149  0.00  0.00    +0.000 A 
ATOM     10  N   UNL     1      -4.589  11.662  18.504  0.00  0.00    +0.000 N 
ATOM     11  C   UNL     1      -5.830  11.172  17.942  0.00  0.00    +0.000 C 
ENDROOT
BRANCH   1  16
ATOM     12  C   UNL     1      -7.195  13.336  22.087  0.00  0.00    +0.000 A 
ATOM     13  C   UNL     1      -7.712  14.527  21.593  0.00  0.00    +0.000 A 
ATOM     14  C   UNL     1      -7.177  15.125  20.449  0.00  0.00    +0.000 A 
ATOM     15  C   UNL     1      -6.099  14.516  19.784  0.00  0.00    +0.000 A 
ATOM     16  C   UNL     1      -5.588  13.293  20.238  0.00  0.00    +0.000 A 
ATOM     17  C   UNL     1      -6.144  12.731  21.404  0.00  0.00    +0.000 A 
BRANCH  12  19
ATOM     18  C   UNL     1      -7.709  13.654  24.389  0.00  0.00    +0.000 C 
ATOM     19  O   UNL     1      -7.799  12.855  23.214  0.00  0.00    +0.000 OA
ENDBRANCH  12  19
BRANCH  14  20
ATOM     20  O   UNL     1      -7.814  16.282  20.094  0.00  0.00    +0.000 OA
ATOM     21  C   UNL     1      -7.026  17.437  19.872  0.00  0.00    +0.000 C 
ENDBRANCH  14  20
ENDBRANCH   1  16
BRANCH   2  22
ATOM     22  C   UNL     1      -2.487  13.356  20.865  0.00  0.00    +0.000 C 
ATOM     23  C   UNL     1      -2.036  14.083  21.700  0.00  0.00    +0.000 C 
BRANCH  23  24
ATOM     24  C   UNL     1      -1.503  14.894  22.741  0.00  0.00    +0.000 A 
ATOM     25  C   UNL     1      -1.606  14.600  24.124  0.00  0.00    +0.000 A 
ATOM     26  C   UNL     1      -1.094  15.616  24.898  0.00  0.00    +0.000 A 
ATOM     27  S   UNL     1      -0.420  16.875  23.950  0.00  0.00    +0.000 S 
ATOM     28  C   UNL     1      -0.842  16.077  22.494  0.00  0.00    +0.000 A 
ENDBRANCH  23  24
ENDBRANCH   2  22
TORSDOF 5
ENDMDL
MODEL 3
REMARK VINA RESULT:      -5.8      0.366      2.235
REMARK  Name = 
REMARK  8 active torsions:
REMARK  status: ('A' for Active; 'I' for Inactive)
REMARK    1  A    between atoms: C_1  and  O_2
REMARK    2  A    between atoms: O_2  and  C_3
REMARK    3  A    between atoms: C_5  and  O_6
REMARK    4  A    between atoms: O_6  and  C_7
REMARK    5  A    between atoms: C_9  and  C_10
REMARK    6  A    between atoms: C_11  and  C_12
REMARK    7  A    between atoms: C_13  and  C_14
REMARK    8  A    between atoms: N_26  and  C_27
REMARK                            x       y       z     vdW  Elec       q    Type
REMARK                         _______ _______ _______ _____ _____    ______ ____
ROOT
ATOM      1  C   UNL     1       0.150  13.470  18.776  0.00  0.00    +0.000 A 
ATOM      2  C   UNL     1       1.371  12.818  18.649  0.00  0.00    +0.000 A 
ATOM      3  C   UNL     1       2.400  13.751  18.413  0.00  0.00    +0.000 A 
ATOM      4  C   UNL     1       3.763  13.625  18.084  0.00  0.00    +0.000 A 
ATOM      5  C   UNL     1       4.582  14.746  18.173  0.00  0.00    +0.000 A 
ATOM      6 BR   UNL     1       6.426  14.572  17.791  0.00  0.00    +0.000 Br
ATOM      7  C   UNL     1       4.061  15.971  18.579  0.00  0.00    +0.000 A 
ATOM      8  C   UNL     1       2.683  16.132  18.806  0.00  0.00    +0.000 A 
ATOM      9  C   UNL     1       1.855  15.004  18.679  0.00  0.00    +0.000 A 
ATOM     10  N   UNL     1       0.474  14.826  18.730  0.00  0.00    +0.000 N 
ATOM     11  C   UNL     1      -0.477  15.908  18.579  0.00  0.00    +0.000 C 
ENDROOT
BRANCH   1  16
ATOM     12  C   UNL     1      -3.248  12.568  20.160  0.00  0.00    +0.000 A 
ATOM     13  C   UNL     1      -3.767  11.767  19.151  0.00  0.00    +0.000 A 
ATOM     14  C   UNL     1      -3.043  11.522  17.981  0.00  0.00    +0.000 A 
ATOM     15  C   UNL     1      -1.769  12.093  17.819  0.00  0.00    +0.000 A 
ATOM     16  C   UNL     1      -1.206  12.870  18.840  0.00  0.00    +0.000 A 
ATOM     17  C   UNL     1      -1.975  13.106  19.997  0.00  0.00    +0.000 A 
BRANCH  12  19
ATOM     18  C   UNL     1      -5.445  12.918  21.006  0.00  0.00    +0.000 C 
ATOM     19  O   UNL     1      -4.054  12.737  21.251  0.00  0.00    +0.000 OA
ENDBRANCH  12  19
BRANCH  14  20
ATOM     20  O   UNL     1      -3.694  10.702  17.102  0.00  0.00    +0.000 OA
ATOM     21  C   UNL     1      -3.527  10.941  15.717  0.00  0.00    +0.000 C 
ENDBRANCH  14  20
ENDBRANCH   1  16
BRANCH   2  22
ATOM     22  C   UNL     1       1.608  11.424  18.790  0.00  0.00    +0.000 C 
ATOM     23  C   UNL     1       1.793  10.243  18.796  0.00  0.00    +0.000 C 
BRANCH  23  24
ATOM     24  C   UNL     1       2.080   8.848  18.780  0.00  0.00    +0.000 A 
ATOM     25  C   UNL     1       1.885   7.973  19.878  0.00  0.00    +0.000 A 
ATOM     26  C   UNL     1       2.352   6.707  19.606  0.00  0.00    +0.000 A 
ATOM     27  S   UNL     1       2.942   6.566  18.004  0.00  0.00    +0.000 S 
ATOM     28  C   UNL     1       2.604   8.213  17.676  0.00  0.00    +0.000 A 
ENDBRANCH  23  24
ENDBRANCH   2  22
TORSDOF 5
ENDMDL
MODEL 4
REMARK VINA RESULT:      -5.8      3.504      6.270
REMARK  Name = 
REMARK  8 active torsions:
REMARK  status: ('A' for Active; 'I' for Inactive)
REMARK    1  A    between atoms: C_1  and  O_2
REMARK    2  A    between atoms: O_2  and  C_3
REMARK    3  A    between atoms: C_5  and  O_6
REMARK    4  A    between atoms: O_6  and  C_7
REMARK    5  A    between atoms: C_9  and  C_10
REMARK    6  A    between atoms: C_11  and  C_12
REMARK    7  A    between atoms: C_13  and  C_14
REMARK    8  A    between atoms: N_26  and  C_27
REMARK                            x       y       z     vdW  Elec       q    Type
REMARK                         _______ _______ _______ _____ _____    ______ ____
ROOT
ATOM      1  C   UNL     1       0.742  12.700  19.181  0.00  0.00    +0.000 A 
ATOM      2  C   UNL     1      -0.471  13.375  19.101  0.00  0.00    +0.000 A 
ATOM      3  C   UNL     1      -0.252  14.766  19.051  0.00  0.00    +0.000 A 
ATOM      4  C   UNL     1      -1.108  15.883  19.099  0.00  0.00    +0.000 A 
ATOM      5  C   UNL     1      -0.601  17.133  18.761  0.00  0.00    +0.000 A 
ATOM      6 BR   UNL     1      -1.760  18.627  18.766  0.00  0.00    +0.000 Br
ATOM      7  C   UNL     1       0.730  17.277  18.383  0.00  0.00    +0.000 A 
ATOM      8  C   UNL     1       1.618  16.190  18.435  0.00  0.00    +0.000 A 
ATOM      9  C   UNL     1       1.110  14.936  18.812  0.00  0.00    +0.000 A 
ATOM     10  N   UNL     1       1.705  13.701  19.061  0.00  0.00    +0.000 N 
ATOM     11  C   UNL     1       3.120  13.536  19.325  0.00  0.00    +0.000 C 
ENDROOT
BRANCH   1  16
ATOM     12  C   UNL     1       1.118   9.484  21.128  0.00  0.00    +0.000 A 
ATOM     13  C   UNL     1       1.428   8.574  20.125  0.00  0.00    +0.000 A 
ATOM     14  C   UNL     1       1.494   8.972  18.788  0.00  0.00    +0.000 A 
ATOM     15  C   UNL     1       1.243  10.312  18.446  0.00  0.00    +0.000 A 
ATOM     16  C   UNL     1       0.970  11.257  19.443  0.00  0.00    +0.000 A 
ATOM     17  C   UNL     1       0.897  10.813  20.779  0.00  0.00    +0.000 A 
BRANCH  12  19
ATOM     18  C   UNL     1       0.014   9.407  23.235  0.00  0.00    +0.000 C 
ATOM     19  O   UNL     1       1.078   8.973  22.395  0.00  0.00    +0.000 OA
ENDBRANCH  12  19
BRANCH  14  20
ATOM     20  O   UNL     1       1.827   7.955  17.936  0.00  0.00    +0.000 OA
ATOM     21  C   UNL     1       3.156   7.467  17.965  0.00  0.00    +0.000 C 
ENDBRANCH  14  20
ENDBRANCH   1  16
BRANCH   2  22
ATOM     22  C   UNL     1      -1.764  12.792  19.016  0.00  0.00    +0.000 C 
ATOM     23  C   UNL     1      -2.879  12.362  19.037  0.00  0.00    +0.000 C 
BRANCH  23  24
ATOM     24  C   UNL     1      -4.229  11.911  19.031  0.00  0.00    +0.000 A 
ATOM     25  C   UNL     1      -4.794  11.072  18.038  0.00  0.00    +0.000 A 
ATOM     26  C   UNL     1      -6.144  10.892  18.234  0.00  0.00    +0.000 A 
ATOM     27  S   UNL     1      -6.699  11.666  19.658  0.00  0.00    +0.000 S 
ATOM     28  C   UNL     1      -5.136  12.275  20.002  0.00  0.00    +0.000 A 
ENDBRANCH  23  24
ENDBRANCH   2  22
TORSDOF 5
ENDMDL
MODEL 5
REMARK VINA RESULT:      -5.7      4.725      7.477
REMARK  Name = 
REMARK  8 active torsions:
REMARK  status: ('A' for Active; 'I' for Inactive)
REMARK    1  A    between atoms: C_1  and  O_2
REMARK    2  A    between atoms: O_2  and  C_3
REMARK    3  A    between atoms: C_5  and  O_6
REMARK    4  A    between atoms: O_6  and  C_7
REMARK    5  A    between atoms: C_9  and  C_10
REMARK    6  A    between atoms: C_11  and  C_12
REMARK    7  A    between atoms: C_13  and  C_14
REMARK    8  A    between atoms: N_26  and  C_27
REMARK                            x       y       z     vdW  Elec       q    Type
REMARK                         _______ _______ _______ _____ _____    ______ ____
ROOT
ATOM      1  C   UNL     1      -2.003  14.494  21.628  0.00  0.00    +0.000 A 
ATOM      2  C   UNL     1      -2.964  13.568  21.237  0.00  0.00    +0.000 A 
ATOM      3  C   UNL     1      -4.076  13.625  22.101  0.00  0.00    +0.000 A 
ATOM      4  C   UNL     1      -5.236  12.839  22.239  0.00  0.00    +0.000 A 
ATOM      5  C   UNL     1      -6.280  13.315  23.024  0.00  0.00    +0.000 A 
ATOM      6 BR   UNL     1      -7.864  12.292  23.166  0.00  0.00    +0.000 Br
ATOM      7  C   UNL     1      -6.180  14.547  23.662  0.00  0.00    +0.000 A 
ATOM      8  C   UNL     1      -4.988  15.290  23.618  0.00  0.00    +0.000 A 
ATOM      9  C   UNL     1      -3.922  14.787  22.854  0.00  0.00    +0.000 A 
ATOM     10  N   UNL     1      -2.602  15.196  22.673  0.00  0.00    +0.000 N 
ATOM     11  C   UNL     1      -1.918  16.102  23.572  0.00  0.00    +0.000 C 
ENDROOT
BRANCH   1  16
ATOM     12  C   UNL     1       0.865  15.702  19.485  0.00  0.00    +0.000 A 
ATOM     13  C   UNL     1       1.937  14.992  20.012  0.00  0.00    +0.000 A 
ATOM     14  C   UNL     1       1.765  14.126  21.095  0.00  0.00    +0.000 A 
ATOM     15  C   UNL     1       0.490  13.967  21.664  0.00  0.00    +0.000 A 
ATOM     16  C   UNL     1      -0.614  14.639  21.124  0.00  0.00    +0.000 A 
ATOM     17  C   UNL     1      -0.397  15.515  20.042  0.00  0.00    +0.000 A 
BRANCH  12  19
ATOM     18  C   UNL     1       2.535  16.649  18.079  0.00  0.00    +0.000 C 
ATOM     19  O   UNL     1       1.161  16.520  18.432  0.00  0.00    +0.000 OA
ENDBRANCH  12  19
BRANCH  14  20
ATOM     20  O   UNL     1       2.919  13.498  21.475  0.00  0.00    +0.000 OA
ATOM     21  C   UNL     1       4.095  14.278  21.594  0.00  0.00    +0.000 C 
ENDBRANCH  14  20
ENDBRANCH   1  16
BRANCH   2  22
ATOM     22  C   UNL     1      -2.907  12.710  20.106  0.00  0.00    +0.000 C 
ATOM     23  C   UNL     1      -2.954  12.038  19.118  0.00  0.00    +0.000 C 
BRANCH  23  24
ATOM     24  C   UNL     1      -2.983  11.294  17.905  0.00  0.00    +0.000 A 
ATOM     25  C   UNL     1      -2.051  10.284  17.557  0.00  0.00    +0.000 A 
ATOM     26  C   UNL     1      -2.263   9.816  16.280  0.00  0.00    +0.000 A 
ATOM     27  S   UNL     1      -3.633  10.539  15.547  0.00  0.00    +0.000 S 
ATOM     28  C   UNL     1      -3.929  11.508  16.927  0.00  0.00    +0.000 A 
ENDBRANCH  23  24
ENDBRANCH   2  22
TORSDOF 5
ENDMDL
MODEL 6
REMARK VINA RESULT:      -5.7      1.911      2.119
REMARK  Name = 
REMARK  8 active torsions:
REMARK  status: ('A' for Active; 'I' for Inactive)
REMARK    1  A    between atoms: C_1  and  O_2
REMARK    2  A    between atoms: O_2  and  C_3
REMARK    3  A    between atoms: C_5  and  O_6
REMARK    4  A    between atoms: O_6  and  C_7
REMARK    5  A    between atoms: C_9  and  C_10
REMARK    6  A    between atoms: C_11  and  C_12
REMARK    7  A    between atoms: C_13  and  C_14
REMARK    8  A    between atoms: N_26  and  C_27
REMARK                            x       y       z     vdW  Elec       q    Type
REMARK                         _______ _______ _______ _____ _____    ______ ____
ROOT
ATOM      1  C   UNL     1      -0.895  12.862  19.716  0.00  0.00    +0.000 A 
ATOM      2  C   UNL     1       0.377  12.344  19.935  0.00  0.00    +0.000 A 
ATOM      3  C   UNL     1       1.222  13.337  20.468  0.00  0.00    +0.000 A 
ATOM      4  C   UNL     1       2.603  13.388  20.741  0.00  0.00    +0.000 A 
ATOM      5  C   UNL     1       3.096  14.432  21.517  0.00  0.00    +0.000 A 
ATOM      6 BR   UNL     1       4.939  14.474  21.937  0.00  0.00    +0.000 Br
ATOM      7  C   UNL     1       2.239  15.409  22.013  0.00  0.00    +0.000 A 
ATOM      8  C   UNL     1       0.879  15.427  21.658  0.00  0.00    +0.000 A 
ATOM      9  C   UNL     1       0.393  14.390  20.844  0.00  0.00    +0.000 A 
ATOM     10  N   UNL     1      -0.837  14.155  20.235  0.00  0.00    +0.000 N 
ATOM     11  C   UNL     1      -1.836  15.183  20.029  0.00  0.00    +0.000 C 
ENDROOT
BRANCH   1  16
ATOM     12  C   UNL     1      -2.746  10.945  17.037  0.00  0.00    +0.000 A 
ATOM     13  C   UNL     1      -4.059  11.022  17.482  0.00  0.00    +0.000 A 
ATOM     14  C   UNL     1      -4.377  11.671  18.678  0.00  0.00    +0.000 A 
ATOM     15  C   UNL     1      -3.355  12.256  19.446  0.00  0.00    +0.000 A 
ATOM     16  C   UNL     1      -2.029  12.229  18.997  0.00  0.00    +0.000 A 
ATOM     17  C   UNL     1      -1.748  11.551  17.794  0.00  0.00    +0.000 A 
BRANCH  12  19
ATOM     18  C   UNL     1      -3.546  10.473  14.846  0.00  0.00    +0.000 C 
ATOM     19  O   UNL     1      -2.562  10.280  15.857  0.00  0.00    +0.000 OA
ENDBRANCH  12  19
BRANCH  14  20
ATOM     20  O   UNL     1      -5.716  11.667  18.957  0.00  0.00    +0.000 OA
ATOM     21  C   UNL     1      -6.457  10.498  18.658  0.00  0.00    +0.000 C 
ENDBRANCH  14  20
ENDBRANCH   1  16
BRANCH   2  22
ATOM     22  C   UNL     1       0.795  11.002  19.727  0.00  0.00    +0.000 C 
ATOM     23  C   UNL     1       1.222   9.913  19.477  0.00  0.00    +0.000 C 
BRANCH  23  24
ATOM     24  C   UNL     1       1.786   8.631  19.223  0.00  0.00    +0.000 A 
ATOM     25  C   UNL     1       2.289   8.207  17.968  0.00  0.00    +0.000 A 
ATOM     26  C   UNL     1       2.670   6.885  17.994  0.00  0.00    +0.000 A 
ATOM     27  S   UNL     1       2.496   6.194  19.553  0.00  0.00    +0.000 S 
ATOM     28  C   UNL     1       1.877   7.657  20.192  0.00  0.00    +0.000 A 
ENDBRANCH  23  24
ENDBRANCH   2  22
TORSDOF 5
ENDMDL
MODEL 7
REMARK VINA RESULT:      -5.7      4.545      5.912
REMARK  Name = 
REMARK  8 active torsions:
REMARK  status: ('A' for Active; 'I' for Inactive)
REMARK    1  A    between atoms: C_1  and  O_2
REMARK    2  A    between atoms: O_2  and  C_3
REMARK    3  A    between atoms: C_5  and  O_6
REMARK    4  A    between atoms: O_6  and  C_7
REMARK    5  A    between atoms: C_9  and  C_10
REMARK    6  A    between atoms: C_11  and  C_12
REMARK    7  A    between atoms: C_13  and  C_14
REMARK    8  A    between atoms: N_26  and  C_27
REMARK                            x       y       z     vdW  Elec       q    Type
REMARK                         _______ _______ _______ _____ _____    ______ ____
ROOT
ATOM      1  C   UNL     1      -4.171  13.309  21.515  0.00  0.00    +0.000 A 
ATOM      2  C   UNL     1      -3.040  13.164  22.312  0.00  0.00    +0.000 A 
ATOM      3  C   UNL     1      -2.957  14.223  23.237  0.00  0.00    +0.000 A 
ATOM      4  C   UNL     1      -1.974  14.626  24.160  0.00  0.00    +0.000 A 
ATOM      5  C   UNL     1      -2.305  15.573  25.124  0.00  0.00    +0.000 A 
ATOM      6 BR   UNL     1      -1.007  16.075  26.404  0.00  0.00    +0.000 Br
ATOM      7  C   UNL     1      -3.587  16.111  25.174  0.00  0.00    +0.000 A 
ATOM      8  C   UNL     1      -4.543  15.796  24.194  0.00  0.00    +0.000 A 
ATOM      9  C   UNL     1      -4.192  14.867  23.200  0.00  0.00    +0.000 A 
ATOM     10  N   UNL     1      -4.835  14.411  22.052  0.00  0.00    +0.000 N 
ATOM     11  C   UNL     1      -5.938  15.109  21.425  0.00  0.00    +0.000 C 
ENDROOT
BRANCH   1  16
ATOM     12  C   UNL     1      -6.154  11.018  19.257  0.00  0.00    +0.000 A 
ATOM     13  C   UNL     1      -5.362  10.980  18.117  0.00  0.00    +0.000 A 
ATOM     14  C   UNL     1      -4.178  11.719  18.037  0.00  0.00    +0.000 A 
ATOM     15  C   UNL     1      -3.780  12.516  19.125  0.00  0.00    +0.000 A 
ATOM     16  C   UNL     1      -4.540  12.538  20.301  0.00  0.00    +0.000 A 
ATOM     17  C   UNL     1      -5.734  11.791  20.336  0.00  0.00    +0.000 A 
BRANCH  12  19
ATOM     18  C   UNL     1      -7.354   9.141  20.093  0.00  0.00    +0.000 C 
ATOM     19  O   UNL     1      -7.288  10.257  19.212  0.00  0.00    +0.000 OA
ENDBRANCH  12  19
BRANCH  14  20
ATOM     20  O   UNL     1      -3.515  11.554  16.853  0.00  0.00    +0.000 OA
ATOM     21  C   UNL     1      -4.020  10.605  15.932  0.00  0.00    +0.000 C 
ENDBRANCH  14  20
ENDBRANCH   1  16
BRANCH   2  22
ATOM     22  C   UNL     1      -2.109  12.091  22.278  0.00  0.00    +0.000 C 
ATOM     23  C   UNL     1      -1.318  11.206  22.138  0.00  0.00    +0.000 C 
BRANCH  23  24
ATOM     24  C   UNL     1      -0.325  10.201  21.967  0.00  0.00    +0.000 A 
ATOM     25  C   UNL     1       0.474   9.673  23.013  0.00  0.00    +0.000 A 
ATOM     26  C   UNL     1       1.421   8.796  22.534  0.00  0.00    +0.000 A 
ATOM     27  S   UNL     1       1.283   8.556  20.843  0.00  0.00    +0.000 S 
ATOM     28  C   UNL     1      -0.028   9.653  20.739  0.00  0.00    +0.000 A 
ENDBRANCH  23  24
ENDBRANCH   2  22
TORSDOF 5
ENDMDL
MODEL 8
REMARK VINA RESULT:      -5.7      3.522      5.888
REMARK  Name = 
REMARK  8 active torsions:
REMARK  status: ('A' for Active; 'I' for Inactive)
REMARK    1  A    between atoms: C_1  and  O_2
REMARK    2  A    between atoms: O_2  and  C_3
REMARK    3  A    between atoms: C_5  and  O_6
REMARK    4  A    between atoms: O_6  and  C_7
REMARK    5  A    between atoms: C_9  and  C_10
REMARK    6  A    between atoms: C_11  and  C_12
REMARK    7  A    between atoms: C_13  and  C_14
REMARK    8  A    between atoms: N_26  and  C_27
REMARK                            x       y       z     vdW  Elec       q    Type
REMARK                         _______ _______ _______ _____ _____    ______ ____
ROOT
ATOM      1  C   UNL     1       0.656  12.740  19.281  0.00  0.00    +0.000 A 
ATOM      2  C   UNL     1      -0.568  13.401  19.282  0.00  0.00    +0.000 A 
ATOM      3  C   UNL     1      -0.371  14.791  19.166  0.00  0.00    +0.000 A 
ATOM      4  C   UNL     1      -1.233  15.901  19.250  0.00  0.00    +0.000 A 
ATOM      5  C   UNL     1      -0.772  17.143  18.827  0.00  0.00    +0.000 A 
ATOM      6 BR   UNL     1      -1.945  18.626  18.880  0.00  0.00    +0.000 Br
ATOM      7  C   UNL     1       0.520  17.286  18.331  0.00  0.00    +0.000 A 
ATOM      8  C   UNL     1       1.423  16.209  18.343  0.00  0.00    +0.000 A 
ATOM      9  C   UNL     1       0.963  14.965  18.806  0.00  0.00    +0.000 A 
ATOM     10  N   UNL     1       1.593  13.745  19.045  0.00  0.00    +0.000 N 
ATOM     11  C   UNL     1       3.027  13.603  19.192  0.00  0.00    +0.000 C 
ENDROOT
BRANCH   1  16
ATOM     12  C   UNL     1       1.653   9.145  18.685  0.00  0.00    +0.000 A 
ATOM     13  C   UNL     1       1.429   8.573  19.930  0.00  0.00    +0.000 A 
ATOM     14  C   UNL     1       0.977   9.342  21.006  0.00  0.00    +0.000 A 
ATOM     15  C   UNL     1       0.745  10.717  20.829  0.00  0.00    +0.000 A 
ATOM     16  C   UNL     1       0.923  11.309  19.572  0.00  0.00    +0.000 A 
ATOM     17  C   UNL     1       1.394  10.502  18.517  0.00  0.00    +0.000 A 
BRANCH  12  19
ATOM     18  C   UNL     1       2.701   7.076  18.151  0.00  0.00    +0.000 C 
ATOM     19  O   UNL     1       2.098   8.290  17.716  0.00  0.00    +0.000 OA
ENDBRANCH  12  19
BRANCH  14  20
ATOM     20  O   UNL     1       0.794   8.618  22.151  0.00  0.00    +0.000 OA
ATOM     21  C   UNL     1       0.066   9.214  23.209  0.00  0.00    +0.000 C 
ENDBRANCH  14  20
ENDBRANCH   1  16
BRANCH   2  22
ATOM     22  C   UNL     1      -1.856  12.803  19.330  0.00  0.00    +0.000 C 
ATOM     23  C   UNL     1      -2.980  12.397  19.327  0.00  0.00    +0.000 C 
BRANCH  23  24
ATOM     24  C   UNL     1      -4.313  11.902  19.254  0.00  0.00    +0.000 A 
ATOM     25  C   UNL     1      -4.788  11.013  18.258  0.00  0.00    +0.000 A 
ATOM     26  C   UNL     1      -6.142  10.795  18.377  0.00  0.00    +0.000 A 
ATOM     27  S   UNL     1      -6.809  11.597  19.737  0.00  0.00    +0.000 S 
ATOM     28  C   UNL     1      -5.289  12.268  20.154  0.00  0.00    +0.000 A 
ENDBRANCH  23  24
ENDBRANCH   2  22
TORSDOF 5
ENDMDL
MODEL 9
REMARK VINA RESULT:      -5.6      4.540      6.743
REMARK  Name = 
REMARK  8 active torsions:
REMARK  status: ('A' for Active; 'I' for Inactive)
REMARK    1  A    between atoms: C_1  and  O_2
REMARK    2  A    between atoms: O_2  and  C_3
REMARK    3  A    between atoms: C_5  and  O_6
REMARK    4  A    between atoms: O_6  and  C_7
REMARK    5  A    between atoms: C_9  and  C_10
REMARK    6  A    between atoms: C_11  and  C_12
REMARK    7  A    between atoms: C_13  and  C_14
REMARK    8  A    between atoms: N_26  and  C_27
REMARK                            x       y       z     vdW  Elec       q    Type
REMARK                         _______ _______ _______ _____ _____    ______ ____
ROOT
ATOM      1  C   UNL     1      -4.284  12.406  19.554  0.00  0.00    +0.000 A 
ATOM      2  C   UNL     1      -2.957  12.338  19.963  0.00  0.00    +0.000 A 
ATOM      3  C   UNL     1      -2.260  11.382  19.199  0.00  0.00    +0.000 A 
ATOM      4  C   UNL     1      -0.966  10.833  19.282  0.00  0.00    +0.000 A 
ATOM      5  C   UNL     1      -0.480  10.092  18.210  0.00  0.00    +0.000 A 
ATOM      6 BR   UNL     1       1.279   9.402  18.291  0.00  0.00    +0.000 Br
ATOM      7  C   UNL     1      -1.261   9.896  17.075  0.00  0.00    +0.000 A 
ATOM      8  C   UNL     1      -2.590  10.349  17.024  0.00  0.00    +0.000 A 
ATOM      9  C   UNL     1      -3.089  11.065  18.125  0.00  0.00    +0.000 A 
ATOM     10  N   UNL     1      -4.351  11.558  18.449  0.00  0.00    +0.000 N 
ATOM     11  C   UNL     1      -5.572  11.103  17.817  0.00  0.00    +0.000 C 
ENDROOT
BRANCH   1  16
ATOM     12  C   UNL     1      -6.796  15.148  20.227  0.00  0.00    +0.000 A 
ATOM     13  C   UNL     1      -7.467  14.657  21.340  0.00  0.00    +0.000 A 
ATOM     14  C   UNL     1      -7.144  13.411  21.884  0.00  0.00    +0.000 A 
ATOM     15  C   UNL     1      -6.126  12.638  21.300  0.00  0.00    +0.000 A 
ATOM     16  C   UNL     1      -5.406  13.129  20.203  0.00  0.00    +0.000 A 
ATOM     17  C   UNL     1      -5.772  14.383  19.675  0.00  0.00    +0.000 A 
BRANCH  12  19
ATOM     18  C   UNL     1      -6.626  16.854  18.577  0.00  0.00    +0.000 C 
ATOM     19  O   UNL     1      -7.205  16.374  19.786  0.00  0.00    +0.000 OA
ENDBRANCH  12  19
BRANCH  14  20
ATOM     20  O   UNL     1      -7.891  13.091  22.984  0.00  0.00    +0.000 OA
ATOM     21  C   UNL     1      -7.213  12.838  24.201  0.00  0.00    +0.000 C 
ENDBRANCH  14  20
ENDBRANCH   1  16
BRANCH   2  22
ATOM     22  C   UNL     1      -2.333  13.137  20.959  0.00  0.00    +0.000 C 
ATOM     23  C   UNL     1      -1.894  13.881  21.785  0.00  0.00    +0.000 C 
BRANCH  23  24
ATOM     24  C   UNL     1      -1.419  14.741  22.815  0.00  0.00    +0.000 A 
ATOM     25  C   UNL     1      -1.653  14.545  24.199  0.00  0.00    +0.000 A 
ATOM     26  C   UNL     1      -1.167  15.592  24.949  0.00  0.00    +0.000 A 
ATOM     27  S   UNL     1      -0.361  16.757  23.986  0.00  0.00    +0.000 S 
ATOM     28  C   UNL     1      -0.689  15.879  22.552  0.00  0.00    +0.000 A 
ENDBRANCH  23  24
ENDBRANCH   2  22
TORSDOF 5
ENDMDL
