MODEL 1
REMARK VINA RESULT:      -7.5      0.000      0.000
REMARK  Name = 
REMARK  8 active torsions:
REMARK  status: ('A' for Active; 'I' for Inactive)
REMARK    1  A    between atoms: C_1  and  C_2
REMARK    2  A    between atoms: C_2  and  O_3
REMARK    3  A    between atoms: C_2  and  C_4
REMARK    4  A    between atoms: C_2  and  C_13
REMARK    5  A    between atoms: C_4  and  O_5
REMARK    6  A    between atoms: O_5  and  C_6
REMARK    7  A    between atoms: N_15  and  C_16
REMARK    8  A    between atoms: C_19  and  C_20
REMARK                            x       y       z     vdW  Elec       q    Type
REMARK                         _______ _______ _______ _____ _____    ______ ____
ROOT
ATOM      1  C   UNL     1       3.271   3.216  20.563  0.00  0.00    +0.000 C 
ATOM      2  C   UNL     1       3.208   3.441  19.048  0.00  0.00    +0.000 C 
ENDROOT
BRANCH   2   3
ATOM      3  C   UNL     1       2.396   4.742  18.798  0.00  0.00    +0.000 C 
ATOM      4  O   UNL     1       1.553   4.748  17.896  0.00  0.00    +0.000 OA
ATOM      5  N   UNL     1       2.765   5.874  19.509  0.00  0.00    +0.000 N 
ATOM      6  H   UNL     1       3.584   5.834  20.106  0.00  0.00    +0.000 HD
BRANCH   5   7
ATOM      7  C   UNL     1       2.171   7.147  19.362  0.00  0.00    +0.000 A 
ATOM      8  C   UNL     1       2.327   7.911  18.206  0.00  0.00    +0.000 A 
ATOM      9  C   UNL     1       1.875   9.226  18.154  0.00  0.00    +0.000 A 
ATOM     10  C   UNL     1       1.241   9.797  19.261  0.00  0.00    +0.000 A 
ATOM     11  C   UNL     1       1.004   9.008  20.394  0.00  0.00    +0.000 A 
ATOM     12  I   UNL     1       0.064   9.765  22.114  0.00  0.00    +0.000 I 
ATOM     13  C   UNL     1       1.443   7.675  20.434  0.00  0.00    +0.000 A 
BRANCH  10  14
ATOM     14  C   UNL     1       0.892  11.182  19.184  0.00  0.00    +0.000 C 
ATOM     15  N   UNL     1       0.576  12.298  19.099  0.00  0.00    +0.000 NA
ENDBRANCH  10  14
ENDBRANCH   5   7
ENDBRANCH   2   3
BRANCH   2  16
ATOM     16  O   UNL     1       2.493   2.323  18.489  0.00  0.00    +0.000 OA
ATOM     17  H   UNL     1       2.855   2.147  17.602  0.00  0.00    +0.000 HD
ENDBRANCH   2  16
BRANCH   2  18
ATOM     18  C   UNL     1       4.610   3.416  18.442  0.00  0.00    +0.000 C 
BRANCH  18  19
ATOM     19  O   UNL     1       5.533   4.125  19.265  0.00  0.00    +0.000 OA
BRANCH  19  20
ATOM     20  C   UNL     1       6.139   5.209  18.692  0.00  0.00    +0.000 A 
ATOM     21  C   UNL     1       5.630   5.942  17.615  0.00  0.00    +0.000 A 
ATOM     22  C   UNL     1       6.337   7.034  17.115  0.00  0.00    +0.000 A 
ATOM     23  C   UNL     1       7.550   7.387  17.692  0.00  0.00    +0.000 A 
ATOM     24  F   UNL     1       8.227   8.435  17.206  0.00  0.00    +0.000 F 
ATOM     25  C   UNL     1       8.069   6.669  18.762  0.00  0.00    +0.000 A 
ATOM     26  C   UNL     1       7.361   5.576  19.263  0.00  0.00    +0.000 A 
ENDBRANCH  19  20
ENDBRANCH  18  19
ENDBRANCH   2  18
TORSDOF 7
ENDMDL
MODEL 2
REMARK VINA RESULT:      -7.4      0.940      1.353
REMARK  Name = 
REMARK  8 active torsions:
REMARK  status: ('A' for Active; 'I' for Inactive)
REMARK    1  A    between atoms: C_1  and  C_2
REMARK    2  A    between atoms: C_2  and  O_3
REMARK    3  A    between atoms: C_2  and  C_4
REMARK    4  A    between atoms: C_2  and  C_13
REMARK    5  A    between atoms: C_4  and  O_5
REMARK    6  A    between atoms: O_5  and  C_6
REMARK    7  A    between atoms: N_15  and  C_16
REMARK    8  A    between atoms: C_19  and  C_20
REMARK                            x       y       z     vdW  Elec       q    Type
REMARK                         _______ _______ _______ _____ _____    ______ ____
ROOT
ATOM      1  C   UNL     1       2.885   2.502  19.653  0.00  0.00    +0.000 C 
ATOM      2  C   UNL     1       2.925   3.008  18.207  0.00  0.00    +0.000 C 
ENDROOT
BRANCH   2   3
ATOM      3  C   UNL     1       2.173   4.368  18.163  0.00  0.00    +0.000 C 
ATOM      4  O   UNL     1       1.178   4.469  17.440  0.00  0.00    +0.000 OA
ATOM      5  N   UNL     1       2.748   5.439  18.830  0.00  0.00    +0.000 N 
ATOM      6  H   UNL     1       3.660   5.321  19.256  0.00  0.00    +0.000 HD
BRANCH   5   7
ATOM      7  C   UNL     1       2.228   6.752  18.844  0.00  0.00    +0.000 A 
ATOM      8  C   UNL     1       2.279   7.585  17.726  0.00  0.00    +0.000 A 
ATOM      9  C   UNL     1       1.915   8.925  17.818  0.00  0.00    +0.000 A 
ATOM     10  C   UNL     1       1.475   9.453  19.034  0.00  0.00    +0.000 A 
ATOM     11  C   UNL     1       1.338   8.602  20.138  0.00  0.00    +0.000 A 
ATOM     12  I   UNL     1       0.690   9.292  22.015  0.00  0.00    +0.000 I 
ATOM     13  C   UNL     1       1.688   7.246  20.036  0.00  0.00    +0.000 A 
BRANCH  10  14
ATOM     14  C   UNL     1       1.214  10.858  19.090  0.00  0.00    +0.000 C 
ATOM     15  N   UNL     1       0.979  11.997  19.103  0.00  0.00    +0.000 NA
ENDBRANCH  10  14
ENDBRANCH   5   7
ENDBRANCH   2   3
BRANCH   2  16
ATOM     16  O   UNL     1       2.210   2.048  17.407  0.00  0.00    +0.000 OA
ATOM     17  H   UNL     1       1.837   2.514  16.638  0.00  0.00    +0.000 HD
ENDBRANCH   2  16
BRANCH   2  18
ATOM     18  C   UNL     1       4.360   3.035  17.685  0.00  0.00    +0.000 C 
BRANCH  18  19
ATOM     19  O   UNL     1       4.610   4.228  16.944  0.00  0.00    +0.000 OA
BRANCH  19  20
ATOM     20  C   UNL     1       5.626   5.019  17.403  0.00  0.00    +0.000 A 
ATOM     21  C   UNL     1       6.556   4.651  18.381  0.00  0.00    +0.000 A 
ATOM     22  C   UNL     1       7.555   5.544  18.768  0.00  0.00    +0.000 A 
ATOM     23  C   UNL     1       7.618   6.799  18.178  0.00  0.00    +0.000 A 
ATOM     24  F   UNL     1       8.576   7.653  18.556  0.00  0.00    +0.000 F 
ATOM     25  C   UNL     1       6.701   7.180  17.206  0.00  0.00    +0.000 A 
ATOM     26  C   UNL     1       5.703   6.286  16.818  0.00  0.00    +0.000 A 
ENDBRANCH  19  20
ENDBRANCH  18  19
ENDBRANCH   2  18
TORSDOF 7
ENDMDL
MODEL 3
REMARK VINA RESULT:      -7.4      1.586      1.975
REMARK  Name = 
REMARK  8 active torsions:
REMARK  status: ('A' for Active; 'I' for Inactive)
REMARK    1  A    between atoms: C_1  and  C_2
REMARK    2  A    between atoms: C_2  and  O_3
REMARK    3  A    between atoms: C_2  and  C_4
REMARK    4  A    between atoms: C_2  and  C_13
REMARK    5  A    between atoms: C_4  and  O_5
REMARK    6  A    between atoms: O_5  and  C_6
REMARK    7  A    between atoms: N_15  and  C_16
REMARK    8  A    between atoms: C_19  and  C_20
REMARK                            x       y       z     vdW  Elec       q    Type
REMARK                         _______ _______ _______ _____ _____    ______ ____
ROOT
ATOM      1  C   UNL     1       2.678   3.050  21.514  0.00  0.00    +0.000 C 
ATOM      2  C   UNL     1       2.945   3.222  20.015  0.00  0.00    +0.000 C 
ENDROOT
BRANCH   2   3
ATOM      3  C   UNL     1       2.212   4.511  19.551  0.00  0.00    +0.000 C 
ATOM      4  O   UNL     1       1.425   4.435  18.602  0.00  0.00    +0.000 OA
ATOM      5  N   UNL     1       2.591   5.710  20.137  0.00  0.00    +0.000 N 
ATOM      6  H   UNL     1       3.371   5.714  20.786  0.00  0.00    +0.000 HD
BRANCH   5   7
ATOM      7  C   UNL     1       2.069   6.976  19.793  0.00  0.00    +0.000 A 
ATOM      8  C   UNL     1       2.330   7.578  18.562  0.00  0.00    +0.000 A 
ATOM      9  C   UNL     1       1.945   8.893  18.316  0.00  0.00    +0.000 A 
ATOM     10  C   UNL     1       1.274   9.626  19.298  0.00  0.00    +0.000 A 
ATOM     11  C   UNL     1       0.932   8.999  20.503  0.00  0.00    +0.000 A 
ATOM     12  I   UNL     1      -0.071  10.007  22.050  0.00  0.00    +0.000 I 
ATOM     13  C   UNL     1       1.304   7.665  20.740  0.00  0.00    +0.000 A 
BRANCH  10  14
ATOM     14  C   UNL     1       0.997  11.002  19.026  0.00  0.00    +0.000 C 
ATOM     15  N   UNL     1       0.748  12.123  18.837  0.00  0.00    +0.000 NA
ENDBRANCH  10  14
ENDBRANCH   5   7
ENDBRANCH   2   3
BRANCH   2  16
ATOM     16  O   UNL     1       2.362   2.084  19.353  0.00  0.00    +0.000 OA
ATOM     17  H   UNL     1       1.393   2.163  19.415  0.00  0.00    +0.000 HD
ENDBRANCH   2  16
BRANCH   2  18
ATOM     18  C   UNL     1       4.444   3.179  19.727  0.00  0.00    +0.000 C 
BRANCH  18  19
ATOM     19  O   UNL     1       4.919   4.458  19.309  0.00  0.00    +0.000 OA
BRANCH  19  20
ATOM     20  C   UNL     1       5.559   4.497  18.102  0.00  0.00    +0.000 A 
ATOM     21  C   UNL     1       6.945   4.534  17.925  0.00  0.00    +0.000 A 
ATOM     22  C   UNL     1       7.486   4.568  16.640  0.00  0.00    +0.000 A 
ATOM     23  C   UNL     1       6.639   4.567  15.540  0.00  0.00    +0.000 A 
ATOM     24  F   UNL     1       7.163   4.603  14.309  0.00  0.00    +0.000 F 
ATOM     25  C   UNL     1       5.259   4.530  15.700  0.00  0.00    +0.000 A 
ATOM     26  C   UNL     1       4.718   4.495  16.985  0.00  0.00    +0.000 A 
ENDBRANCH  19  20
ENDBRANCH  18  19
ENDBRANCH   2  18
TORSDOF 7
ENDMDL
MODEL 4
REMARK VINA RESULT:      -6.9      3.958      6.534
REMARK  Name = 
REMARK  8 active torsions:
REMARK  status: ('A' for Active; 'I' for Inactive)
REMARK    1  A    between atoms: C_1  and  C_2
REMARK    2  A    between atoms: C_2  and  O_3
REMARK    3  A    between atoms: C_2  and  C_4
REMARK    4  A    between atoms: C_2  and  C_13
REMARK    5  A    between atoms: C_4  and  O_5
REMARK    6  A    between atoms: O_5  and  C_6
REMARK    7  A    between atoms: N_15  and  C_16
REMARK    8  A    between atoms: C_19  and  C_20
REMARK                            x       y       z     vdW  Elec       q    Type
REMARK                         _______ _______ _______ _____ _____    ______ ____
ROOT
ATOM      1  C   UNL     1       1.725   2.440  19.319  0.00  0.00    +0.000 C 
ATOM      2  C   UNL     1       2.705   3.439  19.944  0.00  0.00    +0.000 C 
ENDROOT
BRANCH   2   3
ATOM      3  C   UNL     1       3.965   3.494  19.036  0.00  0.00    +0.000 C 
ATOM      4  O   UNL     1       5.021   3.018  19.461  0.00  0.00    +0.000 OA
ATOM      5  N   UNL     1       3.868   4.207  17.850  0.00  0.00    +0.000 N 
ATOM      6  H   UNL     1       3.016   4.720  17.653  0.00  0.00    +0.000 HD
BRANCH   5   7
ATOM      7  C   UNL     1       4.930   4.405  16.940  0.00  0.00    +0.000 A 
ATOM      8  C   UNL     1       6.045   5.181  17.254  0.00  0.00    +0.000 A 
ATOM      9  C   UNL     1       6.991   5.496  16.283  0.00  0.00    +0.000 A 
ATOM     10  C   UNL     1       6.844   5.022  14.977  0.00  0.00    +0.000 A 
ATOM     11  C   UNL     1       5.774   4.170  14.677  0.00  0.00    +0.000 A 
ATOM     12  I   UNL     1       5.456   3.404  12.746  0.00  0.00    +0.000 I 
ATOM     13  C   UNL     1       4.833   3.838  15.664  0.00  0.00    +0.000 A 
BRANCH  10  14
ATOM     14  C   UNL     1       7.792   5.464  14.002  0.00  0.00    +0.000 C 
ATOM     15  N   UNL     1       8.588   5.832  13.238  0.00  0.00    +0.000 NA
ENDBRANCH  10  14
ENDBRANCH   5   7
ENDBRANCH   2   3
BRANCH   2  16
ATOM     16  O   UNL     1       3.075   2.910  21.232  0.00  0.00    +0.000 OA
ATOM     17  H   UNL     1       2.274   2.876  21.785  0.00  0.00    +0.000 HD
ENDBRANCH   2  16
BRANCH   2  18
ATOM     18  C   UNL     1       2.019   4.779  20.198  0.00  0.00    +0.000 C 
BRANCH  18  19
ATOM     19  O   UNL     1       2.908   5.864  19.934  0.00  0.00    +0.000 OA
BRANCH  19  20
ATOM     20  C   UNL     1       2.321   7.061  19.634  0.00  0.00    +0.000 A 
ATOM     21  C   UNL     1       1.625   7.868  20.540  0.00  0.00    +0.000 A 
ATOM     22  C   UNL     1       1.070   9.076  20.119  0.00  0.00    +0.000 A 
ATOM     23  C   UNL     1       1.212   9.470  18.795  0.00  0.00    +0.000 A 
ATOM     24  F   UNL     1       0.674  10.629  18.395  0.00  0.00    +0.000 F 
ATOM     25  C   UNL     1       1.901   8.680  17.883  0.00  0.00    +0.000 A 
ATOM     26  C   UNL     1       2.457   7.472  18.304  0.00  0.00    +0.000 A 
ENDBRANCH  19  20
ENDBRANCH  18  19
ENDBRANCH   2  18
TORSDOF 7
ENDMDL
MODEL 5
REMARK VINA RESULT:      -6.9      0.498      1.106
REMARK  Name = 
REMARK  8 active torsions:
REMARK  status: ('A' for Active; 'I' for Inactive)
REMARK    1  A    between atoms: C_1  and  C_2
REMARK    2  A    between atoms: C_2  and  O_3
REMARK    3  A    between atoms: C_2  and  C_4
REMARK    4  A    between atoms: C_2  and  C_13
REMARK    5  A    between atoms: C_4  and  O_5
REMARK    6  A    between atoms: O_5  and  C_6
REMARK    7  A    between atoms: N_15  and  C_16
REMARK    8  A    between atoms: C_19  and  C_20
REMARK                            x       y       z     vdW  Elec       q    Type
REMARK                         _______ _______ _______ _____ _____    ______ ____
ROOT
ATOM      1  C   UNL     1       4.078   3.767  20.134  0.00  0.00    +0.000 C 
ATOM      2  C   UNL     1       3.539   3.777  18.700  0.00  0.00    +0.000 C 
ENDROOT
BRANCH   2   3
ATOM      3  C   UNL     1       2.600   5.008  18.558  0.00  0.00    +0.000 C 
ATOM      4  O   UNL     1       1.655   4.942  17.767  0.00  0.00    +0.000 OA
ATOM      5  N   UNL     1       2.962   6.169  19.224  0.00  0.00    +0.000 N 
ATOM      6  H   UNL     1       3.849   6.198  19.715  0.00  0.00    +0.000 HD
BRANCH   5   7
ATOM      7  C   UNL     1       2.255   7.390  19.158  0.00  0.00    +0.000 A 
ATOM      8  C   UNL     1       2.277   8.201  18.023  0.00  0.00    +0.000 A 
ATOM      9  C   UNL     1       1.713   9.473  18.046  0.00  0.00    +0.000 A 
ATOM     10  C   UNL     1       1.099   9.951  19.206  0.00  0.00    +0.000 A 
ATOM     11  C   UNL     1       0.996   9.108  20.320  0.00  0.00    +0.000 A 
ATOM     12  I   UNL     1       0.098   9.725  22.117  0.00  0.00    +0.000 I 
ATOM     13  C   UNL     1       1.549   7.817  20.287  0.00  0.00    +0.000 A 
BRANCH  10  14
ATOM     14  C   UNL     1       0.630  11.302  19.200  0.00  0.00    +0.000 C 
ATOM     15  N   UNL     1       0.217  12.389  19.218  0.00  0.00    +0.000 NA
ENDBRANCH  10  14
ENDBRANCH   5   7
ENDBRANCH   2   3
BRANCH   2  16
ATOM     16  O   UNL     1       2.766   2.573  18.535  0.00  0.00    +0.000 OA
ATOM     17  H   UNL     1       2.286   2.636  17.690  0.00  0.00    +0.000 HD
ENDBRANCH   2  16
BRANCH   2  18
ATOM     18  C   UNL     1       4.684   3.706  17.693  0.00  0.00    +0.000 C 
BRANCH  18  19
ATOM     19  O   UNL     1       5.941   3.913  18.336  0.00  0.00    +0.000 OA
BRANCH  19  20
ATOM     20  C   UNL     1       6.508   5.145  18.164  0.00  0.00    +0.000 A 
ATOM     21  C   UNL     1       7.635   5.617  18.843  0.00  0.00    +0.000 A 
ATOM     22  C   UNL     1       8.127   6.894  18.581  0.00  0.00    +0.000 A 
ATOM     23  C   UNL     1       7.489   7.695  17.642  0.00  0.00    +0.000 A 
ATOM     24  F   UNL     1       7.964   8.922  17.397  0.00  0.00    +0.000 F 
ATOM     25  C   UNL     1       6.367   7.241  16.959  0.00  0.00    +0.000 A 
ATOM     26  C   UNL     1       5.876   5.962  17.221  0.00  0.00    +0.000 A 
ENDBRANCH  19  20
ENDBRANCH  18  19
ENDBRANCH   2  18
TORSDOF 7
ENDMDL
MODEL 6
REMARK VINA RESULT:      -6.9      2.615      4.332
REMARK  Name = 
REMARK  8 active torsions:
REMARK  status: ('A' for Active; 'I' for Inactive)
REMARK    1  A    between atoms: C_1  and  C_2
REMARK    2  A    between atoms: C_2  and  O_3
REMARK    3  A    between atoms: C_2  and  C_4
REMARK    4  A    between atoms: C_2  and  C_13
REMARK    5  A    between atoms: C_4  and  O_5
REMARK    6  A    between atoms: O_5  and  C_6
REMARK    7  A    between atoms: N_15  and  C_16
REMARK    8  A    between atoms: C_19  and  C_20
REMARK                            x       y       z     vdW  Elec       q    Type
REMARK                         _______ _______ _______ _____ _____    ______ ____
ROOT
ATOM      1  C   UNL     1       6.252   5.623  16.530  0.00  0.00    +0.000 C 
ATOM      2  C   UNL     1       5.321   5.409  17.730  0.00  0.00    +0.000 C 
ENDROOT
BRANCH   2   3
ATOM      3  C   UNL     1       4.187   6.467  17.640  0.00  0.00    +0.000 C 
ATOM      4  O   UNL     1       4.068   7.120  16.599  0.00  0.00    +0.000 OA
ATOM      5  N   UNL     1       3.459   6.725  18.792  0.00  0.00    +0.000 N 
ATOM      6  H   UNL     1       3.733   6.273  19.658  0.00  0.00    +0.000 HD
BRANCH   5   7
ATOM      7  C   UNL     1       2.436   7.693  18.899  0.00  0.00    +0.000 A 
ATOM      8  C   UNL     1       2.037   8.477  17.817  0.00  0.00    +0.000 A 
ATOM      9  C   UNL     1       1.150   9.534  17.992  0.00  0.00    +0.000 A 
ATOM     10  C   UNL     1       0.630   9.816  19.258  0.00  0.00    +0.000 A 
ATOM     11  C   UNL     1       0.958   8.978  20.332  0.00  0.00    +0.000 A 
ATOM     12  I   UNL     1       0.237   9.312  22.278  0.00  0.00    +0.000 I 
ATOM     13  C   UNL     1       1.838   7.900  20.148  0.00  0.00    +0.000 A 
BRANCH  10  14
ATOM     14  C   UNL     1      -0.195  10.976  19.393  0.00  0.00    +0.000 C 
ATOM     15  N   UNL     1      -0.868  11.913  19.543  0.00  0.00    +0.000 NA
ENDBRANCH  10  14
ENDBRANCH   5   7
ENDBRANCH   2   3
BRANCH   2  16
ATOM     16  O   UNL     1       6.103   5.653  18.914  0.00  0.00    +0.000 OA
ATOM     17  H   UNL     1       7.042   5.532  18.686  0.00  0.00    +0.000 HD
ENDBRANCH   2  16
BRANCH   2  18
ATOM     18  C   UNL     1       4.858   3.955  17.799  0.00  0.00    +0.000 C 
BRANCH  18  19
ATOM     19  O   UNL     1       3.443   3.864  17.646  0.00  0.00    +0.000 OA
BRANCH  19  20
ATOM     20  C   UNL     1       2.737   3.546  18.772  0.00  0.00    +0.000 A 
ATOM     21  C   UNL     1       1.363   3.744  18.946  0.00  0.00    +0.000 A 
ATOM     22  C   UNL     1       0.749   3.375  20.142  0.00  0.00    +0.000 A 
ATOM     23  C   UNL     1       1.510   2.814  21.158  0.00  0.00    +0.000 A 
ATOM     24  F   UNL     1       0.915   2.465  22.306  0.00  0.00    +0.000 F 
ATOM     25  C   UNL     1       2.876   2.611  21.001  0.00  0.00    +0.000 A 
ATOM     26  C   UNL     1       3.490   2.978  19.804  0.00  0.00    +0.000 A 
ENDBRANCH  19  20
ENDBRANCH  18  19
ENDBRANCH   2  18
TORSDOF 7
ENDMDL
MODEL 7
REMARK VINA RESULT:      -6.7      2.968      4.710
REMARK  Name = 
REMARK  8 active torsions:
REMARK  status: ('A' for Active; 'I' for Inactive)
REMARK    1  A    between atoms: C_1  and  C_2
REMARK    2  A    between atoms: C_2  and  O_3
REMARK    3  A    between atoms: C_2  and  C_4
REMARK    4  A    between atoms: C_2  and  C_13
REMARK    5  A    between atoms: C_4  and  O_5
REMARK    6  A    between atoms: O_5  and  C_6
REMARK    7  A    between atoms: N_15  and  C_16
REMARK    8  A    between atoms: C_19  and  C_20
REMARK                            x       y       z     vdW  Elec       q    Type
REMARK                         _______ _______ _______ _____ _____    ______ ____
ROOT
ATOM      1  C   UNL     1       4.964   5.889  15.651  0.00  0.00    +0.000 C 
ATOM      2  C   UNL     1       5.228   5.097  16.936  0.00  0.00    +0.000 C 
ENDROOT
BRANCH   2   3
ATOM      3  C   UNL     1       4.620   5.903  18.118  0.00  0.00    +0.000 C 
ATOM      4  O   UNL     1       5.190   5.867  19.213  0.00  0.00    +0.000 OA
ATOM      5  N   UNL     1       3.386   6.503  17.917  0.00  0.00    +0.000 N 
ATOM      6  H   UNL     1       2.897   6.341  17.044  0.00  0.00    +0.000 HD
BRANCH   5   7
ATOM      7  C   UNL     1       2.670   7.222  18.899  0.00  0.00    +0.000 A 
ATOM      8  C   UNL     1       2.325   6.660  20.128  0.00  0.00    +0.000 A 
ATOM      9  C   UNL     1       1.476   7.329  21.005  0.00  0.00    +0.000 A 
ATOM     10  C   UNL     1       0.969   8.587  20.671  0.00  0.00    +0.000 A 
ATOM     11  C   UNL     1       1.381   9.195  19.479  0.00  0.00    +0.000 A 
ATOM     12  I   UNL     1       0.677  11.082  18.877  0.00  0.00    +0.000 I 
ATOM     13  C   UNL     1       2.254   8.525  18.606  0.00  0.00    +0.000 A 
BRANCH  10  14
ATOM     14  C   UNL     1       0.022   9.178  21.565  0.00  0.00    +0.000 C 
ATOM     15  N   UNL     1      -0.738   9.632  22.320  0.00  0.00    +0.000 NA
ENDBRANCH  10  14
ENDBRANCH   5   7
ENDBRANCH   2   3
BRANCH   2  16
ATOM     16  O   UNL     1       6.657   5.027  17.099  0.00  0.00    +0.000 OA
ATOM     17  H   UNL     1       6.917   5.686  17.767  0.00  0.00    +0.000 HD
ENDBRANCH   2  16
BRANCH   2  18
ATOM     18  C   UNL     1       4.729   3.661  16.796  0.00  0.00    +0.000 C 
BRANCH  18  19
ATOM     19  O   UNL     1       3.308   3.602  16.910  0.00  0.00    +0.000 OA
BRANCH  19  20
ATOM     20  C   UNL     1       2.817   3.303  18.150  0.00  0.00    +0.000 A 
ATOM     21  C   UNL     1       3.562   2.770  19.206  0.00  0.00    +0.000 A 
ATOM     22  C   UNL     1       2.951   2.509  20.432  0.00  0.00    +0.000 A 
ATOM     23  C   UNL     1       1.599   2.779  20.595  0.00  0.00    +0.000 A 
ATOM     24  F   UNL     1       1.017   2.523  21.773  0.00  0.00    +0.000 F 
ATOM     25  C   UNL     1       0.845   3.309  19.556  0.00  0.00    +0.000 A 
ATOM     26  C   UNL     1       1.456   3.572  18.329  0.00  0.00    +0.000 A 
ENDBRANCH  19  20
ENDBRANCH  18  19
ENDBRANCH   2  18
TORSDOF 7
ENDMDL
MODEL 8
REMARK VINA RESULT:      -6.7      1.607      2.162
REMARK  Name = 
REMARK  8 active torsions:
REMARK  status: ('A' for Active; 'I' for Inactive)
REMARK    1  A    between atoms: C_1  and  C_2
REMARK    2  A    between atoms: C_2  and  O_3
REMARK    3  A    between atoms: C_2  and  C_4
REMARK    4  A    between atoms: C_2  and  C_13
REMARK    5  A    between atoms: C_4  and  O_5
REMARK    6  A    between atoms: O_5  and  C_6
REMARK    7  A    between atoms: N_15  and  C_16
REMARK    8  A    between atoms: C_19  and  C_20
REMARK                            x       y       z     vdW  Elec       q    Type
REMARK                         _______ _______ _______ _____ _____    ______ ____
ROOT
ATOM      1  C   UNL     1       3.870   2.243  19.465  0.00  0.00    +0.000 C 
ATOM      2  C   UNL     1       3.234   2.864  18.217  0.00  0.00    +0.000 C 
ENDROOT
BRANCH   2   3
ATOM      3  C   UNL     1       2.372   4.072  18.680  0.00  0.00    +0.000 C 
ATOM      4  O   UNL     1       1.199   4.140  18.300  0.00  0.00    +0.000 OA
ATOM      5  N   UNL     1       3.011   5.085  19.378  0.00  0.00    +0.000 N 
ATOM      6  H   UNL     1       4.016   5.039  19.500  0.00  0.00    +0.000 HD
BRANCH   5   7
ATOM      7  C   UNL     1       2.390   6.274  19.821  0.00  0.00    +0.000 A 
ATOM      8  C   UNL     1       1.660   6.335  21.008  0.00  0.00    +0.000 A 
ATOM      9  C   UNL     1       0.921   7.469  21.333  0.00  0.00    +0.000 A 
ATOM     10  C   UNL     1       0.915   8.574  20.478  0.00  0.00    +0.000 A 
ATOM     11  C   UNL     1       1.715   8.553  19.329  0.00  0.00    +0.000 A 
ATOM     12  I   UNL     1       1.776  10.157  17.972  0.00  0.00    +0.000 I 
ATOM     13  C   UNL     1       2.475   7.414  19.014  0.00  0.00    +0.000 A 
BRANCH  10  14
ATOM     14  C   UNL     1       0.056   9.667  20.814  0.00  0.00    +0.000 C 
ATOM     15  N   UNL     1      -0.659  10.533  21.117  0.00  0.00    +0.000 NA
ENDBRANCH  10  14
ENDBRANCH   5   7
ENDBRANCH   2   3
BRANCH   2  16
ATOM     16  O   UNL     1       2.374   1.862  17.643  0.00  0.00    +0.000 OA
ATOM     17  H   UNL     1       2.883   1.377  16.970  0.00  0.00    +0.000 HD
ENDBRANCH   2  16
BRANCH   2  18
ATOM     18  C   UNL     1       4.300   3.182  17.170  0.00  0.00    +0.000 C 
BRANCH  18  19
ATOM     19  O   UNL     1       4.349   4.583  16.903  0.00  0.00    +0.000 OA
BRANCH  19  20
ATOM     20  C   UNL     1       5.456   5.242  17.358  0.00  0.00    +0.000 A 
ATOM     21  C   UNL     1       6.444   4.690  18.179  0.00  0.00    +0.000 A 
ATOM     22  C   UNL     1       7.535   5.461  18.579  0.00  0.00    +0.000 A 
ATOM     23  C   UNL     1       7.631   6.781  18.158  0.00  0.00    +0.000 A 
ATOM     24  F   UNL     1       8.678   7.518  18.547  0.00  0.00    +0.000 F 
ATOM     25  C   UNL     1       6.657   7.345  17.342  0.00  0.00    +0.000 A 
ATOM     26  C   UNL     1       5.567   6.572  16.941  0.00  0.00    +0.000 A 
ENDBRANCH  19  20
ENDBRANCH  18  19
ENDBRANCH   2  18
TORSDOF 7
ENDMDL
MODEL 9
REMARK VINA RESULT:      -6.7      2.096      2.425
REMARK  Name = 
REMARK  8 active torsions:
REMARK  status: ('A' for Active; 'I' for Inactive)
REMARK    1  A    between atoms: C_1  and  C_2
REMARK    2  A    between atoms: C_2  and  O_3
REMARK    3  A    between atoms: C_2  and  C_4
REMARK    4  A    between atoms: C_2  and  C_13
REMARK    5  A    between atoms: C_4  and  O_5
REMARK    6  A    between atoms: O_5  and  C_6
REMARK    7  A    between atoms: N_15  and  C_16
REMARK    8  A    between atoms: C_19  and  C_20
REMARK                            x       y       z     vdW  Elec       q    Type
REMARK                         _______ _______ _______ _____ _____    ______ ____
ROOT
ATOM      1  C   UNL     1       5.373   4.601  19.452  0.00  0.00    +0.000 C 
ATOM      2  C   UNL     1       4.068   3.913  19.035  0.00  0.00    +0.000 C 
ENDROOT
BRANCH   2   3
ATOM      3  C   UNL     1       2.934   4.972  19.107  0.00  0.00    +0.000 C 
ATOM      4  O   UNL     1       1.762   4.589  19.043  0.00  0.00    +0.000 OA
ATOM      5  N   UNL     1       3.304   6.309  19.093  0.00  0.00    +0.000 N 
ATOM      6  H   UNL     1       4.281   6.547  18.967  0.00  0.00    +0.000 HD
BRANCH   5   7
ATOM      7  C   UNL     1       2.401   7.395  19.094  0.00  0.00    +0.000 A 
ATOM      8  C   UNL     1       2.152   8.158  17.954  0.00  0.00    +0.000 A 
ATOM      9  C   UNL     1       1.392   9.321  18.026  0.00  0.00    +0.000 A 
ATOM     10  C   UNL     1       0.849   9.734  19.245  0.00  0.00    +0.000 A 
ATOM     11  C   UNL     1       1.022   8.926  20.377  0.00  0.00    +0.000 A 
ATOM     12  I   UNL     1       0.254   9.453  22.261  0.00  0.00    +0.000 I 
ATOM     13  C   UNL     1       1.773   7.742  20.296  0.00  0.00    +0.000 A 
BRANCH  10  14
ATOM     14  C   UNL     1       0.166  10.989  19.276  0.00  0.00    +0.000 C 
ATOM     15  N   UNL     1      -0.387  12.011  19.341  0.00  0.00    +0.000 NA
ENDBRANCH  10  14
ENDBRANCH   5   7
ENDBRANCH   2   3
BRANCH   2  16
ATOM     16  O   UNL     1       3.812   2.881  20.006  0.00  0.00    +0.000 OA
ATOM     17  H   UNL     1       4.535   2.230  19.953  0.00  0.00    +0.000 HD
ENDBRANCH   2  16
BRANCH   2  18
ATOM     18  C   UNL     1       4.233   3.217  17.686  0.00  0.00    +0.000 C 
BRANCH  18  19
ATOM     19  O   UNL     1       3.965   4.118  16.613  0.00  0.00    +0.000 OA
BRANCH  19  20
ATOM     20  C   UNL     1       5.005   4.362  15.759  0.00  0.00    +0.000 A 
ATOM     21  C   UNL     1       5.232   3.692  14.553  0.00  0.00    +0.000 A 
ATOM     22  C   UNL     1       6.328   4.030  13.760  0.00  0.00    +0.000 A 
ATOM     23  C   UNL     1       7.192   5.033  14.178  0.00  0.00    +0.000 A 
ATOM     24  F   UNL     1       8.245   5.351  13.415  0.00  0.00    +0.000 F 
ATOM     25  C   UNL     1       6.980   5.708  15.374  0.00  0.00    +0.000 A 
ATOM     26  C   UNL     1       5.883   5.371  16.166  0.00  0.00    +0.000 A 
ENDBRANCH  19  20
ENDBRANCH  18  19
ENDBRANCH   2  18
TORSDOF 7
ENDMDL
