MODEL 1
REMARK VINA RESULT:      -7.3      0.000      0.000
REMARK  Name = 
REMARK  7 active torsions:
REMARK  status: ('A' for Active; 'I' for Inactive)
REMARK    1  A    between atoms: C_1  and  C_2
REMARK    2  A    between atoms: C_4  and  C_5
REMARK    3  A    between atoms: C_7  and  N_8
REMARK    4  A    between atoms: N_8  and  S_9
REMARK    5  A    between atoms: S_9  and  C_10
REMARK    6  A    between atoms: C_15  and  O_16
REMARK    7  A    between atoms: O_16  and  C_17
REMARK                            x       y       z     vdW  Elec       q    Type
REMARK                         _______ _______ _______ _____ _____    ______ ____
ROOT
ATOM      1  C   UNL     1      -0.488  12.640  19.213  0.00  0.00    +0.000 A 
ATOM      2  C   UNL     1      -0.081  13.940  18.832  0.00  0.00    +0.000 A 
ATOM      3  C   UNL     1       1.178  14.446  19.158  0.00  0.00    +0.000 A 
ATOM      4  C   UNL     1       2.034  13.709  19.956  0.00  0.00    +0.000 A 
ATOM      5  C   UNL     1       1.633  12.455  20.413  0.00  0.00    +0.000 A 
ATOM      6  C   UNL     1       0.420  11.878  19.985  0.00  0.00    +0.000 A 
ENDROOT
BRANCH   1  10
ATOM      7  C   UNL     1      -3.779  10.410  16.004  0.00  0.00    +0.000 C 
ATOM      8  C   UNL     1      -3.251  11.152  17.178  0.00  0.00    +0.000 A 
ATOM      9  C   UNL     1      -1.907  11.532  17.394  0.00  0.00    +0.000 A 
ATOM     10  C   UNL     1      -1.772  12.159  18.631  0.00  0.00    +0.000 A 
ATOM     11  N   UNL     1      -3.064  12.223  19.161  0.00  0.00    +0.000 N 
ATOM     12  C   UNL     1      -3.550  12.800  20.335  0.00  0.00    +0.000 A 
ATOM     13  C   UNL     1      -4.835  12.641  20.690  0.00  0.00    +0.000 A 
ATOM     14  N   UNL     1      -5.698  11.958  19.867  0.00  0.00    +0.000 N 
ATOM     15  C   UNL     1      -5.344  11.424  18.638  0.00  0.00    +0.000 A 
ATOM     16  O   UNL     1      -6.184  10.877  17.935  0.00  0.00    +0.000 OA
ATOM     17  C   UNL     1      -3.942  11.570  18.296  0.00  0.00    +0.000 A 
ATOM     18  H   UNL     1      -6.670  11.832  20.124  0.00  0.00    +0.000 HD
ENDBRANCH   1  10
BRANCH   3  19
ATOM     19  N   UNL     1       1.638  15.662  18.568  0.00  0.00    +0.000 N 
ATOM     20  H   UNL     1       2.655  15.764  18.531  0.00  0.00    +0.000 HD
BRANCH  19  21
ATOM     21  S   UNL     1       0.995  17.102  19.207  0.00  0.00    +0.000 S 
ATOM     22  C   UNL     1      -0.337  17.436  18.074  0.00  0.00    +0.000 C 
ATOM     23  O   UNL     1       0.448  16.863  20.523  0.00  0.00    +0.000 OA
ATOM     24  O   UNL     1       2.015  18.106  18.991  0.00  0.00    +0.000 OA
ENDBRANCH  19  21
ENDBRANCH   3  19
BRANCH   6  25
ATOM     25  O   UNL     1       0.105  10.574  20.318  0.00  0.00    +0.000 OA
BRANCH  25  26
ATOM     26  C   UNL     1       0.840   9.530  19.798  0.00  0.00    +0.000 A 
ATOM     27  C   UNL     1       1.141   9.584  18.432  0.00  0.00    +0.000 A 
ATOM     28  C   UNL     1       1.918   8.581  17.846  0.00  0.00    +0.000 A 
ATOM     29  C   UNL     1       2.391   7.526  18.625  0.00  0.00    +0.000 A 
ATOM     30 CL   UNL     1       3.358   6.296  17.909  0.00  0.00    +0.000 Cl
ATOM     31  C   UNL     1       2.098   7.468  19.986  0.00  0.00    +0.000 A 
ATOM     32  C   UNL     1       1.344   8.485  20.577  0.00  0.00    +0.000 A 
ENDBRANCH  25  26
ENDBRANCH   6  25
TORSDOF 5
ENDMDL
MODEL 2
REMARK VINA RESULT:      -7.1      1.116      1.577
REMARK  Name = 
REMARK  7 active torsions:
REMARK  status: ('A' for Active; 'I' for Inactive)
REMARK    1  A    between atoms: C_1  and  C_2
REMARK    2  A    between atoms: C_4  and  C_5
REMARK    3  A    between atoms: C_7  and  N_8
REMARK    4  A    between atoms: N_8  and  S_9
REMARK    5  A    between atoms: S_9  and  C_10
REMARK    6  A    between atoms: C_15  and  O_16
REMARK    7  A    between atoms: O_16  and  C_17
REMARK                            x       y       z     vdW  Elec       q    Type
REMARK                         _______ _______ _______ _____ _____    ______ ____
ROOT
ATOM      1  C   UNL     1      -0.632  12.618  19.634  0.00  0.00    +0.000 A 
ATOM      2  C   UNL     1      -0.273  13.981  19.513  0.00  0.00    +0.000 A 
ATOM      3  C   UNL     1       0.955  14.465  19.963  0.00  0.00    +0.000 A 
ATOM      4  C   UNL     1       1.826  13.626  20.635  0.00  0.00    +0.000 A 
ATOM      5  C   UNL     1       1.470  12.294  20.838  0.00  0.00    +0.000 A 
ATOM      6  C   UNL     1       0.292  11.760  20.275  0.00  0.00    +0.000 A 
ENDROOT
BRANCH   1  10
ATOM      7  C   UNL     1      -3.734  10.693  16.061  0.00  0.00    +0.000 C 
ATOM      8  C   UNL     1      -3.274  11.336  17.318  0.00  0.00    +0.000 A 
ATOM      9  C   UNL     1      -1.943  11.674  17.648  0.00  0.00    +0.000 A 
ATOM     10  C   UNL     1      -1.880  12.205  18.935  0.00  0.00    +0.000 A 
ATOM     11  N   UNL     1      -3.204  12.252  19.384  0.00  0.00    +0.000 N 
ATOM     12  C   UNL     1      -3.758  12.750  20.565  0.00  0.00    +0.000 A 
ATOM     13  C   UNL     1      -5.066  12.588  20.823  0.00  0.00    +0.000 A 
ATOM     14  N   UNL     1      -5.881  11.985  19.897  0.00  0.00    +0.000 N 
ATOM     15  C   UNL     1      -5.455  11.536  18.657  0.00  0.00    +0.000 A 
ATOM     16  O   UNL     1      -6.255  11.059  17.861  0.00  0.00    +0.000 OA
ATOM     17  C   UNL     1      -4.032  11.682  18.418  0.00  0.00    +0.000 A 
ATOM     18  H   UNL     1      -6.870  11.857  20.081  0.00  0.00    +0.000 HD
ENDBRANCH   1  10
BRANCH   3  19
ATOM     19  N   UNL     1       1.374  15.787  19.624  0.00  0.00    +0.000 N 
ATOM     20  H   UNL     1       0.617  16.433  19.390  0.00  0.00    +0.000 HD
BRANCH  19  21
ATOM     21  S   UNL     1       2.558  15.915  18.407  0.00  0.00    +0.000 S 
ATOM     22  C   UNL     1       3.993  16.388  19.349  0.00  0.00    +0.000 C 
ATOM     23  O   UNL     1       2.793  14.624  17.803  0.00  0.00    +0.000 OA
ATOM     24  O   UNL     1       2.163  17.056  17.608  0.00  0.00    +0.000 OA
ENDBRANCH  19  21
ENDBRANCH   3  19
BRANCH   6  25
ATOM     25  O   UNL     1       0.027  10.406  20.350  0.00  0.00    +0.000 OA
BRANCH  25  26
ATOM     26  C   UNL     1       0.855   9.503  19.719  0.00  0.00    +0.000 A 
ATOM     27  C   UNL     1       1.324   8.429  20.483  0.00  0.00    +0.000 A 
ATOM     28  C   UNL     1       2.135   7.452  19.897  0.00  0.00    +0.000 A 
ATOM     29  C   UNL     1       2.475   7.552  18.549  0.00  0.00    +0.000 A 
ATOM     30 CL   UNL     1       3.463   6.346  17.821  0.00  0.00    +0.000 Cl
ATOM     31  C   UNL     1       2.009   8.618  17.781  0.00  0.00    +0.000 A 
ATOM     32  C   UNL     1       1.177   9.579  18.360  0.00  0.00    +0.000 A 
ENDBRANCH  25  26
ENDBRANCH   6  25
TORSDOF 5
ENDMDL
MODEL 3
REMARK VINA RESULT:      -7.1      0.861      2.129
REMARK  Name = 
REMARK  7 active torsions:
REMARK  status: ('A' for Active; 'I' for Inactive)
REMARK    1  A    between atoms: C_1  and  C_2
REMARK    2  A    between atoms: C_4  and  C_5
REMARK    3  A    between atoms: C_7  and  N_8
REMARK    4  A    between atoms: N_8  and  S_9
REMARK    5  A    between atoms: S_9  and  C_10
REMARK    6  A    between atoms: C_15  and  O_16
REMARK    7  A    between atoms: O_16  and  C_17
REMARK                            x       y       z     vdW  Elec       q    Type
REMARK                         _______ _______ _______ _____ _____    ______ ____
ROOT
ATOM      1  C   UNL     1      -0.773  12.846  19.584  0.00  0.00    +0.000 A 
ATOM      2  C   UNL     1      -0.420  14.179  19.268  0.00  0.00    +0.000 A 
ATOM      3  C   UNL     1       0.909  14.596  19.197  0.00  0.00    +0.000 A 
ATOM      4  C   UNL     1       1.927  13.721  19.535  0.00  0.00    +0.000 A 
ATOM      5  C   UNL     1       1.610  12.422  19.925  0.00  0.00    +0.000 A 
ATOM      6  C   UNL     1       0.282  11.950  19.875  0.00  0.00    +0.000 A 
ENDROOT
BRANCH   1  10
ATOM      7  C   UNL     1      -5.766  12.460  20.591  0.00  0.00    +0.000 C 
ATOM      8  C   UNL     1      -4.463  12.324  19.891  0.00  0.00    +0.000 A 
ATOM      9  C   UNL     1      -3.201  12.720  20.385  0.00  0.00    +0.000 A 
ATOM     10  C   UNL     1      -2.212  12.495  19.429  0.00  0.00    +0.000 A 
ATOM     11  N   UNL     1      -2.866  11.893  18.350  0.00  0.00    +0.000 N 
ATOM     12  C   UNL     1      -2.377  11.386  17.145  0.00  0.00    +0.000 A 
ATOM     13  C   UNL     1      -3.223  10.942  16.201  0.00  0.00    +0.000 A 
ATOM     14  N   UNL     1      -4.576  10.927  16.441  0.00  0.00    +0.000 N 
ATOM     15  C   UNL     1      -5.161  11.321  17.633  0.00  0.00    +0.000 A 
ATOM     16  O   UNL     1      -6.372  11.225  17.791  0.00  0.00    +0.000 OA
ATOM     17  C   UNL     1      -4.232  11.837  18.621  0.00  0.00    +0.000 A 
ATOM     18  H   UNL     1      -5.224  10.594  15.736  0.00  0.00    +0.000 HD
ENDBRANCH   1  10
BRANCH   3  19
ATOM     19  N   UNL     1       1.233  15.877  18.657  0.00  0.00    +0.000 N 
ATOM     20  H   UNL     1       2.122  15.920  18.154  0.00  0.00    +0.000 HD
BRANCH  19  21
ATOM     21  S   UNL     1       1.188  17.187  19.743  0.00  0.00    +0.000 S 
ATOM     22  C   UNL     1      -0.358  17.958  19.313  0.00  0.00    +0.000 C 
ATOM     23  O   UNL     1       1.115  16.706  21.103  0.00  0.00    +0.000 OA
ATOM     24  O   UNL     1       2.251  18.073  19.317  0.00  0.00    +0.000 OA
ENDBRANCH  19  21
ENDBRANCH   3  19
BRANCH   6  25
ATOM     25  O   UNL     1      -0.001  10.618  20.114  0.00  0.00    +0.000 OA
BRANCH  25  26
ATOM     26  C   UNL     1       0.808   9.634  19.588  0.00  0.00    +0.000 A 
ATOM     27  C   UNL     1       1.244   8.634  20.465  0.00  0.00    +0.000 A 
ATOM     28  C   UNL     1       2.033   7.582  19.992  0.00  0.00    +0.000 A 
ATOM     29  C   UNL     1       2.385   7.531  18.643  0.00  0.00    +0.000 A 
ATOM     30 CL   UNL     1       3.345   6.232  18.054  0.00  0.00    +0.000 Cl
ATOM     31  C   UNL     1       1.950   8.522  17.764  0.00  0.00    +0.000 A 
ATOM     32  C   UNL     1       1.140   9.559  18.232  0.00  0.00    +0.000 A 
ENDBRANCH  25  26
ENDBRANCH   6  25
TORSDOF 5
ENDMDL
MODEL 4
REMARK VINA RESULT:      -7.0      4.094      7.038
REMARK  Name = 
REMARK  7 active torsions:
REMARK  status: ('A' for Active; 'I' for Inactive)
REMARK    1  A    between atoms: C_1  and  C_2
REMARK    2  A    between atoms: C_4  and  C_5
REMARK    3  A    between atoms: C_7  and  N_8
REMARK    4  A    between atoms: N_8  and  S_9
REMARK    5  A    between atoms: S_9  and  C_10
REMARK    6  A    between atoms: C_15  and  O_16
REMARK    7  A    between atoms: O_16  and  C_17
REMARK                            x       y       z     vdW  Elec       q    Type
REMARK                         _______ _______ _______ _____ _____    ______ ____
ROOT
ATOM      1  C   UNL     1      -1.796  12.522  23.051  0.00  0.00    +0.000 A 
ATOM      2  C   UNL     1      -3.041  12.041  23.521  0.00  0.00    +0.000 A 
ATOM      3  C   UNL     1      -3.902  12.835  24.278  0.00  0.00    +0.000 A 
ATOM      4  C   UNL     1      -3.509  14.101  24.673  0.00  0.00    +0.000 A 
ATOM      5  C   UNL     1      -2.257  14.577  24.291  0.00  0.00    +0.000 A 
ATOM      6  C   UNL     1      -1.431  13.838  23.419  0.00  0.00    +0.000 A 
ENDROOT
BRANCH   1  10
ATOM      7  C   UNL     1       1.130   8.733  21.269  0.00  0.00    +0.000 C 
ATOM      8  C   UNL     1       0.250   9.930  21.296  0.00  0.00    +0.000 A 
ATOM      9  C   UNL     1      -0.219  10.597  22.449  0.00  0.00    +0.000 A 
ATOM     10  C   UNL     1      -1.072  11.641  22.094  0.00  0.00    +0.000 A 
ATOM     11  N   UNL     1      -1.081  11.656  20.695  0.00  0.00    +0.000 N 
ATOM     12  C   UNL     1      -1.698  12.519  19.789  0.00  0.00    +0.000 A 
ATOM     13  C   UNL     1      -1.648  12.268  18.470  0.00  0.00    +0.000 A 
ATOM     14  N   UNL     1      -0.936  11.192  18.000  0.00  0.00    +0.000 N 
ATOM     15  C   UNL     1      -0.213  10.324  18.803  0.00  0.00    +0.000 A 
ATOM     16  O   UNL     1       0.444   9.419  18.304  0.00  0.00    +0.000 OA
ATOM     17  C   UNL     1      -0.316  10.589  20.225  0.00  0.00    +0.000 A 
ATOM     18  H   UNL     1      -0.891  10.993  17.007  0.00  0.00    +0.000 HD
ENDBRANCH   1  10
BRANCH   3  19
ATOM     19  N   UNL     1      -5.237  12.399  24.539  0.00  0.00    +0.000 N 
ATOM     20  H   UNL     1      -5.331  11.405  24.755  0.00  0.00    +0.000 HD
BRANCH  19  21
ATOM     21  S   UNL     1      -6.402  12.786  23.360  0.00  0.00    +0.000 S 
ATOM     22  C   UNL     1      -7.246  14.155  24.123  0.00  0.00    +0.000 C 
ATOM     23  O   UNL     1      -5.755  13.243  22.151  0.00  0.00    +0.000 OA
ATOM     24  O   UNL     1      -7.316  11.664  23.343  0.00  0.00    +0.000 OA
ENDBRANCH  19  21
ENDBRANCH   3  19
BRANCH   6  25
ATOM     25  O   UNL     1      -0.262  14.386  22.924  0.00  0.00    +0.000 OA
BRANCH  25  26
ATOM     26  C   UNL     1      -0.258  15.013  21.696  0.00  0.00    +0.000 A 
ATOM     27  C   UNL     1      -1.360  15.819  21.391  0.00  0.00    +0.000 A 
ATOM     28  C   UNL     1      -1.404  16.518  20.181  0.00  0.00    +0.000 A 
ATOM     29  C   UNL     1      -0.347  16.408  19.278  0.00  0.00    +0.000 A 
ATOM     30 CL   UNL     1      -0.392  17.276  17.794  0.00  0.00    +0.000 Cl
ATOM     31  C   UNL     1       0.755  15.610  19.577  0.00  0.00    +0.000 A 
ATOM     32  C   UNL     1       0.811  14.932  20.798  0.00  0.00    +0.000 A 
ENDBRANCH  25  26
ENDBRANCH   6  25
TORSDOF 5
ENDMDL
MODEL 5
REMARK VINA RESULT:      -7.0      0.694      1.362
REMARK  Name = 
REMARK  7 active torsions:
REMARK  status: ('A' for Active; 'I' for Inactive)
REMARK    1  A    between atoms: C_1  and  C_2
REMARK    2  A    between atoms: C_4  and  C_5
REMARK    3  A    between atoms: C_7  and  N_8
REMARK    4  A    between atoms: N_8  and  S_9
REMARK    5  A    between atoms: S_9  and  C_10
REMARK    6  A    between atoms: C_15  and  O_16
REMARK    7  A    between atoms: O_16  and  C_17
REMARK                            x       y       z     vdW  Elec       q    Type
REMARK                         _______ _______ _______ _____ _____    ______ ____
ROOT
ATOM      1  C   UNL     1      -0.348  12.680  19.163  0.00  0.00    +0.000 A 
ATOM      2  C   UNL     1       0.053  13.987  18.797  0.00  0.00    +0.000 A 
ATOM      3  C   UNL     1       1.321  14.483  19.102  0.00  0.00    +0.000 A 
ATOM      4  C   UNL     1       2.193  13.729  19.867  0.00  0.00    +0.000 A 
ATOM      5  C   UNL     1       1.800  12.468  20.309  0.00  0.00    +0.000 A 
ATOM      6  C   UNL     1       0.575  11.902  19.899  0.00  0.00    +0.000 A 
ENDROOT
BRANCH   1  10
ATOM      7  C   UNL     1      -3.716  10.506  15.996  0.00  0.00    +0.000 C 
ATOM      8  C   UNL     1      -3.160  11.231  17.167  0.00  0.00    +0.000 A 
ATOM      9  C   UNL     1      -1.810  11.601  17.360  0.00  0.00    +0.000 A 
ATOM     10  C   UNL     1      -1.646  12.213  18.602  0.00  0.00    +0.000 A 
ATOM     11  N   UNL     1      -2.927  12.277  19.159  0.00  0.00    +0.000 N 
ATOM     12  C   UNL     1      -3.385  12.843  20.349  0.00  0.00    +0.000 A 
ATOM     13  C   UNL     1      -4.664  12.687  20.728  0.00  0.00    +0.000 A 
ATOM     14  N   UNL     1      -5.547  12.018  19.915  0.00  0.00    +0.000 N 
ATOM     15  C   UNL     1      -5.221  11.496  18.673  0.00  0.00    +0.000 A 
ATOM     16  O   UNL     1      -6.079  10.962  17.981  0.00  0.00    +0.000 OA
ATOM     17  C   UNL     1      -3.826  11.639  18.305  0.00  0.00    +0.000 A 
ATOM     18  H   UNL     1      -6.514  11.894  20.190  0.00  0.00    +0.000 HD
ENDBRANCH   1  10
BRANCH   3  19
ATOM     19  N   UNL     1       1.771  15.709  18.525  0.00  0.00    +0.000 N 
ATOM     20  H   UNL     1       2.698  15.668  18.096  0.00  0.00    +0.000 HD
BRANCH  19  21
ATOM     21  S   UNL     1       1.725  17.080  19.533  0.00  0.00    +0.000 S 
ATOM     22  C   UNL     1       3.343  17.036  20.273  0.00  0.00    +0.000 C 
ATOM     23  O   UNL     1       1.600  18.280  18.738  0.00  0.00    +0.000 OA
ATOM     24  O   UNL     1       0.762  16.763  20.567  0.00  0.00    +0.000 OA
ENDBRANCH  19  21
ENDBRANCH   3  19
BRANCH   6  25
ATOM     25  O   UNL     1       0.265  10.592  20.215  0.00  0.00    +0.000 OA
BRANCH  25  26
ATOM     26  C   UNL     1       0.996   9.558  19.672  0.00  0.00    +0.000 A 
ATOM     27  C   UNL     1       1.350   8.511  20.531  0.00  0.00    +0.000 A 
ATOM     28  C   UNL     1       2.056   7.409  20.041  0.00  0.00    +0.000 A 
ATOM     29  C   UNL     1       2.408   7.356  18.693  0.00  0.00    +0.000 A 
ATOM     30 CL   UNL     1       3.267   5.996  18.082  0.00  0.00    +0.000 Cl
ATOM     31  C   UNL     1       2.056   8.393  17.831  0.00  0.00    +0.000 A 
ATOM     32  C   UNL     1       1.327   9.482  18.316  0.00  0.00    +0.000 A 
ENDBRANCH  25  26
ENDBRANCH   6  25
TORSDOF 5
ENDMDL
MODEL 6
REMARK VINA RESULT:      -7.0      3.143      5.646
REMARK  Name = 
REMARK  7 active torsions:
REMARK  status: ('A' for Active; 'I' for Inactive)
REMARK    1  A    between atoms: C_1  and  C_2
REMARK    2  A    between atoms: C_4  and  C_5
REMARK    3  A    between atoms: C_7  and  N_8
REMARK    4  A    between atoms: N_8  and  S_9
REMARK    5  A    between atoms: S_9  and  C_10
REMARK    6  A    between atoms: C_15  and  O_16
REMARK    7  A    between atoms: O_16  and  C_17
REMARK                            x       y       z     vdW  Elec       q    Type
REMARK                         _______ _______ _______ _____ _____    ______ ____
ROOT
ATOM      1  C   UNL     1       0.665  11.731  19.075  0.00  0.00    +0.000 A 
ATOM      2  C   UNL     1       1.605  12.768  19.288  0.00  0.00    +0.000 A 
ATOM      3  C   UNL     1       1.212  14.068  19.606  0.00  0.00    +0.000 A 
ATOM      4  C   UNL     1      -0.131  14.400  19.626  0.00  0.00    +0.000 A 
ATOM      5  C   UNL     1      -1.081  13.420  19.345  0.00  0.00    +0.000 A 
ATOM      6  C   UNL     1      -0.705  12.074  19.152  0.00  0.00    +0.000 A 
ENDROOT
BRANCH   1  10
ATOM      7  C   UNL     1       3.206   7.736  17.156  0.00  0.00    +0.000 C 
ATOM      8  C   UNL     1       2.372   8.559  18.070  0.00  0.00    +0.000 A 
ATOM      9  C   UNL     1       1.935   9.883  17.841  0.00  0.00    +0.000 A 
ATOM     10  C   UNL     1       1.225  10.358  18.943  0.00  0.00    +0.000 A 
ATOM     11  N   UNL     1       1.170   9.288  19.842  0.00  0.00    +0.000 N 
ATOM     12  C   UNL     1       0.535   9.156  21.077  0.00  0.00    +0.000 A 
ATOM     13  C   UNL     1       0.712   8.050  21.818  0.00  0.00    +0.000 A 
ATOM     14  N   UNL     1       1.475   7.014  21.337  0.00  0.00    +0.000 N 
ATOM     15  C   UNL     1       2.076   7.002  20.089  0.00  0.00    +0.000 A 
ATOM     16  O   UNL     1       2.695   6.016  19.708  0.00  0.00    +0.000 OA
ATOM     17  C   UNL     1       1.906   8.223  19.324  0.00  0.00    +0.000 A 
ATOM     18  H   UNL     1       1.617   6.175  21.888  0.00  0.00    +0.000 HD
ENDBRANCH   1  10
BRANCH   3  19
ATOM     19  N   UNL     1       2.179  15.027  20.034  0.00  0.00    +0.000 N 
ATOM     20  H   UNL     1       3.015  15.087  19.448  0.00  0.00    +0.000 HD
BRANCH  19  21
ATOM     21  S   UNL     1       2.690  14.912  21.654  0.00  0.00    +0.000 S 
ATOM     22  C   UNL     1       3.558  16.451  21.868  0.00  0.00    +0.000 C 
ATOM     23  O   UNL     1       1.546  14.886  22.537  0.00  0.00    +0.000 OA
ATOM     24  O   UNL     1       3.673  13.849  21.671  0.00  0.00    +0.000 OA
ENDBRANCH  19  21
ENDBRANCH   3  19
BRANCH   6  25
ATOM     25  O   UNL     1      -1.663  11.086  19.029  0.00  0.00    +0.000 OA
BRANCH  25  26
ATOM     26  C   UNL     1      -2.293  10.880  17.821  0.00  0.00    +0.000 A 
ATOM     27  C   UNL     1      -1.746   9.907  16.977  0.00  0.00    +0.000 A 
ATOM     28  C   UNL     1      -2.356   9.615  15.754  0.00  0.00    +0.000 A 
ATOM     29  C   UNL     1      -3.512  10.298  15.376  0.00  0.00    +0.000 A 
ATOM     30 CL   UNL     1      -4.274   9.933  13.877  0.00  0.00    +0.000 Cl
ATOM     31  C   UNL     1      -4.065  11.265  16.214  0.00  0.00    +0.000 A 
ATOM     32  C   UNL     1      -3.469  11.537  17.448  0.00  0.00    +0.000 A 
ENDBRANCH  25  26
ENDBRANCH   6  25
TORSDOF 5
ENDMDL
MODEL 7
REMARK VINA RESULT:      -6.9      2.959      5.483
REMARK  Name = 
REMARK  7 active torsions:
REMARK  status: ('A' for Active; 'I' for Inactive)
REMARK    1  A    between atoms: C_1  and  C_2
REMARK    2  A    between atoms: C_4  and  C_5
REMARK    3  A    between atoms: C_7  and  N_8
REMARK    4  A    between atoms: N_8  and  S_9
REMARK    5  A    between atoms: S_9  and  C_10
REMARK    6  A    between atoms: C_15  and  O_16
REMARK    7  A    between atoms: O_16  and  C_17
REMARK                            x       y       z     vdW  Elec       q    Type
REMARK                         _______ _______ _______ _____ _____    ______ ____
ROOT
ATOM      1  C   UNL     1       0.824  11.953  18.955  0.00  0.00    +0.000 A 
ATOM      2  C   UNL     1       1.829  12.946  19.038  0.00  0.00    +0.000 A 
ATOM      3  C   UNL     1       1.525  14.287  19.272  0.00  0.00    +0.000 A 
ATOM      4  C   UNL     1       0.205  14.697  19.334  0.00  0.00    +0.000 A 
ATOM      5  C   UNL     1      -0.810  13.756  19.179  0.00  0.00    +0.000 A 
ATOM      6  C   UNL     1      -0.519  12.380  19.073  0.00  0.00    +0.000 A 
ENDROOT
BRANCH   1  10
ATOM      7  C   UNL     1       3.108   7.707  17.266  0.00  0.00    +0.000 C 
ATOM      8  C   UNL     1       2.332   8.631  18.133  0.00  0.00    +0.000 A 
ATOM      9  C   UNL     1       1.973   9.962  17.827  0.00  0.00    +0.000 A 
ATOM     10  C   UNL     1       1.300  10.543  18.902  0.00  0.00    +0.000 A 
ATOM     11  N   UNL     1       1.189   9.533  19.863  0.00  0.00    +0.000 N 
ATOM     12  C   UNL     1       0.556   9.513  21.106  0.00  0.00    +0.000 A 
ATOM     13  C   UNL     1       0.674   8.444  21.911  0.00  0.00    +0.000 A 
ATOM     14  N   UNL     1       1.370   7.337  21.490  0.00  0.00    +0.000 N 
ATOM     15  C   UNL     1       1.960   7.216  20.242  0.00  0.00    +0.000 A 
ATOM     16  O   UNL     1       2.516   6.174  19.917  0.00  0.00    +0.000 OA
ATOM     17  C   UNL     1       1.856   8.397  19.406  0.00  0.00    +0.000 A 
ATOM     18  H   UNL     1       1.465   6.525  22.088  0.00  0.00    +0.000 HD
ENDBRANCH   1  10
BRANCH   3  19
ATOM     19  N   UNL     1       2.566  15.217  19.576  0.00  0.00    +0.000 N 
ATOM     20  H   UNL     1       2.370  15.840  20.362  0.00  0.00    +0.000 HD
BRANCH  19  21
ATOM     21  S   UNL     1       3.124  16.173  18.282  0.00  0.00    +0.000 S 
ATOM     22  C   UNL     1       4.732  16.665  18.867  0.00  0.00    +0.000 C 
ATOM     23  O   UNL     1       3.280  15.364  17.095  0.00  0.00    +0.000 OA
ATOM     24  O   UNL     1       2.279  17.348  18.283  0.00  0.00    +0.000 OA
ENDBRANCH  19  21
ENDBRANCH   3  19
BRANCH   6  25
ATOM     25  O   UNL     1      -1.535  11.443  19.077  0.00  0.00    +0.000 OA
BRANCH  25  26
ATOM     26  C   UNL     1      -2.197  11.136  17.907  0.00  0.00    +0.000 A 
ATOM     27  C   UNL     1      -1.633  10.141  17.101  0.00  0.00    +0.000 A 
ATOM     28  C   UNL     1      -2.272   9.749  15.921  0.00  0.00    +0.000 A 
ATOM     29  C   UNL     1      -3.472  10.353  15.549  0.00  0.00    +0.000 A 
ATOM     30 CL   UNL     1      -4.268   9.865  14.104  0.00  0.00    +0.000 Cl
ATOM     31  C   UNL     1      -4.041  11.342  16.350  0.00  0.00    +0.000 A 
ATOM     32  C   UNL     1      -3.416  11.715  17.542  0.00  0.00    +0.000 A 
ENDBRANCH  25  26
ENDBRANCH   6  25
TORSDOF 5
ENDMDL
MODEL 8
REMARK VINA RESULT:      -6.9      3.985      6.904
REMARK  Name = 
REMARK  7 active torsions:
REMARK  status: ('A' for Active; 'I' for Inactive)
REMARK    1  A    between atoms: C_1  and  C_2
REMARK    2  A    between atoms: C_4  and  C_5
REMARK    3  A    between atoms: C_7  and  N_8
REMARK    4  A    between atoms: N_8  and  S_9
REMARK    5  A    between atoms: S_9  and  C_10
REMARK    6  A    between atoms: C_15  and  O_16
REMARK    7  A    between atoms: O_16  and  C_17
REMARK                            x       y       z     vdW  Elec       q    Type
REMARK                         _______ _______ _______ _____ _____    ______ ____
ROOT
ATOM      1  C   UNL     1      -1.602  12.465  22.880  0.00  0.00    +0.000 A 
ATOM      2  C   UNL     1      -2.892  12.034  23.271  0.00  0.00    +0.000 A 
ATOM      3  C   UNL     1      -3.749  12.845  24.015  0.00  0.00    +0.000 A 
ATOM      4  C   UNL     1      -3.311  14.074  24.477  0.00  0.00    +0.000 A 
ATOM      5  C   UNL     1      -2.018  14.496  24.174  0.00  0.00    +0.000 A 
ATOM      6  C   UNL     1      -1.189  13.746  23.315  0.00  0.00    +0.000 A 
ENDROOT
BRANCH   1  10
ATOM      7  C   UNL     1       1.232   8.606  21.099  0.00  0.00    +0.000 C 
ATOM      8  C   UNL     1       0.402   9.838  21.129  0.00  0.00    +0.000 A 
ATOM      9  C   UNL     1      -0.085  10.492  22.282  0.00  0.00    +0.000 A 
ATOM     10  C   UNL     1      -0.879  11.581  21.925  0.00  0.00    +0.000 A 
ATOM     11  N   UNL     1      -0.831  11.636  20.529  0.00  0.00    +0.000 N 
ATOM     12  C   UNL     1      -1.374  12.550  19.625  0.00  0.00    +0.000 A 
ATOM     13  C   UNL     1      -1.281  12.335  18.302  0.00  0.00    +0.000 A 
ATOM     14  N   UNL     1      -0.597  11.243  17.828  0.00  0.00    +0.000 N 
ATOM     15  C   UNL     1       0.057  10.323  18.632  0.00  0.00    +0.000 A 
ATOM     16  O   UNL     1       0.695   9.405  18.132  0.00  0.00    +0.000 OA
ATOM     17  C   UNL     1      -0.093  10.551  20.057  0.00  0.00    +0.000 A 
ATOM     18  H   UNL     1      -0.520  11.070  16.832  0.00  0.00    +0.000 HD
ENDBRANCH   1  10
BRANCH   3  19
ATOM     19  N   UNL     1      -5.115  12.473  24.196  0.00  0.00    +0.000 N 
ATOM     20  H   UNL     1      -5.270  11.478  24.376  0.00  0.00    +0.000 HD
BRANCH  19  21
ATOM     21  S   UNL     1      -6.197  12.952  22.971  0.00  0.00    +0.000 S 
ATOM     22  C   UNL     1      -7.730  12.262  23.555  0.00  0.00    +0.000 C 
ATOM     23  O   UNL     1      -6.307  14.393  22.941  0.00  0.00    +0.000 OA
ATOM     24  O   UNL     1      -5.800  12.206  21.796  0.00  0.00    +0.000 OA
ENDBRANCH  19  21
ENDBRANCH   3  19
BRANCH   6  25
ATOM     25  O   UNL     1       0.030  14.247  22.898  0.00  0.00    +0.000 OA
BRANCH  25  26
ATOM     26  C   UNL     1       0.107  15.011  21.753  0.00  0.00    +0.000 A 
ATOM     27  C   UNL     1       1.271  14.889  20.986  0.00  0.00    +0.000 A 
ATOM     28  C   UNL     1       1.402  15.603  19.791  0.00  0.00    +0.000 A 
ATOM     29  C   UNL     1       0.369  16.437  19.366  0.00  0.00    +0.000 A 
ATOM     30 CL   UNL     1       0.520  17.307  17.889  0.00  0.00    +0.000 Cl
ATOM     31  C   UNL     1      -0.795  16.560  20.123  0.00  0.00    +0.000 A 
ATOM     32  C   UNL     1      -0.936  15.827  21.303  0.00  0.00    +0.000 A 
ENDBRANCH  25  26
ENDBRANCH   6  25
TORSDOF 5
ENDMDL
MODEL 9
REMARK VINA RESULT:      -6.9      1.029      2.166
REMARK  Name = 
REMARK  7 active torsions:
REMARK  status: ('A' for Active; 'I' for Inactive)
REMARK    1  A    between atoms: C_1  and  C_2
REMARK    2  A    between atoms: C_4  and  C_5
REMARK    3  A    between atoms: C_7  and  N_8
REMARK    4  A    between atoms: N_8  and  S_9
REMARK    5  A    between atoms: S_9  and  C_10
REMARK    6  A    between atoms: C_15  and  O_16
REMARK    7  A    between atoms: O_16  and  C_17
REMARK                            x       y       z     vdW  Elec       q    Type
REMARK                         _______ _______ _______ _____ _____    ______ ____
ROOT
ATOM      1  C   UNL     1      -0.706  12.843  19.607  0.00  0.00    +0.000 A 
ATOM      2  C   UNL     1      -0.321  14.148  19.219  0.00  0.00    +0.000 A 
ATOM      3  C   UNL     1       1.017  14.537  19.161  0.00  0.00    +0.000 A 
ATOM      4  C   UNL     1       2.009  13.669  19.581  0.00  0.00    +0.000 A 
ATOM      5  C   UNL     1       1.658  12.402  20.041  0.00  0.00    +0.000 A 
ATOM      6  C   UNL     1       0.324  11.949  19.982  0.00  0.00    +0.000 A 
ENDROOT
BRANCH   1  10
ATOM      7  C   UNL     1      -5.718  12.520  20.538  0.00  0.00    +0.000 C 
ATOM      8  C   UNL     1      -4.406  12.363  19.860  0.00  0.00    +0.000 A 
ATOM      9  C   UNL     1      -3.148  12.751  20.370  0.00  0.00    +0.000 A 
ATOM     10  C   UNL     1      -2.146  12.506  19.432  0.00  0.00    +0.000 A 
ATOM     11  N   UNL     1      -2.790  11.901  18.348  0.00  0.00    +0.000 N 
ATOM     12  C   UNL     1      -2.288  11.377  17.156  0.00  0.00    +0.000 A 
ATOM     13  C   UNL     1      -3.124  10.933  16.203  0.00  0.00    +0.000 A 
ATOM     14  N   UNL     1      -4.480  10.935  16.421  0.00  0.00    +0.000 N 
ATOM     15  C   UNL     1      -5.079  11.347  17.601  0.00  0.00    +0.000 A 
ATOM     16  O   UNL     1      -6.293  11.266  17.741  0.00  0.00    +0.000 OA
ATOM     17  C   UNL     1      -4.160  11.862  18.598  0.00  0.00    +0.000 A 
ATOM     18  H   UNL     1      -5.121  10.602  15.710  0.00  0.00    +0.000 HD
ENDBRANCH   1  10
BRANCH   3  19
ATOM     19  N   UNL     1       1.379  15.777  18.553  0.00  0.00    +0.000 N 
ATOM     20  H   UNL     1       2.089  15.707  17.821  0.00  0.00    +0.000 HD
BRANCH  19  21
ATOM     21  S   UNL     1       1.844  17.029  19.608  0.00  0.00    +0.000 S 
ATOM     22  C   UNL     1       3.596  16.748  19.750  0.00  0.00    +0.000 C 
ATOM     23  O   UNL     1       1.620  18.314  18.987  0.00  0.00    +0.000 OA
ATOM     24  O   UNL     1       1.243  16.698  20.883  0.00  0.00    +0.000 OA
ENDBRANCH  19  21
ENDBRANCH   3  19
BRANCH   6  25
ATOM     25  O   UNL     1       0.011  10.640  20.295  0.00  0.00    +0.000 OA
BRANCH  25  26
ATOM     26  C   UNL     1       0.760   9.606  19.774  0.00  0.00    +0.000 A 
ATOM     27  C   UNL     1       1.039   9.652  18.404  0.00  0.00    +0.000 A 
ATOM     28  C   UNL     1       1.828   8.659  17.815  0.00  0.00    +0.000 A 
ATOM     29  C   UNL     1       2.336   7.623  18.598  0.00  0.00    +0.000 A 
ATOM     30 CL   UNL     1       3.317   6.406  17.880  0.00  0.00    +0.000 Cl
ATOM     31  C   UNL     1       2.065   7.574  19.964  0.00  0.00    +0.000 A 
ATOM     32  C   UNL     1       1.298   8.580  20.557  0.00  0.00    +0.000 A 
ENDBRANCH  25  26
ENDBRANCH   6  25
TORSDOF 5
ENDMDL
