MODEL 1
REMARK VINA RESULT:      -8.0      0.000      0.000
REMARK  Name = 
REMARK  2 active torsions:
REMARK  status: ('A' for Active; 'I' for Inactive)
REMARK    1  A    between atoms: S_2  and  C_4
REMARK    2  A    between atoms: S_2  and  N_11
REMARK                            x       y       z     vdW  Elec       q    Type
REMARK                         _______ _______ _______ _____ _____    ______ ____
ROOT
ATOM      1  N   UNL     1       4.543   5.285  18.286  0.00  0.00    +0.000 N 
ATOM      2  C   UNL     1       3.804   4.260  18.854  0.00  0.00    +0.000 A 
ATOM      3  C   UNL     1       2.514   4.729  19.028  0.00  0.00    +0.000 A 
ATOM      4  C   UNL     1       2.469   6.073  18.570  0.00  0.00    +0.000 A 
ATOM      5  C   UNL     1       1.426   7.020  18.483  0.00  0.00    +0.000 A 
ATOM      6  C   UNL     1       1.679   8.288  17.961  0.00  0.00    +0.000 A 
ATOM      7  C   UNL     1       2.958   8.629  17.549  0.00  0.00    +0.000 A 
ATOM      8  C   UNL     1       4.011   7.713  17.639  0.00  0.00    +0.000 A 
ATOM      9  C   UNL     1       3.755   6.419  18.132  0.00  0.00    +0.000 A 
ATOM     10  C   UNL     1       1.385   3.894  19.550  0.00  0.00    +0.000 C 
ATOM     11  C   UNL     1       1.117   2.681  18.646  0.00  0.00    +0.000 C 
ATOM     12  N   UNL     1       2.060   1.559  18.814  0.00  0.00    +0.000 NA
ATOM     13  C   UNL     1       3.428   1.833  18.335  0.00  0.00    +0.000 C 
ATOM     14  C   UNL     1       4.229   2.858  19.174  0.00  0.00    +0.000 C 
ATOM     15  H   UNL     1       1.695   0.770  18.275  0.00  0.00    +0.000 HD
ENDROOT
BRANCH   1  17
ATOM     16  O   UNL     1       6.794   4.053  18.473  0.00  0.00    +0.000 OA
ATOM     17  S   UNL     1       6.185   5.176  17.796  0.00  0.00    +0.000 S 
ATOM     18  O   UNL     1       6.713   6.522  17.948  0.00  0.00    +0.000 OA
BRANCH  17  19
ATOM     19  C   UNL     1       6.222   4.778  16.067  0.00  0.00    +0.000 A 
ATOM     20  C   UNL     1       5.230   4.023  15.445  0.00  0.00    +0.000 A 
ATOM     21  C   UNL     1       5.357   3.726  14.080  0.00  0.00    +0.000 A 
ATOM     22  C   UNL     1       6.475   4.164  13.371  0.00  0.00    +0.000 A 
ATOM     23  F   UNL     1       6.588   3.871  12.070  0.00  0.00    +0.000 F 
ATOM     24  C   UNL     1       7.478   4.894  13.996  0.00  0.00    +0.000 A 
ATOM     25  C   UNL     1       7.352   5.207  15.348  0.00  0.00    +0.000 A 
ENDBRANCH  17  19
ENDBRANCH   1  17
TORSDOF 2
ENDMDL
MODEL 2
REMARK VINA RESULT:      -7.3      2.768      3.325
REMARK  Name = 
REMARK  2 active torsions:
REMARK  status: ('A' for Active; 'I' for Inactive)
REMARK    1  A    between atoms: S_2  and  C_4
REMARK    2  A    between atoms: S_2  and  N_11
REMARK                            x       y       z     vdW  Elec       q    Type
REMARK                         _______ _______ _______ _____ _____    ______ ____
ROOT
ATOM      1  N   UNL     1       4.098   5.359  17.879  0.00  0.00    +0.000 N 
ATOM      2  C   UNL     1       3.531   4.289  18.554  0.00  0.00    +0.000 A 
ATOM      3  C   UNL     1       2.382   4.753  19.170  0.00  0.00    +0.000 A 
ATOM      4  C   UNL     1       2.254   6.137  18.876  0.00  0.00    +0.000 A 
ATOM      5  C   UNL     1       1.278   7.099  19.212  0.00  0.00    +0.000 A 
ATOM      6  C   UNL     1       1.408   8.411  18.757  0.00  0.00    +0.000 A 
ATOM      7  C   UNL     1       2.507   8.778  17.995  0.00  0.00    +0.000 A 
ATOM      8  C   UNL     1       3.495   7.846  17.662  0.00  0.00    +0.000 A 
ATOM      9  C   UNL     1       3.351   6.511  18.088  0.00  0.00    +0.000 A 
ATOM     10  C   UNL     1       1.440   3.882  19.941  0.00  0.00    +0.000 C 
ATOM     11  C   UNL     1       0.850   2.770  19.060  0.00  0.00    +0.000 C 
ATOM     12  N   UNL     1       1.749   1.627  18.816  0.00  0.00    +0.000 NA
ATOM     13  C   UNL     1       2.908   1.933  17.957  0.00  0.00    +0.000 C 
ATOM     14  C   UNL     1       3.975   2.857  18.590  0.00  0.00    +0.000 C 
ATOM     15  H   UNL     1       1.200   0.901  18.349  0.00  0.00    +0.000 HD
ENDROOT
BRANCH   1  17
ATOM     16  O   UNL     1       5.171   5.830  15.588  0.00  0.00    +0.000 OA
ATOM     17  S   UNL     1       5.497   5.282  16.886  0.00  0.00    +0.000 S 
ATOM     18  O   UNL     1       5.983   3.918  17.025  0.00  0.00    +0.000 OA
BRANCH  17  19
ATOM     19  C   UNL     1       6.726   6.361  17.574  0.00  0.00    +0.000 A 
ATOM     20  C   UNL     1       7.530   5.998  18.653  0.00  0.00    +0.000 A 
ATOM     21  C   UNL     1       8.452   6.928  19.156  0.00  0.00    +0.000 A 
ATOM     22  C   UNL     1       8.538   8.200  18.595  0.00  0.00    +0.000 A 
ATOM     23  F   UNL     1       9.419   9.081  19.086  0.00  0.00    +0.000 F 
ATOM     24  C   UNL     1       7.718   8.573  17.537  0.00  0.00    +0.000 A 
ATOM     25  C   UNL     1       6.810   7.651  17.020  0.00  0.00    +0.000 A 
ENDBRANCH  17  19
ENDBRANCH   1  17
TORSDOF 2
ENDMDL
MODEL 3
REMARK VINA RESULT:      -7.0     10.406     11.846
REMARK  Name = 
REMARK  2 active torsions:
REMARK  status: ('A' for Active; 'I' for Inactive)
REMARK    1  A    between atoms: S_2  and  C_4
REMARK    2  A    between atoms: S_2  and  N_11
REMARK                            x       y       z     vdW  Elec       q    Type
REMARK                         _______ _______ _______ _____ _____    ______ ____
ROOT
ATOM      1  N   UNL     1       9.333  14.867  19.587  0.00  0.00    +0.000 N 
ATOM      2  C   UNL     1      10.495  14.225  19.189  0.00  0.00    +0.000 A 
ATOM      3  C   UNL     1      10.668  13.133  20.020  0.00  0.00    +0.000 A 
ATOM      4  C   UNL     1       9.596  13.116  20.953  0.00  0.00    +0.000 A 
ATOM      5  C   UNL     1       9.251  12.232  21.998  0.00  0.00    +0.000 A 
ATOM      6  C   UNL     1       8.104  12.464  22.755  0.00  0.00    +0.000 A 
ATOM      7  C   UNL     1       7.313  13.573  22.500  0.00  0.00    +0.000 A 
ATOM      8  C   UNL     1       7.642  14.472  21.480  0.00  0.00    +0.000 A 
ATOM      9  C   UNL     1       8.780  14.225  20.688  0.00  0.00    +0.000 A 
ATOM     10  C   UNL     1      11.775  12.136  19.869  0.00  0.00    +0.000 C 
ATOM     11  C   UNL     1      11.721  11.436  18.502  0.00  0.00    +0.000 C 
ATOM     12  N   UNL     1      12.245  12.229  17.375  0.00  0.00    +0.000 NA
ATOM     13  C   UNL     1      11.415  13.393  17.008  0.00  0.00    +0.000 C 
ATOM     14  C   UNL     1      11.402  14.546  18.038  0.00  0.00    +0.000 C 
ATOM     15  H   UNL     1      12.289  11.612  16.561  0.00  0.00    +0.000 HD
ENDROOT
BRANCH   1  17
ATOM     16  O   UNL     1       9.181  16.337  17.481  0.00  0.00    +0.000 OA
ATOM     17  S   UNL     1       8.635  16.234  18.816  0.00  0.00    +0.000 S 
ATOM     18  O   UNL     1       8.779  17.319  19.773  0.00  0.00    +0.000 OA
BRANCH  17  19
ATOM     19  C   UNL     1       6.900  15.928  18.608  0.00  0.00    +0.000 A 
ATOM     20  C   UNL     1       6.406  14.809  17.938  0.00  0.00    +0.000 A 
ATOM     21  C   UNL     1       5.019  14.665  17.789  0.00  0.00    +0.000 A 
ATOM     22  C   UNL     1       4.157  15.642  18.286  0.00  0.00    +0.000 A 
ATOM     23  F   UNL     1       2.835  15.495  18.134  0.00  0.00    +0.000 F 
ATOM     24  C   UNL     1       4.649  16.770  18.930  0.00  0.00    +0.000 A 
ATOM     25  C   UNL     1       6.025  16.915  19.096  0.00  0.00    +0.000 A 
ENDBRANCH  17  19
ENDBRANCH   1  17
TORSDOF 2
ENDMDL
MODEL 4
REMARK VINA RESULT:      -6.9     10.430     11.888
REMARK  Name = 
REMARK  2 active torsions:
REMARK  status: ('A' for Active; 'I' for Inactive)
REMARK    1  A    between atoms: S_2  and  C_4
REMARK    2  A    between atoms: S_2  and  N_11
REMARK                            x       y       z     vdW  Elec       q    Type
REMARK                         _______ _______ _______ _____ _____    ______ ____
ROOT
ATOM      1  N   UNL     1       9.518  14.914  19.751  0.00  0.00    +0.000 N 
ATOM      2  C   UNL     1      10.640  14.238  19.297  0.00  0.00    +0.000 A 
ATOM      3  C   UNL     1      10.758  13.083  20.051  0.00  0.00    +0.000 A 
ATOM      4  C   UNL     1       9.694  13.062  20.993  0.00  0.00    +0.000 A 
ATOM      5  C   UNL     1       9.308  12.130  21.979  0.00  0.00    +0.000 A 
ATOM      6  C   UNL     1       8.182  12.373  22.764  0.00  0.00    +0.000 A 
ATOM      7  C   UNL     1       7.453  13.540  22.594  0.00  0.00    +0.000 A 
ATOM      8  C   UNL     1       7.824  14.486  21.633  0.00  0.00    +0.000 A 
ATOM      9  C   UNL     1       8.940  14.230  20.813  0.00  0.00    +0.000 A 
ATOM     10  C   UNL     1      11.806  12.039  19.820  0.00  0.00    +0.000 C 
ATOM     11  C   UNL     1      11.701  11.438  18.409  0.00  0.00    +0.000 C 
ATOM     12  N   UNL     1      12.260  12.276  17.333  0.00  0.00    +0.000 NA
ATOM     13  C   UNL     1      11.494  13.506  17.054  0.00  0.00    +0.000 C 
ATOM     14  C   UNL     1      11.554  14.586  18.161  0.00  0.00    +0.000 C 
ATOM     15  H   UNL     1      12.264  11.714  16.478  0.00  0.00    +0.000 HD
ENDROOT
BRANCH   1  17
ATOM     16  O   UNL     1       9.555  16.615  17.821  0.00  0.00    +0.000 OA
ATOM     17  S   UNL     1       8.893  16.367  19.082  0.00  0.00    +0.000 S 
ATOM     18  O   UNL     1       8.951  17.335  20.165  0.00  0.00    +0.000 OA
BRANCH  17  19
ATOM     19  C   UNL     1       7.183  16.105  18.689  0.00  0.00    +0.000 A 
ATOM     20  C   UNL     1       6.179  17.003  19.051  0.00  0.00    +0.000 A 
ATOM     21  C   UNL     1       4.848  16.699  18.730  0.00  0.00    +0.000 A 
ATOM     22  C   UNL     1       4.541  15.505  18.081  0.00  0.00    +0.000 A 
ATOM     23  F   UNL     1       3.266  15.224  17.783  0.00  0.00    +0.000 F 
ATOM     24  C   UNL     1       5.537  14.596  17.744  0.00  0.00    +0.000 A 
ATOM     25  C   UNL     1       6.864  14.897  18.044  0.00  0.00    +0.000 A 
ENDBRANCH  17  19
ENDBRANCH   1  17
TORSDOF 2
ENDMDL
MODEL 5
REMARK VINA RESULT:      -6.8      7.564     10.274
REMARK  Name = 
REMARK  2 active torsions:
REMARK  status: ('A' for Active; 'I' for Inactive)
REMARK    1  A    between atoms: S_2  and  C_4
REMARK    2  A    between atoms: S_2  and  N_11
REMARK                            x       y       z     vdW  Elec       q    Type
REMARK                         _______ _______ _______ _____ _____    ______ ____
ROOT
ATOM      1  N   UNL     1      -2.138  12.257  19.756  0.00  0.00    +0.000 N 
ATOM      2  C   UNL     1      -3.295  12.764  20.328  0.00  0.00    +0.000 A 
ATOM      3  C   UNL     1      -4.354  12.381  19.524  0.00  0.00    +0.000 A 
ATOM      4  C   UNL     1      -3.831  11.638  18.432  0.00  0.00    +0.000 A 
ATOM      5  C   UNL     1      -4.440  10.989  17.337  0.00  0.00    +0.000 A 
ATOM      6  C   UNL     1      -3.657  10.306  16.408  0.00  0.00    +0.000 A 
ATOM      7  C   UNL     1      -2.277  10.280  16.545  0.00  0.00    +0.000 A 
ATOM      8  C   UNL     1      -1.648  10.928  17.614  0.00  0.00    +0.000 A 
ATOM      9  C   UNL     1      -2.437  11.591  18.575  0.00  0.00    +0.000 A 
ATOM     10  C   UNL     1      -5.788  12.671  19.840  0.00  0.00    +0.000 C 
ATOM     11  C   UNL     1      -6.212  12.035  21.174  0.00  0.00    +0.000 C 
ATOM     12  N   UNL     1      -5.771  12.764  22.377  0.00  0.00    +0.000 NA
ATOM     13  C   UNL     1      -4.317  12.723  22.619  0.00  0.00    +0.000 C 
ATOM     14  C   UNL     1      -3.457  13.523  21.611  0.00  0.00    +0.000 C 
ATOM     15  H   UNL     1      -6.231  12.331  23.182  0.00  0.00    +0.000 HD
ENDROOT
BRANCH   1  17
ATOM     16  O   UNL     1      -0.665  12.931  21.756  0.00  0.00    +0.000 OA
ATOM     17  S   UNL     1      -0.560  12.387  20.420  0.00  0.00    +0.000 S 
ATOM     18  O   UNL     1       0.225  13.057  19.395  0.00  0.00    +0.000 OA
BRANCH  17  19
ATOM     19  C   UNL     1       0.097  10.750  20.613  0.00  0.00    +0.000 A 
ATOM     20  C   UNL     1       0.965  10.171  19.688  0.00  0.00    +0.000 A 
ATOM     21  C   UNL     1       1.408   8.858  19.902  0.00  0.00    +0.000 A 
ATOM     22  C   UNL     1       0.963   8.143  21.012  0.00  0.00    +0.000 A 
ATOM     23  F   UNL     1       1.389   6.888  21.204  0.00  0.00    +0.000 F 
ATOM     24  C   UNL     1       0.077   8.708  21.920  0.00  0.00    +0.000 A 
ATOM     25  C   UNL     1      -0.357  10.018  21.725  0.00  0.00    +0.000 A 
ENDBRANCH  17  19
ENDBRANCH   1  17
TORSDOF 2
ENDMDL
MODEL 6
REMARK VINA RESULT:      -6.8      2.783      3.329
REMARK  Name = 
REMARK  2 active torsions:
REMARK  status: ('A' for Active; 'I' for Inactive)
REMARK    1  A    between atoms: S_2  and  C_4
REMARK    2  A    between atoms: S_2  and  N_11
REMARK                            x       y       z     vdW  Elec       q    Type
REMARK                         _______ _______ _______ _____ _____    ______ ____
ROOT
ATOM      1  N   UNL     1       4.335   5.123  18.058  0.00  0.00    +0.000 N 
ATOM      2  C   UNL     1       3.645   4.120  18.720  0.00  0.00    +0.000 A 
ATOM      3  C   UNL     1       2.422   4.644  19.100  0.00  0.00    +0.000 A 
ATOM      4  C   UNL     1       2.371   5.997  18.673  0.00  0.00    +0.000 A 
ATOM      5  C   UNL     1       1.374   6.992  18.763  0.00  0.00    +0.000 A 
ATOM      6  C   UNL     1       1.603   8.258  18.226  0.00  0.00    +0.000 A 
ATOM      7  C   UNL     1       2.817   8.551  17.624  0.00  0.00    +0.000 A 
ATOM      8  C   UNL     1       3.827   7.586  17.536  0.00  0.00    +0.000 A 
ATOM      9  C   UNL     1       3.589   6.295  18.045  0.00  0.00    +0.000 A 
ATOM     10  C   UNL     1       1.350   3.850  19.779  0.00  0.00    +0.000 C 
ATOM     11  C   UNL     1       0.887   2.669  18.911  0.00  0.00    +0.000 C 
ATOM     12  N   UNL     1       1.789   1.503  18.914  0.00  0.00    +0.000 NA
ATOM     13  C   UNL     1       3.078   1.725  18.232  0.00  0.00    +0.000 C 
ATOM     14  C   UNL     1       4.047   2.694  18.950  0.00  0.00    +0.000 C 
ATOM     15  H   UNL     1       1.308   0.743  18.427  0.00  0.00    +0.000 HD
ENDROOT
BRANCH   1  17
ATOM     16  O   UNL     1       5.708   5.050  15.883  0.00  0.00    +0.000 OA
ATOM     17  S   UNL     1       5.875   4.951  17.316  0.00  0.00    +0.000 S 
ATOM     18  O   UNL     1       6.455   3.765  17.925  0.00  0.00    +0.000 OA
BRANCH  17  19
ATOM     19  C   UNL     1       6.875   6.339  17.786  0.00  0.00    +0.000 A 
ATOM     20  C   UNL     1       6.894   7.534  17.067  0.00  0.00    +0.000 A 
ATOM     21  C   UNL     1       7.742   8.567  17.490  0.00  0.00    +0.000 A 
ATOM     22  C   UNL     1       8.567   8.385  18.599  0.00  0.00    +0.000 A 
ATOM     23  F   UNL     1       9.375   9.378  18.991  0.00  0.00    +0.000 F 
ATOM     24  C   UNL     1       8.569   7.186  19.300  0.00  0.00    +0.000 A 
ATOM     25  C   UNL     1       7.718   6.158  18.897  0.00  0.00    +0.000 A 
ENDBRANCH  17  19
ENDBRANCH   1  17
TORSDOF 2
ENDMDL
MODEL 7
REMARK VINA RESULT:      -6.8      7.637     10.325
REMARK  Name = 
REMARK  2 active torsions:
REMARK  status: ('A' for Active; 'I' for Inactive)
REMARK    1  A    between atoms: S_2  and  C_4
REMARK    2  A    between atoms: S_2  and  N_11
REMARK                            x       y       z     vdW  Elec       q    Type
REMARK                         _______ _______ _______ _____ _____    ______ ____
ROOT
ATOM      1  N   UNL     1      -2.230  12.319  19.677  0.00  0.00    +0.000 N 
ATOM      2  C   UNL     1      -3.365  12.799  20.310  0.00  0.00    +0.000 A 
ATOM      3  C   UNL     1      -4.451  12.455  19.525  0.00  0.00    +0.000 A 
ATOM      4  C   UNL     1      -3.967  11.762  18.384  0.00  0.00    +0.000 A 
ATOM      5  C   UNL     1      -4.614  11.166  17.280  0.00  0.00    +0.000 A 
ATOM      6  C   UNL     1      -3.863  10.526  16.295  0.00  0.00    +0.000 A 
ATOM      7  C   UNL     1      -2.480  10.493  16.384  0.00  0.00    +0.000 A 
ATOM      8  C   UNL     1      -1.814  11.091  17.460  0.00  0.00    +0.000 A 
ATOM      9  C   UNL     1      -2.569  11.708  18.477  0.00  0.00    +0.000 A 
ATOM     10  C   UNL     1      -5.874  12.730  19.902  0.00  0.00    +0.000 C 
ATOM     11  C   UNL     1      -6.254  12.033  21.219  0.00  0.00    +0.000 C 
ATOM     12  N   UNL     1      -5.772  12.705  22.439  0.00  0.00    +0.000 NA
ATOM     13  C   UNL     1      -4.310  12.652  22.630  0.00  0.00    +0.000 C 
ATOM     14  C   UNL     1      -3.483  13.497  21.632  0.00  0.00    +0.000 C 
ATOM     15  H   UNL     1      -6.205  12.235  23.238  0.00  0.00    +0.000 HD
ENDROOT
BRANCH   1  17
ATOM     16  O   UNL     1      -0.669  13.089  21.573  0.00  0.00    +0.000 OA
ATOM     17  S   UNL     1      -0.629  12.417  20.293  0.00  0.00    +0.000 S 
ATOM     18  O   UNL     1       0.165  12.940  19.193  0.00  0.00    +0.000 OA
BRANCH  17  19
ATOM     19  C   UNL     1      -0.062  10.769  20.627  0.00  0.00    +0.000 A 
ATOM     20  C   UNL     1      -0.408  10.072  21.784  0.00  0.00    +0.000 A 
ATOM     21  C   UNL     1       0.114   8.786  21.984  0.00  0.00    +0.000 A 
ATOM     22  C   UNL     1       0.984   8.232  21.046  0.00  0.00    +0.000 A 
ATOM     23  F   UNL     1       1.480   7.005  21.250  0.00  0.00    +0.000 F 
ATOM     24  C   UNL     1       1.351   8.936  19.906  0.00  0.00    +0.000 A 
ATOM     25  C   UNL     1       0.824  10.208  19.691  0.00  0.00    +0.000 A 
ENDBRANCH  17  19
ENDBRANCH   1  17
TORSDOF 2
ENDMDL
MODEL 8
REMARK VINA RESULT:      -6.8      8.496     11.140
REMARK  Name = 
REMARK  2 active torsions:
REMARK  status: ('A' for Active; 'I' for Inactive)
REMARK    1  A    between atoms: S_2  and  C_4
REMARK    2  A    between atoms: S_2  and  N_11
REMARK                            x       y       z     vdW  Elec       q    Type
REMARK                         _______ _______ _______ _____ _____    ______ ____
ROOT
ATOM      1  N   UNL     1      -2.331  12.932  21.436  0.00  0.00    +0.000 N 
ATOM      2  C   UNL     1      -3.356  13.406  22.239  0.00  0.00    +0.000 A 
ATOM      3  C   UNL     1      -4.538  13.237  21.541  0.00  0.00    +0.000 A 
ATOM      4  C   UNL     1      -4.226  12.660  20.281  0.00  0.00    +0.000 A 
ATOM      5  C   UNL     1      -5.025  12.251  19.191  0.00  0.00    +0.000 A 
ATOM      6  C   UNL     1      -4.429  11.688  18.064  0.00  0.00    +0.000 A 
ATOM      7  C   UNL     1      -3.051  11.550  17.999  0.00  0.00    +0.000 A 
ATOM      8  C   UNL     1      -2.237  11.962  19.059  0.00  0.00    +0.000 A 
ATOM      9  C   UNL     1      -2.835  12.499  20.216  0.00  0.00    +0.000 A 
ATOM     10  C   UNL     1      -5.890  13.559  22.098  0.00  0.00    +0.000 C 
ATOM     11  C   UNL     1      -6.193  12.732  23.357  0.00  0.00    +0.000 C 
ATOM     12  N   UNL     1      -5.540  13.213  24.589  0.00  0.00    +0.000 NA
ATOM     13  C   UNL     1      -4.076  13.037  24.614  0.00  0.00    +0.000 C 
ATOM     14  C   UNL     1      -3.286  13.941  23.638  0.00  0.00    +0.000 C 
ATOM     15  H   UNL     1      -5.930  12.678  25.370  0.00  0.00    +0.000 HD
ENDROOT
BRANCH   1  17
ATOM     16  O   UNL     1      -0.568  13.088  23.304  0.00  0.00    +0.000 OA
ATOM     17  S   UNL     1      -0.675  12.843  21.883  0.00  0.00    +0.000 S 
ATOM     18  O   UNL     1       0.020  13.682  20.920  0.00  0.00    +0.000 OA
BRANCH  17  19
ATOM     19  C   UNL     1      -0.123  11.175  21.636  0.00  0.00    +0.000 A 
ATOM     20  C   UNL     1       0.675  10.795  20.557  0.00  0.00    +0.000 A 
ATOM     21  C   UNL     1       1.036   9.447  20.421  0.00  0.00    +0.000 A 
ATOM     22  C   UNL     1       0.580   8.505  21.341  0.00  0.00    +0.000 A 
ATOM     23  F   UNL     1       0.928   7.220  21.198  0.00  0.00    +0.000 F 
ATOM     24  C   UNL     1      -0.237   8.876  22.401  0.00  0.00    +0.000 A 
ATOM     25  C   UNL     1      -0.588  10.217  22.554  0.00  0.00    +0.000 A 
ENDBRANCH  17  19
ENDBRANCH   1  17
TORSDOF 2
ENDMDL
MODEL 9
REMARK VINA RESULT:      -6.8      6.466      9.096
REMARK  Name = 
REMARK  2 active torsions:
REMARK  status: ('A' for Active; 'I' for Inactive)
REMARK    1  A    between atoms: S_2  and  C_4
REMARK    2  A    between atoms: S_2  and  N_11
REMARK                            x       y       z     vdW  Elec       q    Type
REMARK                         _______ _______ _______ _____ _____    ______ ____
ROOT
ATOM      1  N   UNL     1      -0.727  11.950  19.616  0.00  0.00    +0.000 N 
ATOM      2  C   UNL     1      -1.491  12.731  20.469  0.00  0.00    +0.000 A 
ATOM      3  C   UNL     1      -2.815  12.570  20.099  0.00  0.00    +0.000 A 
ATOM      4  C   UNL     1      -2.857  11.684  18.989  0.00  0.00    +0.000 A 
ATOM      5  C   UNL     1      -3.921  11.151  18.231  0.00  0.00    +0.000 A 
ATOM      6  C   UNL     1      -3.656  10.270  17.183  0.00  0.00    +0.000 A 
ATOM      7  C   UNL     1      -2.348   9.934  16.869  0.00  0.00    +0.000 A 
ATOM      8  C   UNL     1      -1.276  10.462  17.596  0.00  0.00    +0.000 A 
ATOM      9  C   UNL     1      -1.538  11.324  18.678  0.00  0.00    +0.000 A 
ATOM     10  C   UNL     1      -3.965  13.193  20.826  0.00  0.00    +0.000 C 
ATOM     11  C   UNL     1      -4.029  12.724  22.289  0.00  0.00    +0.000 C 
ATOM     12  N   UNL     1      -3.067  13.378  23.194  0.00  0.00    +0.000 NA
ATOM     13  C   UNL     1      -1.658  13.015  22.956  0.00  0.00    +0.000 C 
ATOM     14  C   UNL     1      -1.049  13.555  21.641  0.00  0.00    +0.000 C 
ATOM     15  H   UNL     1      -3.304  13.094  24.148  0.00  0.00    +0.000 HD
ENDROOT
BRANCH   1  17
ATOM     16  O   UNL     1       1.415  12.158  21.027  0.00  0.00    +0.000 OA
ATOM     17  S   UNL     1       0.975  11.739  19.715  0.00  0.00    +0.000 S 
ATOM     18  O   UNL     1       1.501  12.362  18.511  0.00  0.00    +0.000 OA
BRANCH  17  19
ATOM     19  C   UNL     1       1.325  10.003  19.617  0.00  0.00    +0.000 A 
ATOM     20  C   UNL     1       1.128   9.131  20.687  0.00  0.00    +0.000 A 
ATOM     21  C   UNL     1       1.465   7.779  20.533  0.00  0.00    +0.000 A 
ATOM     22  C   UNL     1       2.010   7.328  19.332  0.00  0.00    +0.000 A 
ATOM     23  F   UNL     1       2.332   6.035  19.198  0.00  0.00    +0.000 F 
ATOM     24  C   UNL     1       2.233   8.199  18.274  0.00  0.00    +0.000 A 
ATOM     25  C   UNL     1       1.886   9.542  18.412  0.00  0.00    +0.000 A 
ENDBRANCH  17  19
ENDBRANCH   1  17
TORSDOF 2
ENDMDL
