MODEL 1
REMARK VINA RESULT:      -9.0      0.000      0.000
REMARK  Name = 
REMARK  6 active torsions:
REMARK  status: ('A' for Active; 'I' for Inactive)
REMARK    1  A    between atoms: C_1  and  O_2
REMARK    2  A    between atoms: O_2  and  C_3
REMARK    3  A    between atoms: C_6  and  N_7
REMARK    4  A    between atoms: C_8  and  C_10
REMARK    5  A    between atoms: C_13  and  C_14
REMARK    6  A    between atoms: C_14  and  N_15
REMARK                            x       y       z     vdW  Elec       q    Type
REMARK                         _______ _______ _______ _____ _____    ______ ____
ROOT
ATOM      1  C   UNL     1       8.328   8.456  18.470  0.00  0.00    +0.000 A 
ATOM      2  C   UNL     1       7.509   8.426  17.330  0.00  0.00    +0.000 A 
ATOM      3  C   UNL     1       6.844   7.256  16.960  0.00  0.00    +0.000 A 
ATOM      4  C   UNL     1       6.973   6.102  17.738  0.00  0.00    +0.000 A 
ATOM      5  C   UNL     1       7.820   6.124  18.858  0.00  0.00    +0.000 A 
ATOM      6  C   UNL     1       8.496   7.297  19.230  0.00  0.00    +0.000 A 
ENDROOT
BRANCH   1   8
ATOM      7  N   UNL     1       9.404  10.539  17.707  0.00  0.00    +0.000 N 
ATOM      8  C   UNL     1       9.002   9.754  18.780  0.00  0.00    +0.000 C 
ATOM      9  O   UNL     1       9.173  10.004  19.959  0.00  0.00    +0.000 OA
ATOM     10  H   UNL     1       9.219  10.191  16.764  0.00  0.00    +0.000 HD
BRANCH   7  14
ATOM     11  C   UNL     1      11.489  14.243  17.966  0.00  0.00    +0.000 A 
ATOM     12  C   UNL     1      12.176  13.035  18.087  0.00  0.00    +0.000 A 
ATOM     13  C   UNL     1      11.511  11.808  17.992  0.00  0.00    +0.000 A 
ATOM     14  C   UNL     1      10.127  11.758  17.793  0.00  0.00    +0.000 A 
ATOM     15  C   UNL     1       9.430  12.967  17.674  0.00  0.00    +0.000 A 
ATOM     16  C   UNL     1      10.104  14.203  17.764  0.00  0.00    +0.000 A 
BRANCH  11  18
ATOM     17  C   UNL     1      11.711  16.572  17.625  0.00  0.00    +0.000 C 
ATOM     18  O   UNL     1      12.247  15.352  18.116  0.00  0.00    +0.000 OA
ENDBRANCH  11  18
ENDBRANCH   7  14
ENDBRANCH   1   8
BRANCH   4  19
ATOM     19  C   UNL     1       6.031   4.942  17.527  0.00  0.00    +0.000 C 
BRANCH  19  20
ATOM     20  N   UNL     1       4.604   5.168  17.200  0.00  0.00    +0.000 NA
ATOM     21  C   UNL     1       4.190   6.212  18.177  0.00  0.00    +0.000 C 
ATOM     22  C   UNL     1       2.705   6.347  18.368  0.00  0.00    +0.000 C 
ATOM     23  C   UNL     1       2.245   5.026  18.879  0.00  0.00    +0.000 A 
ATOM     24  C   UNL     1       1.683   4.817  20.131  0.00  0.00    +0.000 A 
ATOM     25  C   UNL     1       1.025   3.621  20.377  0.00  0.00    +0.000 A 
ATOM     26  C   UNL     1       0.867   2.703  19.338  0.00  0.00    +0.000 A 
ATOM     27  C   UNL     1       1.620   2.844  18.165  0.00  0.00    +0.000 A 
ATOM     28  C   UNL     1       2.464   3.948  18.027  0.00  0.00    +0.000 A 
ATOM     29  C   UNL     1       3.759   3.929  17.208  0.00  0.00    +0.000 C 
ENDBRANCH  19  20
ENDBRANCH   4  19
TORSDOF 5
ENDMDL
MODEL 2
REMARK VINA RESULT:      -8.9      0.562      1.033
REMARK  Name = 
REMARK  6 active torsions:
REMARK  status: ('A' for Active; 'I' for Inactive)
REMARK    1  A    between atoms: C_1  and  O_2
REMARK    2  A    between atoms: O_2  and  C_3
REMARK    3  A    between atoms: C_6  and  N_7
REMARK    4  A    between atoms: C_8  and  C_10
REMARK    5  A    between atoms: C_13  and  C_14
REMARK    6  A    between atoms: C_14  and  N_15
REMARK                            x       y       z     vdW  Elec       q    Type
REMARK                         _______ _______ _______ _____ _____    ______ ____
ROOT
ATOM      1  C   UNL     1       8.264   8.498  18.419  0.00  0.00    +0.000 A 
ATOM      2  C   UNL     1       7.408   8.447  17.308  0.00  0.00    +0.000 A 
ATOM      3  C   UNL     1       6.763   7.260  16.957  0.00  0.00    +0.000 A 
ATOM      4  C   UNL     1       6.950   6.108  17.727  0.00  0.00    +0.000 A 
ATOM      5  C   UNL     1       7.834   6.153  18.818  0.00  0.00    +0.000 A 
ATOM      6  C   UNL     1       8.490   7.343  19.170  0.00  0.00    +0.000 A 
ENDROOT
BRANCH   1   8
ATOM      7  N   UNL     1       8.817  10.802  17.738  0.00  0.00    +0.000 N 
ATOM      8  C   UNL     1       8.912   9.813  18.709  0.00  0.00    +0.000 C 
ATOM      9  O   UNL     1       9.503   9.901  19.770  0.00  0.00    +0.000 OA
ATOM     10  H   UNL     1       8.311  10.581  16.879  0.00  0.00    +0.000 HD
BRANCH   7  14
ATOM     11  C   UNL     1      10.737  14.601  17.857  0.00  0.00    +0.000 A 
ATOM     12  C   UNL     1       9.390  14.480  18.193  0.00  0.00    +0.000 A 
ATOM     13  C   UNL     1       8.744  13.239  18.172  0.00  0.00    +0.000 A 
ATOM     14  C   UNL     1       9.431  12.081  17.792  0.00  0.00    +0.000 A 
ATOM     15  C   UNL     1      10.785  12.195  17.450  0.00  0.00    +0.000 A 
ATOM     16  C   UNL     1      11.435  13.448  17.477  0.00  0.00    +0.000 A 
BRANCH  11  18
ATOM     17  C   UNL     1      12.243  16.143  18.831  0.00  0.00    +0.000 C 
ATOM     18  O   UNL     1      11.225  15.861  17.882  0.00  0.00    +0.000 OA
ENDBRANCH  11  18
ENDBRANCH   7  14
ENDBRANCH   1   8
BRANCH   4  19
ATOM     19  C   UNL     1       6.033   4.923  17.545  0.00  0.00    +0.000 C 
BRANCH  19  20
ATOM     20  N   UNL     1       4.609   5.110  17.186  0.00  0.00    +0.000 NA
ATOM     21  C   UNL     1       4.143   6.141  18.153  0.00  0.00    +0.000 C 
ATOM     22  C   UNL     1       2.651   6.233  18.310  0.00  0.00    +0.000 C 
ATOM     23  C   UNL     1       2.217   4.899  18.810  0.00  0.00    +0.000 A 
ATOM     24  C   UNL     1       1.633   4.674  20.049  0.00  0.00    +0.000 A 
ATOM     25  C   UNL     1       1.002   3.459  20.280  0.00  0.00    +0.000 A 
ATOM     26  C   UNL     1       0.894   2.538  19.238  0.00  0.00    +0.000 A 
ATOM     27  C   UNL     1       1.670   2.701  18.082  0.00  0.00    +0.000 A 
ATOM     28  C   UNL     1       2.485   3.829  17.964  0.00  0.00    +0.000 A 
ATOM     29  C   UNL     1       3.799   3.847  17.174  0.00  0.00    +0.000 C 
ENDBRANCH  19  20
ENDBRANCH   4  19
TORSDOF 5
ENDMDL
MODEL 3
REMARK VINA RESULT:      -8.7      1.566      1.672
REMARK  Name = 
REMARK  6 active torsions:
REMARK  status: ('A' for Active; 'I' for Inactive)
REMARK    1  A    between atoms: C_1  and  O_2
REMARK    2  A    between atoms: O_2  and  C_3
REMARK    3  A    between atoms: C_6  and  N_7
REMARK    4  A    between atoms: C_8  and  C_10
REMARK    5  A    between atoms: C_13  and  C_14
REMARK    6  A    between atoms: C_14  and  N_15
REMARK                            x       y       z     vdW  Elec       q    Type
REMARK                         _______ _______ _______ _____ _____    ______ ____
ROOT
ATOM      1  C   UNL     1       7.930   7.932  18.096  0.00  0.00    +0.000 A 
ATOM      2  C   UNL     1       7.207   7.650  16.926  0.00  0.00    +0.000 A 
ATOM      3  C   UNL     1       6.699   6.372  16.690  0.00  0.00    +0.000 A 
ATOM      4  C   UNL     1       6.891   5.358  17.634  0.00  0.00    +0.000 A 
ATOM      5  C   UNL     1       7.644   5.633  18.788  0.00  0.00    +0.000 A 
ATOM      6  C   UNL     1       8.162   6.916  19.025  0.00  0.00    +0.000 A 
ENDROOT
BRANCH   1   8
ATOM      7  N   UNL     1       9.328   9.574  19.290  0.00  0.00    +0.000 N 
ATOM      8  C   UNL     1       8.437   9.329  18.254  0.00  0.00    +0.000 C 
ATOM      9  O   UNL     1       7.999  10.152  17.472  0.00  0.00    +0.000 OA
ATOM     10  H   UNL     1       9.591   8.790  19.890  0.00  0.00    +0.000 HD
BRANCH   7  14
ATOM     11  C   UNL     1      10.855  13.376  20.452  0.00  0.00    +0.000 A 
ATOM     12  C   UNL     1      11.410  12.692  19.371  0.00  0.00    +0.000 A 
ATOM     13  C   UNL     1      10.914  11.448  18.966  0.00  0.00    +0.000 A 
ATOM     14  C   UNL     1       9.856  10.841  19.651  0.00  0.00    +0.000 A 
ATOM     15  C   UNL     1       9.295  11.522  20.740  0.00  0.00    +0.000 A 
ATOM     16  C   UNL     1       9.794  12.779  21.142  0.00  0.00    +0.000 A 
BRANCH  11  18
ATOM     17  C   UNL     1      11.951  15.323  19.678  0.00  0.00    +0.000 C 
ATOM     18  O   UNL     1      11.454  14.548  20.759  0.00  0.00    +0.000 OA
ENDBRANCH  11  18
ENDBRANCH   7  14
ENDBRANCH   1   8
BRANCH   4  19
ATOM     19  C   UNL     1       6.095   4.079  17.538  0.00  0.00    +0.000 C 
BRANCH  19  20
ATOM     20  N   UNL     1       4.655   4.102  17.195  0.00  0.00    +0.000 NA
ATOM     21  C   UNL     1       4.195   5.413  17.729  0.00  0.00    +0.000 C 
ATOM     22  C   UNL     1       2.708   5.539  17.904  0.00  0.00    +0.000 C 
ATOM     23  C   UNL     1       2.328   4.482  18.881  0.00  0.00    +0.000 A 
ATOM     24  C   UNL     1       1.793   4.727  20.139  0.00  0.00    +0.000 A 
ATOM     25  C   UNL     1       1.204   3.678  20.831  0.00  0.00    +0.000 A 
ATOM     26  C   UNL     1       1.084   2.434  20.211  0.00  0.00    +0.000 A 
ATOM     27  C   UNL     1       1.815   2.165  19.046  0.00  0.00    +0.000 A 
ATOM     28  C   UNL     1       2.595   3.177  18.483  0.00  0.00    +0.000 A 
ATOM     29  C   UNL     1       3.879   2.915  17.688  0.00  0.00    +0.000 C 
ENDBRANCH  19  20
ENDBRANCH   4  19
TORSDOF 5
ENDMDL
MODEL 4
REMARK VINA RESULT:      -8.5      6.419      8.500
REMARK  Name = 
REMARK  6 active torsions:
REMARK  status: ('A' for Active; 'I' for Inactive)
REMARK    1  A    between atoms: C_1  and  O_2
REMARK    2  A    between atoms: O_2  and  C_3
REMARK    3  A    between atoms: C_6  and  N_7
REMARK    4  A    between atoms: C_8  and  C_10
REMARK    5  A    between atoms: C_13  and  C_14
REMARK    6  A    between atoms: C_14  and  N_15
REMARK                            x       y       z     vdW  Elec       q    Type
REMARK                         _______ _______ _______ _____ _____    ______ ____
ROOT
ATOM      1  C   UNL     1       1.393   9.072  19.153  0.00  0.00    +0.000 A 
ATOM      2  C   UNL     1       1.735   7.974  19.957  0.00  0.00    +0.000 A 
ATOM      3  C   UNL     1       2.619   6.998  19.494  0.00  0.00    +0.000 A 
ATOM      4  C   UNL     1       3.190   7.118  18.223  0.00  0.00    +0.000 A 
ATOM      5  C   UNL     1       2.819   8.200  17.407  0.00  0.00    +0.000 A 
ATOM      6  C   UNL     1       1.925   9.180  17.868  0.00  0.00    +0.000 A 
ENDROOT
BRANCH   1   8
ATOM      7  N   UNL     1       0.773  10.641  20.952  0.00  0.00    +0.000 N 
ATOM      8  C   UNL     1       0.434  10.060  19.737  0.00  0.00    +0.000 C 
ATOM      9  O   UNL     1      -0.591  10.252  19.109  0.00  0.00    +0.000 OA
ATOM     10  H   UNL     1       1.658  10.366  21.383  0.00  0.00    +0.000 HD
BRANCH   7  14
ATOM     11  C   UNL     1      -1.617  13.392  23.154  0.00  0.00    +0.000 A 
ATOM     12  C   UNL     1      -1.835  12.020  23.265  0.00  0.00    +0.000 A 
ATOM     13  C   UNL     1      -1.053  11.100  22.560  0.00  0.00    +0.000 A 
ATOM     14  C   UNL     1      -0.037  11.534  21.701  0.00  0.00    +0.000 A 
ATOM     15  C   UNL     1       0.187  12.912  21.582  0.00  0.00    +0.000 A 
ATOM     16  C   UNL     1      -0.601  13.837  22.299  0.00  0.00    +0.000 A 
BRANCH  11  18
ATOM     17  C   UNL     1      -3.623  13.540  24.396  0.00  0.00    +0.000 C 
ATOM     18  O   UNL     1      -2.469  14.169  23.859  0.00  0.00    +0.000 OA
ENDBRANCH  11  18
ENDBRANCH   7  14
ENDBRANCH   1   8
BRANCH   4  19
ATOM     19  C   UNL     1       4.365   6.251  17.840  0.00  0.00    +0.000 C 
BRANCH  19  20
ATOM     20  N   UNL     1       4.301   4.778  17.978  0.00  0.00    +0.000 NA
ATOM     21  C   UNL     1       3.057   4.418  17.245  0.00  0.00    +0.000 C 
ATOM     22  C   UNL     1       2.507   3.055  17.562  0.00  0.00    +0.000 C 
ATOM     23  C   UNL     1       2.197   3.077  19.018  0.00  0.00    +0.000 A 
ATOM     24  C   UNL     1       0.923   2.948  19.555  0.00  0.00    +0.000 A 
ATOM     25  C   UNL     1       0.792   2.682  20.910  0.00  0.00    +0.000 A 
ATOM     26  C   UNL     1       1.938   2.462  21.676  0.00  0.00    +0.000 A 
ATOM     27  C   UNL     1       3.195   2.807  21.161  0.00  0.00    +0.000 A 
ATOM     28  C   UNL     1       3.284   3.297  19.857  0.00  0.00    +0.000 A 
ATOM     29  C   UNL     1       4.363   4.282  19.393  0.00  0.00    +0.000 C 
ENDBRANCH  19  20
ENDBRANCH   4  19
TORSDOF 5
ENDMDL
MODEL 5
REMARK VINA RESULT:      -8.5      6.368      8.110
REMARK  Name = 
REMARK  6 active torsions:
REMARK  status: ('A' for Active; 'I' for Inactive)
REMARK    1  A    between atoms: C_1  and  O_2
REMARK    2  A    between atoms: O_2  and  C_3
REMARK    3  A    between atoms: C_6  and  N_7
REMARK    4  A    between atoms: C_8  and  C_10
REMARK    5  A    between atoms: C_13  and  C_14
REMARK    6  A    between atoms: C_14  and  N_15
REMARK                            x       y       z     vdW  Elec       q    Type
REMARK                         _______ _______ _______ _____ _____    ______ ____
ROOT
ATOM      1  C   UNL     1       1.958   8.341  19.033  0.00  0.00    +0.000 A 
ATOM      2  C   UNL     1       2.540   8.590  17.780  0.00  0.00    +0.000 A 
ATOM      3  C   UNL     1       3.445   7.687  17.221  0.00  0.00    +0.000 A 
ATOM      4  C   UNL     1       3.767   6.508  17.901  0.00  0.00    +0.000 A 
ATOM      5  C   UNL     1       3.211   6.278  19.170  0.00  0.00    +0.000 A 
ATOM      6  C   UNL     1       2.305   7.188  19.738  0.00  0.00    +0.000 A 
ENDROOT
BRANCH   1   8
ATOM      7  N   UNL     1       1.118   9.737  20.884  0.00  0.00    +0.000 N 
ATOM      8  C   UNL     1       1.005   9.372  19.549  0.00  0.00    +0.000 C 
ATOM      9  O   UNL     1       0.181   9.787  18.757  0.00  0.00    +0.000 OA
ATOM     10  H   UNL     1       1.844   9.285  21.444  0.00  0.00    +0.000 HD
BRANCH   7  14
ATOM     11  C   UNL     1      -1.426  12.492  22.902  0.00  0.00    +0.000 A 
ATOM     12  C   UNL     1      -1.480  11.131  23.201  0.00  0.00    +0.000 A 
ATOM     13  C   UNL     1      -0.643  10.212  22.558  0.00  0.00    +0.000 A 
ATOM     14  C   UNL     1       0.261  10.632  21.576  0.00  0.00    +0.000 A 
ATOM     15  C   UNL     1       0.318  11.997  21.269  0.00  0.00    +0.000 A 
ATOM     16  C   UNL     1      -0.523  12.922  21.923  0.00  0.00    +0.000 A 
BRANCH  11  18
ATOM     17  C   UNL     1      -2.087  14.663  23.564  0.00  0.00    +0.000 C 
ATOM     18  O   UNL     1      -2.315  13.262  23.568  0.00  0.00    +0.000 OA
ENDBRANCH  11  18
ENDBRANCH   7  14
ENDBRANCH   1   8
BRANCH   4  19
ATOM     19  C   UNL     1       4.491   5.397  17.180  0.00  0.00    +0.000 C 
BRANCH  19  20
ATOM     20  N   UNL     1       4.253   3.978  17.532  0.00  0.00    +0.000 NA
ATOM     21  C   UNL     1       2.867   3.733  17.048  0.00  0.00    +0.000 C 
ATOM     22  C   UNL     1       2.198   2.520  17.631  0.00  0.00    +0.000 C 
ATOM     23  C   UNL     1       2.140   2.760  19.099  0.00  0.00    +0.000 A 
ATOM     24  C   UNL     1       0.968   2.895  19.831  0.00  0.00    +0.000 A 
ATOM     25  C   UNL     1       1.030   2.814  21.215  0.00  0.00    +0.000 A 
ATOM     26  C   UNL     1       2.247   2.509  21.826  0.00  0.00    +0.000 A 
ATOM     27  C   UNL     1       3.435   2.591  21.088  0.00  0.00    +0.000 A 
ATOM     28  C   UNL     1       3.372   2.905  19.729  0.00  0.00    +0.000 A 
ATOM     29  C   UNL     1       4.482   3.648  18.978  0.00  0.00    +0.000 C 
ENDBRANCH  19  20
ENDBRANCH   4  19
TORSDOF 5
ENDMDL
MODEL 6
REMARK VINA RESULT:      -8.4      5.958      7.952
REMARK  Name = 
REMARK  6 active torsions:
REMARK  status: ('A' for Active; 'I' for Inactive)
REMARK    1  A    between atoms: C_1  and  O_2
REMARK    2  A    between atoms: O_2  and  C_3
REMARK    3  A    between atoms: C_6  and  N_7
REMARK    4  A    between atoms: C_8  and  C_10
REMARK    5  A    between atoms: C_13  and  C_14
REMARK    6  A    between atoms: C_14  and  N_15
REMARK                            x       y       z     vdW  Elec       q    Type
REMARK                         _______ _______ _______ _____ _____    ______ ____
ROOT
ATOM      1  C   UNL     1       2.730   8.015  18.221  0.00  0.00    +0.000 A 
ATOM      2  C   UNL     1       3.623   7.991  17.138  0.00  0.00    +0.000 A 
ATOM      3  C   UNL     1       4.525   6.937  16.979  0.00  0.00    +0.000 A 
ATOM      4  C   UNL     1       4.533   5.879  17.893  0.00  0.00    +0.000 A 
ATOM      5  C   UNL     1       3.663   5.923  18.995  0.00  0.00    +0.000 A 
ATOM      6  C   UNL     1       2.759   6.984  19.161  0.00  0.00    +0.000 A 
ENDROOT
BRANCH   1   8
ATOM      7  N   UNL     1       0.843   9.174  19.305  0.00  0.00    +0.000 N 
ATOM      8  C   UNL     1       1.808   9.188  18.306  0.00  0.00    +0.000 C 
ATOM      9  O   UNL     1       1.961  10.055  17.466  0.00  0.00    +0.000 OA
ATOM     10  H   UNL     1       0.812   8.364  19.928  0.00  0.00    +0.000 HD
BRANCH   7  14
ATOM     11  C   UNL     1      -2.241  12.067  19.804  0.00  0.00    +0.000 A 
ATOM     12  C   UNL     1      -1.247  11.920  20.770  0.00  0.00    +0.000 A 
ATOM     13  C   UNL     1      -0.218  10.984  20.619  0.00  0.00    +0.000 A 
ATOM     14  C   UNL     1      -0.169  10.149  19.497  0.00  0.00    +0.000 A 
ATOM     15  C   UNL     1      -1.166  10.290  18.523  0.00  0.00    +0.000 A 
ATOM     16  C   UNL     1      -2.199  11.239  18.676  0.00  0.00    +0.000 A 
BRANCH  11  18
ATOM     17  C   UNL     1      -2.792  14.120  20.839  0.00  0.00    +0.000 C 
ATOM     18  O   UNL     1      -3.194  12.980  20.094  0.00  0.00    +0.000 OA
ENDBRANCH  11  18
ENDBRANCH   7  14
ENDBRANCH   1   8
BRANCH   4  19
ATOM     19  C   UNL     1       5.275   4.606  17.566  0.00  0.00    +0.000 C 
BRANCH  19  20
ATOM     20  N   UNL     1       4.729   3.285  17.954  0.00  0.00    +0.000 NA
ATOM     21  C   UNL     1       3.449   3.208  17.199  0.00  0.00    +0.000 C 
ATOM     22  C   UNL     1       2.477   2.178  17.704  0.00  0.00    +0.000 C 
ATOM     23  C   UNL     1       2.165   2.575  19.105  0.00  0.00    +0.000 A 
ATOM     24  C   UNL     1       0.911   2.963  19.554  0.00  0.00    +0.000 A 
ATOM     25  C   UNL     1       0.676   3.017  20.920  0.00  0.00    +0.000 A 
ATOM     26  C   UNL     1       1.672   2.593  21.800  0.00  0.00    +0.000 A 
ATOM     27  C   UNL     1       2.981   2.415  21.334  0.00  0.00    +0.000 A 
ATOM     28  C   UNL     1       3.250   2.593  19.976  0.00  0.00    +0.000 A 
ATOM     29  C   UNL     1       4.600   3.074  19.434  0.00  0.00    +0.000 C 
ENDBRANCH  19  20
ENDBRANCH   4  19
TORSDOF 5
ENDMDL
MODEL 7
REMARK VINA RESULT:      -8.3      6.717      9.039
REMARK  Name = 
REMARK  6 active torsions:
REMARK  status: ('A' for Active; 'I' for Inactive)
REMARK    1  A    between atoms: C_1  and  O_2
REMARK    2  A    between atoms: O_2  and  C_3
REMARK    3  A    between atoms: C_6  and  N_7
REMARK    4  A    between atoms: C_8  and  C_10
REMARK    5  A    between atoms: C_13  and  C_14
REMARK    6  A    between atoms: C_14  and  N_15
REMARK                            x       y       z     vdW  Elec       q    Type
REMARK                         _______ _______ _______ _____ _____    ______ ____
ROOT
ATOM      1  C   UNL     1       0.605   9.788  19.403  0.00  0.00    +0.000 A 
ATOM      2  C   UNL     1       1.180   8.854  20.279  0.00  0.00    +0.000 A 
ATOM      3  C   UNL     1       2.030   7.856  19.802  0.00  0.00    +0.000 A 
ATOM      4  C   UNL     1       2.334   7.789  18.438  0.00  0.00    +0.000 A 
ATOM      5  C   UNL     1       1.730   8.703  17.559  0.00  0.00    +0.000 A 
ATOM      6  C   UNL     1       0.869   9.704  18.036  0.00  0.00    +0.000 A 
ENDROOT
BRANCH   1   8
ATOM      7  N   UNL     1      -0.045  11.190  21.324  0.00  0.00    +0.000 N 
ATOM      8  C   UNL     1      -0.297  10.814  20.011  0.00  0.00    +0.000 C 
ATOM      9  O   UNL     1      -1.205  11.217  19.309  0.00  0.00    +0.000 OA
ATOM     10  H   UNL     1       0.740  10.748  21.806  0.00  0.00    +0.000 HD
BRANCH   7  14
ATOM     11  C   UNL     1      -2.448  13.793  23.688  0.00  0.00    +0.000 A 
ATOM     12  C   UNL     1      -1.412  14.303  22.907  0.00  0.00    +0.000 A 
ATOM     13  C   UNL     1      -0.619  13.466  22.114  0.00  0.00    +0.000 A 
ATOM     14  C   UNL     1      -0.832  12.083  22.098  0.00  0.00    +0.000 A 
ATOM     15  C   UNL     1      -1.870  11.563  22.882  0.00  0.00    +0.000 A 
ATOM     16  C   UNL     1      -2.671  12.411  23.677  0.00  0.00    +0.000 A 
BRANCH  11  18
ATOM     17  C   UNL     1      -3.541  15.888  23.776  0.00  0.00    +0.000 C 
ATOM     18  O   UNL     1      -3.108  14.706  24.434  0.00  0.00    +0.000 OA
ENDBRANCH  11  18
ENDBRANCH   7  14
ENDBRANCH   1   8
BRANCH   4  19
ATOM     19  C   UNL     1       3.475   6.923  17.962  0.00  0.00    +0.000 C 
BRANCH  19  20
ATOM     20  N   UNL     1       3.302   5.463  17.785  0.00  0.00    +0.000 NA
ATOM     21  C   UNL     1       1.824   5.298  17.728  0.00  0.00    +0.000 C 
ATOM     22  C   UNL     1       1.333   3.898  17.971  0.00  0.00    +0.000 C 
ATOM     23  C   UNL     1       1.786   3.548  19.345  0.00  0.00    +0.000 A 
ATOM     24  C   UNL     1       0.936   3.283  20.411  0.00  0.00    +0.000 A 
ATOM     25  C   UNL     1       1.457   2.680  21.547  0.00  0.00    +0.000 A 
ATOM     26  C   UNL     1       2.792   2.277  21.554  0.00  0.00    +0.000 A 
ATOM     27  C   UNL     1       3.665   2.745  20.563  0.00  0.00    +0.000 A 
ATOM     28  C   UNL     1       3.163   3.551  19.539  0.00  0.00    +0.000 A 
ATOM     29  C   UNL     1       3.989   4.624  18.822  0.00  0.00    +0.000 C 
ENDBRANCH  19  20
ENDBRANCH   4  19
TORSDOF 5
ENDMDL
MODEL 8
REMARK VINA RESULT:      -8.2      0.447      1.007
REMARK  Name = 
REMARK  6 active torsions:
REMARK  status: ('A' for Active; 'I' for Inactive)
REMARK    1  A    between atoms: C_1  and  O_2
REMARK    2  A    between atoms: O_2  and  C_3
REMARK    3  A    between atoms: C_6  and  N_7
REMARK    4  A    between atoms: C_8  and  C_10
REMARK    5  A    between atoms: C_13  and  C_14
REMARK    6  A    between atoms: C_14  and  N_15
REMARK                            x       y       z     vdW  Elec       q    Type
REMARK                         _______ _______ _______ _____ _____    ______ ____
ROOT
ATOM      1  C   UNL     1       8.173   8.605  18.323  0.00  0.00    +0.000 A 
ATOM      2  C   UNL     1       8.503   7.415  18.991  0.00  0.00    +0.000 A 
ATOM      3  C   UNL     1       7.790   6.240  18.750  0.00  0.00    +0.000 A 
ATOM      4  C   UNL     1       6.746   6.233  17.821  0.00  0.00    +0.000 A 
ATOM      5  C   UNL     1       6.395   7.432  17.179  0.00  0.00    +0.000 A 
ATOM      6  C   UNL     1       7.106   8.618  17.424  0.00  0.00    +0.000 A 
ENDROOT
BRANCH   1   8
ATOM      7  N   UNL     1       9.162  10.763  17.656  0.00  0.00    +0.000 N 
ATOM      8  C   UNL     1       8.992   9.811  18.653  0.00  0.00    +0.000 C 
ATOM      9  O   UNL     1       9.473   9.846  19.770  0.00  0.00    +0.000 OA
ATOM     10  H   UNL     1       8.720  10.591  16.751  0.00  0.00    +0.000 HD
BRANCH   7  14
ATOM     11  C   UNL     1      11.495  14.313  17.945  0.00  0.00    +0.000 A 
ATOM     12  C   UNL     1      12.112  13.064  17.899  0.00  0.00    +0.000 A 
ATOM     13  C   UNL     1      11.364  11.887  17.792  0.00  0.00    +0.000 A 
ATOM     14  C   UNL     1       9.966  11.929  17.748  0.00  0.00    +0.000 A 
ATOM     15  C   UNL     1       9.339  13.180  17.796  0.00  0.00    +0.000 A 
ATOM     16  C   UNL     1      10.097  14.366  17.899  0.00  0.00    +0.000 A 
BRANCH  11  18
ATOM     17  C   UNL     1      11.987  16.564  17.413  0.00  0.00    +0.000 C 
ATOM     18  O   UNL     1      12.333  15.363  18.088  0.00  0.00    +0.000 OA
ENDBRANCH  11  18
ENDBRANCH   7  14
ENDBRANCH   1   8
BRANCH   4  19
ATOM     19  C   UNL     1       6.181   4.921  17.332  0.00  0.00    +0.000 C 
BRANCH  19  20
ATOM     20  N   UNL     1       4.750   4.794  16.973  0.00  0.00    +0.000 NA
ATOM     21  C   UNL     1       4.113   5.929  17.696  0.00  0.00    +0.000 C 
ATOM     22  C   UNL     1       2.623   5.817  17.863  0.00  0.00    +0.000 C 
ATOM     23  C   UNL     1       2.401   4.579  18.659  0.00  0.00    +0.000 A 
ATOM     24  C   UNL     1       1.845   4.548  19.930  0.00  0.00    +0.000 A 
ATOM     25  C   UNL     1       1.413   3.332  20.442  0.00  0.00    +0.000 A 
ATOM     26  C   UNL     1       1.467   2.195  19.635  0.00  0.00    +0.000 A 
ATOM     27  C   UNL     1       2.222   2.215  18.455  0.00  0.00    +0.000 A 
ATOM     28  C   UNL     1       2.848   3.401  18.068  0.00  0.00    +0.000 A 
ATOM     29  C   UNL     1       4.152   3.449  17.264  0.00  0.00    +0.000 C 
ENDBRANCH  19  20
ENDBRANCH   4  19
TORSDOF 5
ENDMDL
MODEL 9
REMARK VINA RESULT:      -8.1      6.647      9.069
REMARK  Name = 
REMARK  6 active torsions:
REMARK  status: ('A' for Active; 'I' for Inactive)
REMARK    1  A    between atoms: C_1  and  O_2
REMARK    2  A    between atoms: O_2  and  C_3
REMARK    3  A    between atoms: C_6  and  N_7
REMARK    4  A    between atoms: C_8  and  C_10
REMARK    5  A    between atoms: C_13  and  C_14
REMARK    6  A    between atoms: C_14  and  N_15
REMARK                            x       y       z     vdW  Elec       q    Type
REMARK                         _______ _______ _______ _____ _____    ______ ____
ROOT
ATOM      1  C   UNL     1       0.900   9.447  20.367  0.00  0.00    +0.000 A 
ATOM      2  C   UNL     1       1.434   8.250  20.872  0.00  0.00    +0.000 A 
ATOM      3  C   UNL     1       2.144   7.380  20.044  0.00  0.00    +0.000 A 
ATOM      4  C   UNL     1       2.348   7.704  18.699  0.00  0.00    +0.000 A 
ATOM      5  C   UNL     1       1.783   8.884  18.188  0.00  0.00    +0.000 A 
ATOM      6  C   UNL     1       1.063   9.759  19.017  0.00  0.00    +0.000 A 
ENDROOT
BRANCH   1   8
ATOM      7  N   UNL     1      -0.707  11.266  20.804  0.00  0.00    +0.000 N 
ATOM      8  C   UNL     1       0.151  10.309  21.332  0.00  0.00    +0.000 C 
ATOM      9  O   UNL     1       0.379  10.120  22.512  0.00  0.00    +0.000 OA
ATOM     10  H   UNL     1      -0.781  11.332  19.787  0.00  0.00    +0.000 HD
BRANCH   7  14
ATOM     11  C   UNL     1      -2.822  14.176  23.081  0.00  0.00    +0.000 A 
ATOM     12  C   UNL     1      -3.459  13.484  22.052  0.00  0.00    +0.000 A 
ATOM     13  C   UNL     1      -2.785  12.516  21.301  0.00  0.00    +0.000 A 
ATOM     14  C   UNL     1      -1.439  12.227  21.548  0.00  0.00    +0.000 A 
ATOM     15  C   UNL     1      -0.791  12.920  22.579  0.00  0.00    +0.000 A 
ATOM     16  C   UNL     1      -1.475  13.893  23.338  0.00  0.00    +0.000 A 
BRANCH  11  18
ATOM     17  C   UNL     1      -3.208  16.469  23.511  0.00  0.00    +0.000 C 
ATOM     18  O   UNL     1      -3.577  15.111  23.699  0.00  0.00    +0.000 OA
ENDBRANCH  11  18
ENDBRANCH   7  14
ENDBRANCH   1   8
BRANCH   4  19
ATOM     19  C   UNL     1       3.361   6.936  17.885  0.00  0.00    +0.000 C 
BRANCH  19  20
ATOM     20  N   UNL     1       3.277   5.463  17.756  0.00  0.00    +0.000 NA
ATOM     21  C   UNL     1       1.816   5.214  17.613  0.00  0.00    +0.000 C 
ATOM     22  C   UNL     1       1.386   3.799  17.881  0.00  0.00    +0.000 C 
ATOM     23  C   UNL     1       1.766   3.525  19.294  0.00  0.00    +0.000 A 
ATOM     24  C   UNL     1       0.865   3.254  20.314  0.00  0.00    +0.000 A 
ATOM     25  C   UNL     1       1.341   2.723  21.505  0.00  0.00    +0.000 A 
ATOM     26  C   UNL     1       2.693   2.395  21.612  0.00  0.00    +0.000 A 
ATOM     27  C   UNL     1       3.603   2.874  20.659  0.00  0.00    +0.000 A 
ATOM     28  C   UNL     1       3.126   3.612  19.574  0.00  0.00    +0.000 A 
ATOM     29  C   UNL     1       3.938   4.702  18.867  0.00  0.00    +0.000 C 
ENDBRANCH  19  20
ENDBRANCH   4  19
TORSDOF 5
ENDMDL
