MODEL 1
REMARK VINA RESULT:      -7.0      0.000      0.000
REMARK  Name = 
REMARK  6 active torsions:
REMARK  status: ('A' for Active; 'I' for Inactive)
REMARK    1  A    between atoms: C_1  and  C_2
REMARK    2  A    between atoms: C_2  and  O_3
REMARK    3  A    between atoms: C_2  and  C_11
REMARK    4  A    between atoms: O_3  and  C_4
REMARK    5  A    between atoms: N_13  and  N_14
REMARK    6  A    between atoms: N_20  and  C_21
REMARK                            x       y       z     vdW  Elec       q    Type
REMARK                         _______ _______ _______ _____ _____    ______ ____
ROOT
ATOM      1  N   UNL     1       2.180   6.213  19.752  0.00  0.00    +0.000 N 
ATOM      2  C   UNL     1       1.917   5.015  20.418  0.00  0.00    +0.000 C 
ATOM      3  O   UNL     1       0.841   4.710  20.938  0.00  0.00    +0.000 OA
ATOM      4  C   UNL     1       3.032   4.048  20.439  0.00  0.00    +0.000 C 
ATOM      5  C   UNL     1       3.949   4.077  19.274  0.00  0.00    +0.000 C 
ATOM      6  O   UNL     1       4.690   3.105  19.095  0.00  0.00    +0.000 OA
ATOM      7  N   UNL     1       3.962   5.235  18.490  0.00  0.00    +0.000 N 
ATOM      8  C   UNL     1       3.095   6.347  18.682  0.00  0.00    +0.000 C 
ATOM      9  S   UNL     1       3.037   7.713  17.665  0.00  0.00    +0.000 S 
ENDROOT
BRANCH   7  10
ATOM     10  C   UNL     1       4.907   5.216  17.400  0.00  0.00    +0.000 A 
ATOM     11  C   UNL     1       4.592   4.543  16.207  0.00  0.00    +0.000 A 
ATOM     12  C   UNL     1       5.494   4.529  15.138  0.00  0.00    +0.000 A 
ATOM     13  C   UNL     1       6.723   5.170  15.262  0.00  0.00    +0.000 A 
ATOM     14 CL   UNL     1       7.825   5.168  13.943  0.00  0.00    +0.000 Cl
ATOM     15  C   UNL     1       7.066   5.810  16.452  0.00  0.00    +0.000 A 
ATOM     16  C   UNL     1       6.162   5.829  17.521  0.00  0.00    +0.000 A 
ENDBRANCH   7  10
BRANCH   1  19
ATOM     17  C   UNL     1       1.257   8.104  20.972  0.00  0.00    +0.000 C 
ATOM     18  O   UNL     1       2.155   8.056  21.809  0.00  0.00    +0.000 OA
ATOM     19  N   UNL     1       1.165   7.233  19.899  0.00  0.00    +0.000 N 
ATOM     20  H   UNL     1       0.810   7.631  19.026  0.00  0.00    +0.000 HD
BRANCH  17  22
ATOM     21  C   UNL     1      -0.032   9.416  22.580  0.00  0.00    +0.000 C 
ATOM     22  C   UNL     1       0.087   9.101  21.084  0.00  0.00    +0.000 C 
BRANCH  22  23
ATOM     23  O   UNL     1       0.371  10.253  20.272  0.00  0.00    +0.000 OA
BRANCH  23  24
ATOM     24  C   UNL     1      -0.592  10.598  19.361  0.00  0.00    +0.000 A 
ATOM     25  C   UNL     1      -0.722   9.982  18.122  0.00  0.00    +0.000 A 
ATOM     26  C   UNL     1      -1.767  10.263  17.254  0.00  0.00    +0.000 A 
ATOM     27  C   UNL     1      -2.738  11.190  17.628  0.00  0.00    +0.000 A 
ATOM     28  C   UNL     1      -2.618  11.854  18.846  0.00  0.00    +0.000 A 
ATOM     29  C   UNL     1      -1.547  11.578  19.702  0.00  0.00    +0.000 A 
ATOM     30 CL   UNL     1      -1.380  12.538  21.126  0.00  0.00    +0.000 Cl
ENDBRANCH  23  24
ENDBRANCH  22  23
ENDBRANCH  17  22
ENDBRANCH   1  19
TORSDOF 5
ENDMDL
MODEL 2
REMARK VINA RESULT:      -6.7      3.230      9.439
REMARK  Name = 
REMARK  6 active torsions:
REMARK  status: ('A' for Active; 'I' for Inactive)
REMARK    1  A    between atoms: C_1  and  C_2
REMARK    2  A    between atoms: C_2  and  O_3
REMARK    3  A    between atoms: C_2  and  C_11
REMARK    4  A    between atoms: O_3  and  C_4
REMARK    5  A    between atoms: N_13  and  N_14
REMARK    6  A    between atoms: N_20  and  C_21
REMARK                            x       y       z     vdW  Elec       q    Type
REMARK                         _______ _______ _______ _____ _____    ______ ____
ROOT
ATOM      1  N   UNL     1      -0.238  10.185  19.239  0.00  0.00    +0.000 N 
ATOM      2  C   UNL     1      -1.061  10.442  18.141  0.00  0.00    +0.000 C 
ATOM      3  O   UNL     1      -1.342   9.629  17.257  0.00  0.00    +0.000 OA
ATOM      4  C   UNL     1      -1.652  11.794  18.098  0.00  0.00    +0.000 C 
ATOM      5  C   UNL     1      -1.922  12.434  19.408  0.00  0.00    +0.000 C 
ATOM      6  O   UNL     1      -2.686  13.404  19.433  0.00  0.00    +0.000 OA
ATOM      7  N   UNL     1      -1.241  11.937  20.524  0.00  0.00    +0.000 N 
ATOM      8  C   UNL     1      -0.377  10.806  20.502  0.00  0.00    +0.000 C 
ATOM      9  S   UNL     1       0.370  10.136  21.879  0.00  0.00    +0.000 S 
ENDROOT
BRANCH   7  10
ATOM     10  C   UNL     1      -1.516  12.632  21.758  0.00  0.00    +0.000 A 
ATOM     11  C   UNL     1      -0.676  13.678  22.178  0.00  0.00    +0.000 A 
ATOM     12  C   UNL     1      -0.938  14.370  23.365  0.00  0.00    +0.000 A 
ATOM     13  C   UNL     1      -2.029  14.007  24.149  0.00  0.00    +0.000 A 
ATOM     14 CL   UNL     1      -2.364  14.867  25.600  0.00  0.00    +0.000 Cl
ATOM     15  C   UNL     1      -2.851  12.947  23.766  0.00  0.00    +0.000 A 
ATOM     16  C   UNL     1      -2.592  12.258  22.575  0.00  0.00    +0.000 A 
ENDBRANCH   7  10
BRANCH   1  19
ATOM     17  C   UNL     1       1.678   8.903  18.465  0.00  0.00    +0.000 C 
ATOM     18  O   UNL     1       2.142   9.875  17.872  0.00  0.00    +0.000 OA
ATOM     19  N   UNL     1       0.493   8.939  19.181  0.00  0.00    +0.000 N 
ATOM     20  H   UNL     1       0.465   8.371  20.031  0.00  0.00    +0.000 HD
BRANCH  17  22
ATOM     21  C   UNL     1       3.567   7.694  17.495  0.00  0.00    +0.000 C 
ATOM     22  C   UNL     1       2.340   7.513  18.398  0.00  0.00    +0.000 C 
BRANCH  22  23
ATOM     23  O   UNL     1       2.661   7.081  19.731  0.00  0.00    +0.000 OA
BRANCH  23  24
ATOM     24  C   UNL     1       2.479   5.748  19.990  0.00  0.00    +0.000 A 
ATOM     25  C   UNL     1       1.270   5.217  20.422  0.00  0.00    +0.000 A 
ATOM     26  C   UNL     1       1.065   3.854  20.576  0.00  0.00    +0.000 A 
ATOM     27  C   UNL     1       2.100   2.968  20.281  0.00  0.00    +0.000 A 
ATOM     28  C   UNL     1       3.336   3.468  19.882  0.00  0.00    +0.000 A 
ATOM     29  C   UNL     1       3.537   4.846  19.753  0.00  0.00    +0.000 A 
ATOM     30 CL   UNL     1       5.130   5.403  19.397  0.00  0.00    +0.000 Cl
ENDBRANCH  23  24
ENDBRANCH  22  23
ENDBRANCH  17  22
ENDBRANCH   1  19
TORSDOF 5
ENDMDL
MODEL 3
REMARK VINA RESULT:      -6.5      4.612     10.564
REMARK  Name = 
REMARK  6 active torsions:
REMARK  status: ('A' for Active; 'I' for Inactive)
REMARK    1  A    between atoms: C_1  and  C_2
REMARK    2  A    between atoms: C_2  and  O_3
REMARK    3  A    between atoms: C_2  and  C_11
REMARK    4  A    between atoms: O_3  and  C_4
REMARK    5  A    between atoms: N_13  and  N_14
REMARK    6  A    between atoms: N_20  and  C_21
REMARK                            x       y       z     vdW  Elec       q    Type
REMARK                         _______ _______ _______ _____ _____    ______ ____
ROOT
ATOM      1  N   UNL     1      -2.759  11.580  18.499  0.00  0.00    +0.000 N 
ATOM      2  C   UNL     1      -3.451  10.959  17.458  0.00  0.00    +0.000 C 
ATOM      3  O   UNL     1      -3.059   9.971  16.832  0.00  0.00    +0.000 OA
ATOM      4  C   UNL     1      -4.771  11.540  17.143  0.00  0.00    +0.000 C 
ATOM      5  C   UNL     1      -5.506  12.152  18.276  0.00  0.00    +0.000 C 
ATOM      6  O   UNL     1      -6.715  12.362  18.137  0.00  0.00    +0.000 OA
ATOM      7  N   UNL     1      -4.767  12.513  19.408  0.00  0.00    +0.000 N 
ATOM      8  C   UNL     1      -3.378  12.252  19.579  0.00  0.00    +0.000 C 
ATOM      9  S   UNL     1      -2.499  12.597  20.997  0.00  0.00    +0.000 S 
ENDROOT
BRANCH   7  10
ATOM     10  C   UNL     1      -5.533  13.143  20.454  0.00  0.00    +0.000 A 
ATOM     11  C   UNL     1      -6.224  12.356  21.392  0.00  0.00    +0.000 A 
ATOM     12  C   UNL     1      -6.959  12.954  22.421  0.00  0.00    +0.000 A 
ATOM     13  C   UNL     1      -7.026  14.341  22.505  0.00  0.00    +0.000 A 
ATOM     14 CL   UNL     1      -7.915  15.079  23.778  0.00  0.00    +0.000 Cl
ATOM     15  C   UNL     1      -6.378  15.136  21.560  0.00  0.00    +0.000 A 
ATOM     16  C   UNL     1      -5.637  14.538  20.535  0.00  0.00    +0.000 A 
ENDBRANCH   7  10
BRANCH   1  19
ATOM     17  C   UNL     1      -0.371  12.028  18.375  0.00  0.00    +0.000 C 
ATOM     18  O   UNL     1      -0.564  13.169  17.962  0.00  0.00    +0.000 OA
ATOM     19  N   UNL     1      -1.392  11.141  18.676  0.00  0.00    +0.000 N 
ATOM     20  H   UNL     1      -1.228  10.521  19.473  0.00  0.00    +0.000 HD
BRANCH  17  22
ATOM     21  C   UNL     1       1.953  12.644  18.807  0.00  0.00    +0.000 C 
ATOM     22  C   UNL     1       1.046  11.440  18.522  0.00  0.00    +0.000 C 
BRANCH  22  23
ATOM     23  O   UNL     1       1.041  10.459  19.573  0.00  0.00    +0.000 OA
BRANCH  23  24
ATOM     24  C   UNL     1       1.542   9.227  19.245  0.00  0.00    +0.000 A 
ATOM     25  C   UNL     1       2.085   8.934  18.000  0.00  0.00    +0.000 A 
ATOM     26  C   UNL     1       2.689   7.718  17.716  0.00  0.00    +0.000 A 
ATOM     27  C   UNL     1       2.769   6.744  18.710  0.00  0.00    +0.000 A 
ATOM     28  C   UNL     1       2.202   6.989  19.957  0.00  0.00    +0.000 A 
ATOM     29  C   UNL     1       1.576   8.212  20.224  0.00  0.00    +0.000 A 
ATOM     30 CL   UNL     1       0.768   8.394  21.737  0.00  0.00    +0.000 Cl
ENDBRANCH  23  24
ENDBRANCH  22  23
ENDBRANCH  17  22
ENDBRANCH   1  19
TORSDOF 5
ENDMDL
MODEL 4
REMARK VINA RESULT:      -6.4      1.216      1.360
REMARK  Name = 
REMARK  6 active torsions:
REMARK  status: ('A' for Active; 'I' for Inactive)
REMARK    1  A    between atoms: C_1  and  C_2
REMARK    2  A    between atoms: C_2  and  O_3
REMARK    3  A    between atoms: C_2  and  C_11
REMARK    4  A    between atoms: O_3  and  C_4
REMARK    5  A    between atoms: N_13  and  N_14
REMARK    6  A    between atoms: N_20  and  C_21
REMARK                            x       y       z     vdW  Elec       q    Type
REMARK                         _______ _______ _______ _____ _____    ______ ____
ROOT
ATOM      1  N   UNL     1       2.234   6.400  19.726  0.00  0.00    +0.000 N 
ATOM      2  C   UNL     1       1.917   5.217  20.396  0.00  0.00    +0.000 C 
ATOM      3  O   UNL     1       0.832   4.967  20.925  0.00  0.00    +0.000 OA
ATOM      4  C   UNL     1       2.984   4.196  20.411  0.00  0.00    +0.000 C 
ATOM      5  C   UNL     1       3.892   4.179  19.240  0.00  0.00    +0.000 C 
ATOM      6  O   UNL     1       4.583   3.171  19.056  0.00  0.00    +0.000 OA
ATOM      7  N   UNL     1       3.957   5.333  18.453  0.00  0.00    +0.000 N 
ATOM      8  C   UNL     1       3.146   6.487  18.649  0.00  0.00    +0.000 C 
ATOM      9  S   UNL     1       3.149   7.852  17.630  0.00  0.00    +0.000 S 
ENDROOT
BRANCH   7  10
ATOM     10  C   UNL     1       4.891   5.266  17.357  0.00  0.00    +0.000 A 
ATOM     11  C   UNL     1       4.540   4.596  16.171  0.00  0.00    +0.000 A 
ATOM     12  C   UNL     1       5.431   4.536  15.095  0.00  0.00    +0.000 A 
ATOM     13  C   UNL     1       6.687   5.126  15.205  0.00  0.00    +0.000 A 
ATOM     14 CL   UNL     1       7.778   5.068  13.878  0.00  0.00    +0.000 Cl
ATOM     15  C   UNL     1       7.066   5.762  16.387  0.00  0.00    +0.000 A 
ATOM     16  C   UNL     1       6.172   5.827  17.462  0.00  0.00    +0.000 A 
ENDBRANCH   7  10
BRANCH   1  19
ATOM     17  C   UNL     1       1.345   8.266  21.009  0.00  0.00    +0.000 C 
ATOM     18  O   UNL     1       2.184   8.111  21.894  0.00  0.00    +0.000 OA
ATOM     19  N   UNL     1       1.272   7.469  19.878  0.00  0.00    +0.000 N 
ATOM     20  H   UNL     1       0.996   7.941  19.014  0.00  0.00    +0.000 HD
BRANCH  17  22
ATOM     21  C   UNL     1      -0.473   9.034  22.448  0.00  0.00    +0.000 C 
ATOM     22  C   UNL     1       0.230   9.323  21.116  0.00  0.00    +0.000 C 
BRANCH  22  23
ATOM     23  O   UNL     1       0.816  10.634  21.045  0.00  0.00    +0.000 OA
BRANCH  23  24
ATOM     24  C   UNL     1       0.365  11.439  20.033  0.00  0.00    +0.000 A 
ATOM     25  C   UNL     1      -0.690  11.091  19.198  0.00  0.00    +0.000 A 
ATOM     26  C   UNL     1      -1.209  11.960  18.249  0.00  0.00    +0.000 A 
ATOM     27  C   UNL     1      -0.669  13.238  18.122  0.00  0.00    +0.000 A 
ATOM     28  C   UNL     1       0.413  13.607  18.916  0.00  0.00    +0.000 A 
ATOM     29  C   UNL     1       0.942  12.713  19.854  0.00  0.00    +0.000 A 
ATOM     30 CL   UNL     1       2.371  13.181  20.701  0.00  0.00    +0.000 Cl
ENDBRANCH  23  24
ENDBRANCH  22  23
ENDBRANCH  17  22
ENDBRANCH   1  19
TORSDOF 5
ENDMDL
MODEL 5
REMARK VINA RESULT:      -6.4      3.290      9.528
REMARK  Name = 
REMARK  6 active torsions:
REMARK  status: ('A' for Active; 'I' for Inactive)
REMARK    1  A    between atoms: C_1  and  C_2
REMARK    2  A    between atoms: C_2  and  O_3
REMARK    3  A    between atoms: C_2  and  C_11
REMARK    4  A    between atoms: O_3  and  C_4
REMARK    5  A    between atoms: N_13  and  N_14
REMARK    6  A    between atoms: N_20  and  C_21
REMARK                            x       y       z     vdW  Elec       q    Type
REMARK                         _______ _______ _______ _____ _____    ______ ____
ROOT
ATOM      1  N   UNL     1      -0.036  10.085  19.685  0.00  0.00    +0.000 N 
ATOM      2  C   UNL     1      -0.686  10.348  18.478  0.00  0.00    +0.000 C 
ATOM      3  O   UNL     1      -0.863   9.532  17.571  0.00  0.00    +0.000 OA
ATOM      4  C   UNL     1      -1.225  11.716  18.338  0.00  0.00    +0.000 C 
ATOM      5  C   UNL     1      -1.660  12.381  19.590  0.00  0.00    +0.000 C 
ATOM      6  O   UNL     1      -2.391  13.372  19.496  0.00  0.00    +0.000 OA
ATOM      7  N   UNL     1      -1.160  11.881  20.797  0.00  0.00    +0.000 N 
ATOM      8  C   UNL     1      -0.335  10.727  20.909  0.00  0.00    +0.000 C 
ATOM      9  S   UNL     1       0.189  10.056  22.385  0.00  0.00    +0.000 S 
ENDROOT
BRANCH   7  10
ATOM     10  C   UNL     1      -1.586  12.601  21.971  0.00  0.00    +0.000 A 
ATOM     11  C   UNL     1      -0.765  13.602  22.520  0.00  0.00    +0.000 A 
ATOM     12  C   UNL     1      -1.173  14.317  23.651  0.00  0.00    +0.000 A 
ATOM     13  C   UNL     1      -2.393  14.022  24.252  0.00  0.00    +0.000 A 
ATOM     14 CL   UNL     1      -2.904  14.912  25.631  0.00  0.00    +0.000 Cl
ATOM     15  C   UNL     1      -3.202  13.007  23.742  0.00  0.00    +0.000 A 
ATOM     16  C   UNL     1      -2.797  12.295  22.608  0.00  0.00    +0.000 A 
ENDBRANCH   7  10
BRANCH   1  19
ATOM     17  C   UNL     1       1.839   8.680  19.032  0.00  0.00    +0.000 C 
ATOM     18  O   UNL     1       2.328   9.577  18.349  0.00  0.00    +0.000 OA
ATOM     19  N   UNL     1       0.659   8.817  19.744  0.00  0.00    +0.000 N 
ATOM     20  H   UNL     1       0.618   8.334  20.644  0.00  0.00    +0.000 HD
BRANCH  17  22
ATOM     21  C   UNL     1       1.955   6.668  20.413  0.00  0.00    +0.000 C 
ATOM     22  C   UNL     1       2.460   7.271  19.096  0.00  0.00    +0.000 C 
BRANCH  22  23
ATOM     23  O   UNL     1       2.063   6.528  17.932  0.00  0.00    +0.000 OA
BRANCH  23  24
ATOM     24  C   UNL     1       2.424   5.207  17.910  0.00  0.00    +0.000 A 
ATOM     25  C   UNL     1       1.546   4.174  18.214  0.00  0.00    +0.000 A 
ATOM     26  C   UNL     1       1.891   2.837  18.083  0.00  0.00    +0.000 A 
ATOM     27  C   UNL     1       3.161   2.500  17.619  0.00  0.00    +0.000 A 
ATOM     28  C   UNL     1       4.079   3.508  17.341  0.00  0.00    +0.000 A 
ATOM     29  C   UNL     1       3.726   4.853  17.499  0.00  0.00    +0.000 A 
ATOM     30 CL   UNL     1       4.954   6.044  17.277  0.00  0.00    +0.000 Cl
ENDBRANCH  23  24
ENDBRANCH  22  23
ENDBRANCH  17  22
ENDBRANCH   1  19
TORSDOF 5
ENDMDL
MODEL 6
REMARK VINA RESULT:      -6.4      3.458      9.609
REMARK  Name = 
REMARK  6 active torsions:
REMARK  status: ('A' for Active; 'I' for Inactive)
REMARK    1  A    between atoms: C_1  and  C_2
REMARK    2  A    between atoms: C_2  and  O_3
REMARK    3  A    between atoms: C_2  and  C_11
REMARK    4  A    between atoms: O_3  and  C_4
REMARK    5  A    between atoms: N_13  and  N_14
REMARK    6  A    between atoms: N_20  and  C_21
REMARK                            x       y       z     vdW  Elec       q    Type
REMARK                         _______ _______ _______ _____ _____    ______ ____
ROOT
ATOM      1  N   UNL     1      -0.115  10.136  19.810  0.00  0.00    +0.000 N 
ATOM      2  C   UNL     1      -0.759  10.394  18.598  0.00  0.00    +0.000 C 
ATOM      3  O   UNL     1      -0.937   9.571  17.697  0.00  0.00    +0.000 OA
ATOM      4  C   UNL     1      -1.289  11.763  18.445  0.00  0.00    +0.000 C 
ATOM      5  C   UNL     1      -1.724  12.442  19.689  0.00  0.00    +0.000 C 
ATOM      6  O   UNL     1      -2.449  13.436  19.584  0.00  0.00    +0.000 OA
ATOM      7  N   UNL     1      -1.232  11.949  20.902  0.00  0.00    +0.000 N 
ATOM      8  C   UNL     1      -0.415  10.790  21.027  0.00  0.00    +0.000 C 
ATOM      9  S   UNL     1       0.100  10.128  22.510  0.00  0.00    +0.000 S 
ENDROOT
BRANCH   7  10
ATOM     10  C   UNL     1      -1.658  12.680  22.069  0.00  0.00    +0.000 A 
ATOM     11  C   UNL     1      -0.828  13.673  22.620  0.00  0.00    +0.000 A 
ATOM     12  C   UNL     1      -1.236  14.400  23.743  0.00  0.00    +0.000 A 
ATOM     13  C   UNL     1      -2.465  14.125  24.335  0.00  0.00    +0.000 A 
ATOM     14 CL   UNL     1      -2.975  15.029  25.705  0.00  0.00    +0.000 Cl
ATOM     15  C   UNL     1      -3.283  13.119  23.824  0.00  0.00    +0.000 A 
ATOM     16  C   UNL     1      -2.879  12.395  22.696  0.00  0.00    +0.000 A 
ENDBRANCH   7  10
BRANCH   1  19
ATOM     17  C   UNL     1       1.786   8.735  19.227  0.00  0.00    +0.000 C 
ATOM     18  O   UNL     1       2.311   9.641  18.584  0.00  0.00    +0.000 OA
ATOM     19  N   UNL     1       0.572   8.865  19.882  0.00  0.00    +0.000 N 
ATOM     20  H   UNL     1       0.485   8.367  20.770  0.00  0.00    +0.000 HD
BRANCH  17  22
ATOM     21  C   UNL     1       1.699   6.640  20.481  0.00  0.00    +0.000 C 
ATOM     22  C   UNL     1       2.399   7.322  19.298  0.00  0.00    +0.000 C 
BRANCH  22  23
ATOM     23  O   UNL     1       2.192   6.656  18.042  0.00  0.00    +0.000 OA
BRANCH  23  24
ATOM     24  C   UNL     1       3.232   5.887  17.592  0.00  0.00    +0.000 A 
ATOM     25  C   UNL     1       4.449   6.420  17.182  0.00  0.00    +0.000 A 
ATOM     26  C   UNL     1       5.532   5.627  16.832  0.00  0.00    +0.000 A 
ATOM     27  C   UNL     1       5.415   4.239  16.899  0.00  0.00    +0.000 A 
ATOM     28  C   UNL     1       4.200   3.672  17.270  0.00  0.00    +0.000 A 
ATOM     29  C   UNL     1       3.108   4.483  17.598  0.00  0.00    +0.000 A 
ATOM     30 CL   UNL     1       1.593   3.716  17.906  0.00  0.00    +0.000 Cl
ENDBRANCH  23  24
ENDBRANCH  22  23
ENDBRANCH  17  22
ENDBRANCH   1  19
TORSDOF 5
ENDMDL
MODEL 7
REMARK VINA RESULT:      -6.3      2.027      3.149
REMARK  Name = 
REMARK  6 active torsions:
REMARK  status: ('A' for Active; 'I' for Inactive)
REMARK    1  A    between atoms: C_1  and  C_2
REMARK    2  A    between atoms: C_2  and  O_3
REMARK    3  A    between atoms: C_2  and  C_11
REMARK    4  A    between atoms: O_3  and  C_4
REMARK    5  A    between atoms: N_13  and  N_14
REMARK    6  A    between atoms: N_20  and  C_21
REMARK                            x       y       z     vdW  Elec       q    Type
REMARK                         _______ _______ _______ _____ _____    ______ ____
ROOT
ATOM      1  N   UNL     1       1.108   8.840  19.981  0.00  0.00    +0.000 N 
ATOM      2  C   UNL     1       0.458   8.193  21.034  0.00  0.00    +0.000 C 
ATOM      3  O   UNL     1      -0.634   8.520  21.506  0.00  0.00    +0.000 OA
ATOM      4  C   UNL     1       1.151   7.004  21.567  0.00  0.00    +0.000 C 
ATOM      5  C   UNL     1       1.970   6.234  20.601  0.00  0.00    +0.000 C 
ATOM      6  O   UNL     1       2.305   5.085  20.909  0.00  0.00    +0.000 OA
ATOM      7  N   UNL     1       2.367   6.883  19.427  0.00  0.00    +0.000 N 
ATOM      8  C   UNL     1       1.966   8.198  19.059  0.00  0.00    +0.000 C 
ATOM      9  S   UNL     1       2.363   8.951  17.583  0.00  0.00    +0.000 S 
ENDROOT
BRANCH   7  10
ATOM     10  C   UNL     1       3.198   6.094  18.552  0.00  0.00    +0.000 A 
ATOM     11  C   UNL     1       2.644   5.017  17.837  0.00  0.00    +0.000 A 
ATOM     12  C   UNL     1       3.436   4.252  16.974  0.00  0.00    +0.000 A 
ATOM     13  C   UNL     1       4.789   4.545  16.836  0.00  0.00    +0.000 A 
ATOM     14 CL   UNL     1       5.760   3.617  15.762  0.00  0.00    +0.000 Cl
ATOM     15  C   UNL     1       5.362   5.586  17.566  0.00  0.00    +0.000 A 
ATOM     16  C   UNL     1       4.570   6.355  18.425  0.00  0.00    +0.000 A 
ENDBRANCH   7  10
BRANCH   1  19
ATOM     17  C   UNL     1       0.777  11.215  20.391  0.00  0.00    +0.000 C 
ATOM     18  O   UNL     1       1.454  11.176  21.415  0.00  0.00    +0.000 OA
ATOM     19  N   UNL     1       0.533  10.109  19.592  0.00  0.00    +0.000 N 
ATOM     20  H   UNL     1       0.489  10.283  18.586  0.00  0.00    +0.000 HD
BRANCH  17  22
ATOM     21  C   UNL     1       1.178  13.513  19.666  0.00  0.00    +0.000 C 
ATOM     22  C   UNL     1       0.058  12.500  19.935  0.00  0.00    +0.000 C 
BRANCH  22  23
ATOM     23  O   UNL     1      -0.743  12.205  18.779  0.00  0.00    +0.000 OA
BRANCH  23  24
ATOM     24  C   UNL     1      -2.094  12.119  18.991  0.00  0.00    +0.000 A 
ATOM     25  C   UNL     1      -2.741  12.763  20.040  0.00  0.00    +0.000 A 
ATOM     26  C   UNL     1      -4.121  12.759  20.181  0.00  0.00    +0.000 A 
ATOM     27  C   UNL     1      -4.904  12.095  19.238  0.00  0.00    +0.000 A 
ATOM     28  C   UNL     1      -4.288  11.409  18.197  0.00  0.00    +0.000 A 
ATOM     29  C   UNL     1      -2.894  11.401  18.078  0.00  0.00    +0.000 A 
ATOM     30 CL   UNL     1      -2.191  10.413  16.851  0.00  0.00    +0.000 Cl
ENDBRANCH  23  24
ENDBRANCH  22  23
ENDBRANCH  17  22
ENDBRANCH   1  19
TORSDOF 5
ENDMDL
MODEL 8
REMARK VINA RESULT:      -6.3      3.281      9.389
REMARK  Name = 
REMARK  6 active torsions:
REMARK  status: ('A' for Active; 'I' for Inactive)
REMARK    1  A    between atoms: C_1  and  C_2
REMARK    2  A    between atoms: C_2  and  O_3
REMARK    3  A    between atoms: C_2  and  C_11
REMARK    4  A    between atoms: O_3  and  C_4
REMARK    5  A    between atoms: N_13  and  N_14
REMARK    6  A    between atoms: N_20  and  C_21
REMARK                            x       y       z     vdW  Elec       q    Type
REMARK                         _______ _______ _______ _____ _____    ______ ____
ROOT
ATOM      1  N   UNL     1       1.090  10.858  19.493  0.00  0.00    +0.000 N 
ATOM      2  C   UNL     1       1.849  11.981  19.160  0.00  0.00    +0.000 C 
ATOM      3  O   UNL     1       2.594  12.074  18.181  0.00  0.00    +0.000 OA
ATOM      4  C   UNL     1       1.683  13.142  20.057  0.00  0.00    +0.000 C 
ATOM      5  C   UNL     1       0.355  13.293  20.697  0.00  0.00    +0.000 C 
ATOM      6  O   UNL     1       0.070  14.388  21.192  0.00  0.00    +0.000 OA
ATOM      7  N   UNL     1      -0.467  12.162  20.757  0.00  0.00    +0.000 N 
ATOM      8  C   UNL     1      -0.151  10.905  20.169  0.00  0.00    +0.000 C 
ATOM      9  S   UNL     1      -1.194   9.559  20.151  0.00  0.00    +0.000 S 
ENDROOT
BRANCH   7  10
ATOM     10  C   UNL     1      -1.726  12.365  21.431  0.00  0.00    +0.000 A 
ATOM     11  C   UNL     1      -2.833  12.859  20.719  0.00  0.00    +0.000 A 
ATOM     12  C   UNL     1      -4.064  13.047  21.357  0.00  0.00    +0.000 A 
ATOM     13  C   UNL     1      -4.189  12.763  22.714  0.00  0.00    +0.000 A 
ATOM     14 CL   UNL     1      -5.705  12.977  23.496  0.00  0.00    +0.000 Cl
ATOM     15  C   UNL     1      -3.091  12.308  23.443  0.00  0.00    +0.000 A 
ATOM     16  C   UNL     1      -1.861  12.115  22.804  0.00  0.00    +0.000 A 
ENDBRANCH   7  10
BRANCH   1  19
ATOM     17  C   UNL     1       1.834   8.543  19.424  0.00  0.00    +0.000 C 
ATOM     18  O   UNL     1       1.977   8.508  20.644  0.00  0.00    +0.000 OA
ATOM     19  N   UNL     1       1.397   9.664  18.737  0.00  0.00    +0.000 N 
ATOM     20  H   UNL     1       0.799   9.489  17.926  0.00  0.00    +0.000 HD
BRANCH  17  22
ATOM     21  C   UNL     1       3.064   7.948  17.399  0.00  0.00    +0.000 C 
ATOM     22  C   UNL     1       2.209   7.350  18.523  0.00  0.00    +0.000 C 
BRANCH  22  23
ATOM     23  O   UNL     1       2.897   6.364  19.310  0.00  0.00    +0.000 OA
BRANCH  23  24
ATOM     24  C   UNL     1       2.327   5.119  19.346  0.00  0.00    +0.000 A 
ATOM     25  C   UNL     1       1.425   4.724  20.327  0.00  0.00    +0.000 A 
ATOM     26  C   UNL     1       0.771   3.501  20.291  0.00  0.00    +0.000 A 
ATOM     27  C   UNL     1       1.010   2.627  19.232  0.00  0.00    +0.000 A 
ATOM     28  C   UNL     1       1.935   2.975  18.253  0.00  0.00    +0.000 A 
ATOM     29  C   UNL     1       2.605   4.201  18.312  0.00  0.00    +0.000 A 
ATOM     30 CL   UNL     1       3.842   4.505  17.149  0.00  0.00    +0.000 Cl
ENDBRANCH  23  24
ENDBRANCH  22  23
ENDBRANCH  17  22
ENDBRANCH   1  19
TORSDOF 5
ENDMDL
MODEL 9
REMARK VINA RESULT:      -6.3      1.451      1.451
REMARK  Name = 
REMARK  6 active torsions:
REMARK  status: ('A' for Active; 'I' for Inactive)
REMARK    1  A    between atoms: C_1  and  C_2
REMARK    2  A    between atoms: C_2  and  O_3
REMARK    3  A    between atoms: C_2  and  C_11
REMARK    4  A    between atoms: O_3  and  C_4
REMARK    5  A    between atoms: N_13  and  N_14
REMARK    6  A    between atoms: N_20  and  C_21
REMARK                            x       y       z     vdW  Elec       q    Type
REMARK                         _______ _______ _______ _____ _____    ______ ____
ROOT
ATOM      1  N   UNL     1       2.253   6.399  19.694  0.00  0.00    +0.000 N 
ATOM      2  C   UNL     1       1.913   5.214  20.350  0.00  0.00    +0.000 C 
ATOM      3  O   UNL     1       0.823   4.979  20.875  0.00  0.00    +0.000 OA
ATOM      4  C   UNL     1       2.960   4.173  20.352  0.00  0.00    +0.000 C 
ATOM      5  C   UNL     1       3.868   4.152  19.180  0.00  0.00    +0.000 C 
ATOM      6  O   UNL     1       4.539   3.134  18.984  0.00  0.00    +0.000 OA
ATOM      7  N   UNL     1       3.955   5.315  18.408  0.00  0.00    +0.000 N 
ATOM      8  C   UNL     1       3.167   6.482  18.618  0.00  0.00    +0.000 C 
ATOM      9  S   UNL     1       3.196   7.859  17.617  0.00  0.00    +0.000 S 
ENDROOT
BRANCH   7  10
ATOM     10  C   UNL     1       4.888   5.244  17.311  0.00  0.00    +0.000 A 
ATOM     11  C   UNL     1       4.530   4.582  16.124  0.00  0.00    +0.000 A 
ATOM     12  C   UNL     1       5.420   4.517  15.047  0.00  0.00    +0.000 A 
ATOM     13  C   UNL     1       6.681   5.095  15.158  0.00  0.00    +0.000 A 
ATOM     14 CL   UNL     1       7.771   5.032  13.830  0.00  0.00    +0.000 Cl
ATOM     15  C   UNL     1       7.067   5.723  16.342  0.00  0.00    +0.000 A 
ATOM     16  C   UNL     1       6.174   5.793  17.418  0.00  0.00    +0.000 A 
ENDBRANCH   7  10
BRANCH   1  19
ATOM     17  C   UNL     1       1.443   8.308  20.966  0.00  0.00    +0.000 C 
ATOM     18  O   UNL     1       2.318   8.165  21.817  0.00  0.00    +0.000 OA
ATOM     19  N   UNL     1       1.311   7.484  19.860  0.00  0.00    +0.000 N 
ATOM     20  H   UNL     1       1.004   7.938  18.996  0.00  0.00    +0.000 HD
BRANCH  17  22
ATOM     21  C   UNL     1      -0.610   8.857  22.171  0.00  0.00    +0.000 C 
ATOM     22  C   UNL     1       0.347   9.383  21.093  0.00  0.00    +0.000 C 
BRANCH  22  23
ATOM     23  O   UNL     1       0.957  10.641  21.426  0.00  0.00    +0.000 OA
BRANCH  23  24
ATOM     24  C   UNL     1       0.575  11.715  20.666  0.00  0.00    +0.000 A 
ATOM     25  C   UNL     1       1.073  11.960  19.393  0.00  0.00    +0.000 A 
ATOM     26  C   UNL     1       0.598  12.986  18.589  0.00  0.00    +0.000 A 
ATOM     27  C   UNL     1      -0.426  13.807  19.060  0.00  0.00    +0.000 A 
ATOM     28  C   UNL     1      -0.922  13.613  20.346  0.00  0.00    +0.000 A 
ATOM     29  C   UNL     1      -0.418  12.589  21.155  0.00  0.00    +0.000 A 
ATOM     30 CL   UNL     1      -0.974  12.496  22.785  0.00  0.00    +0.000 Cl
ENDBRANCH  23  24
ENDBRANCH  22  23
ENDBRANCH  17  22
ENDBRANCH   1  19
TORSDOF 5
ENDMDL
