MODEL 1
REMARK VINA RESULT:      -8.8      0.000      0.000
REMARK  Name = 
REMARK  10 active torsions:
REMARK  status: ('A' for Active; 'I' for Inactive)
REMARK    1  A    between atoms: C_1  and  C_2
REMARK    2  A    between atoms: C_2  and  C_3
REMARK    3  A    between atoms: C_2  and  N_4
REMARK    4  A    between atoms: N_4  and  C_5
REMARK    5  A    between atoms: C_5  and  C_6
REMARK    6  A    between atoms: C_7  and  C_8
REMARK    7  A    between atoms: N_10  and  C_11
REMARK    8  A    between atoms: C_17  and  C_18
REMARK    9  A    between atoms: C_20  and  N_21
REMARK   10  A    between atoms: N_21  and  C_22
REMARK                            x       y       z     vdW  Elec       q    Type
REMARK                         _______ _______ _______ _____ _____    ______ ____
ROOT
ATOM      1  C   UNL     1       6.394   6.641  17.103  0.00  0.00    +0.000 A 
ATOM      2  C   UNL     1       6.664   5.655  16.166  0.00  0.00    +0.000 A 
ATOM      3  C   UNL     1       5.935   4.477  16.160  0.00  0.00    +0.000 A 
ATOM      4  C   UNL     1       4.913   4.252  17.055  0.00  0.00    +0.000 A 
ATOM      5  N   UNL     1       4.300   3.080  16.917  0.00  0.00    +0.000 NA
ATOM      6  C   UNL     1       3.241   2.832  17.696  0.00  0.00    +0.000 A 
ATOM      7  C   UNL     1       2.742   3.711  18.641  0.00  0.00    +0.000 A 
ATOM      8  C   UNL     1       3.414   4.936  18.856  0.00  0.00    +0.000 A 
ATOM      9  C   UNL     1       4.561   5.233  18.021  0.00  0.00    +0.000 A 
ATOM     10  C   UNL     1       5.365   6.422  18.042  0.00  0.00    +0.000 A 
ENDROOT
BRANCH   1  13
ATOM     11  C   UNL     1       8.094   8.152  18.098  0.00  0.00    +0.000 C 
ATOM     12  O   UNL     1       8.569   7.425  18.956  0.00  0.00    +0.000 OA
ATOM     13  N   UNL     1       7.145   7.834  17.143  0.00  0.00    +0.000 N 
ATOM     14  H   UNL     1       7.004   8.517  16.410  0.00  0.00    +0.000 HD
BRANCH  11  16
ATOM     15  C   UNL     1       9.025  10.619  17.977  0.00  0.00    +0.000 C 
ATOM     16  C   UNL     1       8.556   9.519  18.050  0.00  0.00    +0.000 C 
BRANCH  15  17
ATOM     17  C   UNL     1       9.714  11.907  17.881  0.00  0.00    +0.000 C 
BRANCH  17  18
ATOM     18  N   UNL     1       9.563  12.619  19.145  0.00  0.00    +0.000 NA
ATOM     19  H   UNL     1      10.013  13.533  19.050  0.00  0.00    +0.000 HD
BRANCH  18  21
ATOM     20  C   UNL     1      11.681  12.032  20.171  0.00  0.00    +0.000 C 
ATOM     21  C   UNL     1      10.160  11.908  20.279  0.00  0.00    +0.000 C 
ATOM     22  C   UNL     1       9.720  12.473  21.632  0.00  0.00    +0.000 C 
ENDBRANCH  18  21
ENDBRANCH  17  18
ENDBRANCH  15  17
ENDBRANCH  11  16
ENDBRANCH   1  13
BRANCH   7  23
ATOM     23  C   UNL     1       1.508   3.315  19.238  0.00  0.00    +0.000 C 
ATOM     24  N   UNL     1       0.502   3.088  19.781  0.00  0.00    +0.000 NA
ENDBRANCH   7  23
BRANCH   8  25
ATOM     25  N   UNL     1       2.994   5.880  19.840  0.00  0.00    +0.000 N 
ATOM     26  H   UNL     1       3.167   5.608  20.799  0.00  0.00    +0.000 HD
BRANCH  25  27
ATOM     27  C   UNL     1       2.267   7.089  19.760  0.00  0.00    +0.000 A 
ATOM     28  C   UNL     1       2.241   7.879  18.602  0.00  0.00    +0.000 A 
ATOM     29  C   UNL     1       1.550   9.095  18.567  0.00  0.00    +0.000 A 
ATOM     30  C   UNL     1       0.892   9.560  19.702  0.00  0.00    +0.000 A 
ATOM     31  C   UNL     1       0.922   8.797  20.864  0.00  0.00    +0.000 A 
ATOM     32 BR   UNL     1       0.107   9.467  22.435  0.00  0.00    +0.000 Br
ATOM     33  C   UNL     1       1.583   7.562  20.892  0.00  0.00    +0.000 A 
ENDBRANCH  25  27
ENDBRANCH   8  25
TORSDOF 8
ENDMDL
MODEL 2
REMARK VINA RESULT:      -8.5      0.978      1.373
REMARK  Name = 
REMARK  10 active torsions:
REMARK  status: ('A' for Active; 'I' for Inactive)
REMARK    1  A    between atoms: C_1  and  C_2
REMARK    2  A    between atoms: C_2  and  C_3
REMARK    3  A    between atoms: C_2  and  N_4
REMARK    4  A    between atoms: N_4  and  C_5
REMARK    5  A    between atoms: C_5  and  C_6
REMARK    6  A    between atoms: C_7  and  C_8
REMARK    7  A    between atoms: N_10  and  C_11
REMARK    8  A    between atoms: C_17  and  C_18
REMARK    9  A    between atoms: C_20  and  N_21
REMARK   10  A    between atoms: N_21  and  C_22
REMARK                            x       y       z     vdW  Elec       q    Type
REMARK                         _______ _______ _______ _____ _____    ______ ____
ROOT
ATOM      1  C   UNL     1       6.439   6.757  17.131  0.00  0.00    +0.000 A 
ATOM      2  C   UNL     1       6.712   5.787  16.178  0.00  0.00    +0.000 A 
ATOM      3  C   UNL     1       5.972   4.616  16.139  0.00  0.00    +0.000 A 
ATOM      4  C   UNL     1       4.937   4.383  17.016  0.00  0.00    +0.000 A 
ATOM      5  N   UNL     1       4.315   3.219  16.846  0.00  0.00    +0.000 NA
ATOM      6  C   UNL     1       3.243   2.966  17.607  0.00  0.00    +0.000 A 
ATOM      7  C   UNL     1       2.741   3.832  18.564  0.00  0.00    +0.000 A 
ATOM      8  C   UNL     1       3.422   5.045  18.812  0.00  0.00    +0.000 A 
ATOM      9  C   UNL     1       4.582   5.348  17.997  0.00  0.00    +0.000 A 
ATOM     10  C   UNL     1       5.397   6.528  18.052  0.00  0.00    +0.000 A 
ENDROOT
BRANCH   1  13
ATOM     11  C   UNL     1       8.157   8.221  18.164  0.00  0.00    +0.000 C 
ATOM     12  O   UNL     1       8.632   7.463  18.995  0.00  0.00    +0.000 OA
ATOM     13  N   UNL     1       7.201   7.941  17.204  0.00  0.00    +0.000 N 
ATOM     14  H   UNL     1       7.061   8.649  16.494  0.00  0.00    +0.000 HD
BRANCH  11  16
ATOM     15  C   UNL     1       9.075  10.695  18.229  0.00  0.00    +0.000 C 
ATOM     16  C   UNL     1       8.631   9.585  18.156  0.00  0.00    +0.000 C 
BRANCH  15  17
ATOM     17  C   UNL     1       9.650  12.024  18.442  0.00  0.00    +0.000 C 
BRANCH  17  18
ATOM     18  N   UNL     1      10.462  12.378  17.283  0.00  0.00    +0.000 NA
ATOM     19  H   UNL     1      11.313  11.810  17.306  0.00  0.00    +0.000 HD
BRANCH  18  21
ATOM     20  C   UNL     1      10.001  14.528  18.306  0.00  0.00    +0.000 C 
ATOM     21  C   UNL     1      10.835  13.795  17.252  0.00  0.00    +0.000 C 
ATOM     22  C   UNL     1      12.317  14.026  17.555  0.00  0.00    +0.000 C 
ENDBRANCH  18  21
ENDBRANCH  17  18
ENDBRANCH  15  17
ENDBRANCH  11  16
ENDBRANCH   1  13
BRANCH   7  23
ATOM     23  C   UNL     1       1.496   3.435  19.137  0.00  0.00    +0.000 C 
ATOM     24  N   UNL     1       0.534   3.028  19.654  0.00  0.00    +0.000 NA
ENDBRANCH   7  23
BRANCH   8  25
ATOM     25  N   UNL     1       2.997   5.974  19.809  0.00  0.00    +0.000 N 
ATOM     26  H   UNL     1       3.196   5.700  20.763  0.00  0.00    +0.000 HD
BRANCH  25  27
ATOM     27  C   UNL     1       2.240   7.165  19.750  0.00  0.00    +0.000 A 
ATOM     28  C   UNL     1       2.192   7.972  18.605  0.00  0.00    +0.000 A 
ATOM     29  C   UNL     1       1.471   9.171  18.591  0.00  0.00    +0.000 A 
ATOM     30  C   UNL     1       0.804   9.602  19.735  0.00  0.00    +0.000 A 
ATOM     31  C   UNL     1       0.857   8.821  20.885  0.00  0.00    +0.000 A 
ATOM     32 BR   UNL     1       0.029   9.445  22.468  0.00  0.00    +0.000 Br
ATOM     33  C   UNL     1       1.548   7.602  20.891  0.00  0.00    +0.000 A 
ENDBRANCH  25  27
ENDBRANCH   8  25
TORSDOF 8
ENDMDL
MODEL 3
REMARK VINA RESULT:      -8.5      1.077      1.404
REMARK  Name = 
REMARK  10 active torsions:
REMARK  status: ('A' for Active; 'I' for Inactive)
REMARK    1  A    between atoms: C_1  and  C_2
REMARK    2  A    between atoms: C_2  and  C_3
REMARK    3  A    between atoms: C_2  and  N_4
REMARK    4  A    between atoms: N_4  and  C_5
REMARK    5  A    between atoms: C_5  and  C_6
REMARK    6  A    between atoms: C_7  and  C_8
REMARK    7  A    between atoms: N_10  and  C_11
REMARK    8  A    between atoms: C_17  and  C_18
REMARK    9  A    between atoms: C_20  and  N_21
REMARK   10  A    between atoms: N_21  and  C_22
REMARK                            x       y       z     vdW  Elec       q    Type
REMARK                         _______ _______ _______ _____ _____    ______ ____
ROOT
ATOM      1  C   UNL     1       6.395   6.801  17.102  0.00  0.00    +0.000 A 
ATOM      2  C   UNL     1       6.651   5.807  16.168  0.00  0.00    +0.000 A 
ATOM      3  C   UNL     1       5.906   4.639  16.166  0.00  0.00    +0.000 A 
ATOM      4  C   UNL     1       4.882   4.431  17.062  0.00  0.00    +0.000 A 
ATOM      5  N   UNL     1       4.253   3.267  16.927  0.00  0.00    +0.000 NA
ATOM      6  C   UNL     1       3.190   3.036  17.708  0.00  0.00    +0.000 A 
ATOM      7  C   UNL     1       2.704   3.925  18.651  0.00  0.00    +0.000 A 
ATOM      8  C   UNL     1       3.392   5.141  18.861  0.00  0.00    +0.000 A 
ATOM      9  C   UNL     1       4.543   5.420  18.024  0.00  0.00    +0.000 A 
ATOM     10  C   UNL     1       5.363   6.598  18.041  0.00  0.00    +0.000 A 
ENDROOT
BRANCH   1  13
ATOM     11  C   UNL     1       8.136   8.279  18.074  0.00  0.00    +0.000 C 
ATOM     12  O   UNL     1       8.621   7.536  18.913  0.00  0.00    +0.000 OA
ATOM     13  N   UNL     1       7.162   7.983  17.137  0.00  0.00    +0.000 N 
ATOM     14  H   UNL     1       7.012   8.676  16.415  0.00  0.00    +0.000 HD
BRANCH  11  16
ATOM     15  C   UNL     1       8.992  10.775  18.088  0.00  0.00    +0.000 C 
ATOM     16  C   UNL     1       8.614   9.640  18.030  0.00  0.00    +0.000 C 
BRANCH  15  17
ATOM     17  C   UNL     1       9.395  12.170  18.273  0.00  0.00    +0.000 C 
BRANCH  17  18
ATOM     18  N   UNL     1       8.511  13.025  17.488  0.00  0.00    +0.000 NA
ATOM     19  H   UNL     1       9.011  13.305  16.640  0.00  0.00    +0.000 HD
BRANCH  18  21
ATOM     20  C   UNL     1       8.310  13.990  19.704  0.00  0.00    +0.000 C 
ATOM     21  C   UNL     1       8.082  14.226  18.209  0.00  0.00    +0.000 C 
ATOM     22  C   UNL     1       8.856  15.479  17.790  0.00  0.00    +0.000 C 
ENDBRANCH  18  21
ENDBRANCH  17  18
ENDBRANCH  15  17
ENDBRANCH  11  16
ENDBRANCH   1  13
BRANCH   7  23
ATOM     23  C   UNL     1       1.465   3.548  19.249  0.00  0.00    +0.000 C 
ATOM     24  N   UNL     1       0.505   3.147  19.774  0.00  0.00    +0.000 NA
ENDBRANCH   7  23
BRANCH   8  25
ATOM     25  N   UNL     1       2.985   6.095  19.841  0.00  0.00    +0.000 N 
ATOM     26  H   UNL     1       3.220   5.857  20.797  0.00  0.00    +0.000 HD
BRANCH  25  27
ATOM     27  C   UNL     1       2.205   7.271  19.770  0.00  0.00    +0.000 A 
ATOM     28  C   UNL     1       2.133   8.060  18.614  0.00  0.00    +0.000 A 
ATOM     29  C   UNL     1       1.389   9.244  18.587  0.00  0.00    +0.000 A 
ATOM     30  C   UNL     1       0.722   9.679  19.729  0.00  0.00    +0.000 A 
ATOM     31  C   UNL     1       0.797   8.916  20.889  0.00  0.00    +0.000 A 
ATOM     32 BR   UNL     1      -0.033   9.548  22.469  0.00  0.00    +0.000 Br
ATOM     33  C   UNL     1       1.512   7.711  20.909  0.00  0.00    +0.000 A 
ENDBRANCH  25  27
ENDBRANCH   8  25
TORSDOF 8
ENDMDL
MODEL 4
REMARK VINA RESULT:      -8.1      0.977      1.304
REMARK  Name = 
REMARK  10 active torsions:
REMARK  status: ('A' for Active; 'I' for Inactive)
REMARK    1  A    between atoms: C_1  and  C_2
REMARK    2  A    between atoms: C_2  and  C_3
REMARK    3  A    between atoms: C_2  and  N_4
REMARK    4  A    between atoms: N_4  and  C_5
REMARK    5  A    between atoms: C_5  and  C_6
REMARK    6  A    between atoms: C_7  and  C_8
REMARK    7  A    between atoms: N_10  and  C_11
REMARK    8  A    between atoms: C_17  and  C_18
REMARK    9  A    between atoms: C_20  and  N_21
REMARK   10  A    between atoms: N_21  and  C_22
REMARK                            x       y       z     vdW  Elec       q    Type
REMARK                         _______ _______ _______ _____ _____    ______ ____
ROOT
ATOM      1  C   UNL     1       6.123   6.640  17.028  0.00  0.00    +0.000 A 
ATOM      2  C   UNL     1       6.230   5.770  15.953  0.00  0.00    +0.000 A 
ATOM      3  C   UNL     1       5.419   4.649  15.876  0.00  0.00    +0.000 A 
ATOM      4  C   UNL     1       4.473   4.371  16.837  0.00  0.00    +0.000 A 
ATOM      5  N   UNL     1       3.765   3.267  16.618  0.00  0.00    +0.000 NA
ATOM      6  C   UNL     1       2.769   2.984  17.466  0.00  0.00    +0.000 A 
ATOM      7  C   UNL     1       2.428   3.761  18.560  0.00  0.00    +0.000 A 
ATOM      8  C   UNL     1       3.206   4.904  18.854  0.00  0.00    +0.000 A 
ATOM      9  C   UNL     1       4.287   5.237  17.948  0.00  0.00    +0.000 A 
ATOM     10  C   UNL     1       5.175   6.362  18.033  0.00  0.00    +0.000 A 
ENDROOT
BRANCH   1  13
ATOM     11  C   UNL     1       7.962   7.936  18.076  0.00  0.00    +0.000 C 
ATOM     12  O   UNL     1       8.413   7.105  18.849  0.00  0.00    +0.000 OA
ATOM     13  N   UNL     1       6.960   7.770  17.137  0.00  0.00    +0.000 N 
ATOM     14  H   UNL     1       6.843   8.522  16.470  0.00  0.00    +0.000 HD
BRANCH  11  16
ATOM     15  C   UNL     1       8.923  10.394  18.094  0.00  0.00    +0.000 C 
ATOM     16  C   UNL     1       8.521   9.267  18.124  0.00  0.00    +0.000 C 
BRANCH  15  17
ATOM     17  C   UNL     1       9.354  11.785  17.942  0.00  0.00    +0.000 C 
BRANCH  17  18
ATOM     18  N   UNL     1       9.233  12.460  19.230  0.00  0.00    +0.000 NA
ATOM     19  H   UNL     1       9.565  13.421  19.117  0.00  0.00    +0.000 HD
BRANCH  18  21
ATOM     20  C   UNL     1      11.488  12.083  20.040  0.00  0.00    +0.000 C 
ATOM     21  C   UNL     1      10.003  11.810  20.294  0.00  0.00    +0.000 C 
ATOM     22  C   UNL     1       9.644  12.327  21.689  0.00  0.00    +0.000 C 
ENDBRANCH  18  21
ENDBRANCH  17  18
ENDBRANCH  15  17
ENDBRANCH  11  16
ENDBRANCH   1  13
BRANCH   7  23
ATOM     23  C   UNL     1       1.231   3.366  19.227  0.00  0.00    +0.000 C 
ATOM     24  N   UNL     1       0.302   3.073  19.867  0.00  0.00    +0.000 NA
ENDBRANCH   7  23
BRANCH   8  25
ATOM     25  N   UNL     1       2.951   5.736  19.985  0.00  0.00    +0.000 N 
ATOM     26  H   UNL     1       3.313   5.389  20.864  0.00  0.00    +0.000 HD
BRANCH  25  27
ATOM     27  C   UNL     1       2.184   6.910  20.160  0.00  0.00    +0.000 A 
ATOM     28  C   UNL     1       1.311   7.086  21.242  0.00  0.00    +0.000 A 
ATOM     29  C   UNL     1       0.529   8.240  21.364  0.00  0.00    +0.000 A 
ATOM     30  C   UNL     1       0.584   9.231  20.387  0.00  0.00    +0.000 A 
ATOM     31  C   UNL     1       1.433   9.063  19.298  0.00  0.00    +0.000 A 
ATOM     32 BR   UNL     1       1.445  10.364  17.923  0.00  0.00    +0.000 Br
ATOM     33  C   UNL     1       2.244   7.925  19.192  0.00  0.00    +0.000 A 
ENDBRANCH  25  27
ENDBRANCH   8  25
TORSDOF 8
ENDMDL
MODEL 5
REMARK VINA RESULT:      -8.0      1.255      1.675
REMARK  Name = 
REMARK  10 active torsions:
REMARK  status: ('A' for Active; 'I' for Inactive)
REMARK    1  A    between atoms: C_1  and  C_2
REMARK    2  A    between atoms: C_2  and  C_3
REMARK    3  A    between atoms: C_2  and  N_4
REMARK    4  A    between atoms: N_4  and  C_5
REMARK    5  A    between atoms: C_5  and  C_6
REMARK    6  A    between atoms: C_7  and  C_8
REMARK    7  A    between atoms: N_10  and  C_11
REMARK    8  A    between atoms: C_17  and  C_18
REMARK    9  A    between atoms: C_20  and  N_21
REMARK   10  A    between atoms: N_21  and  C_22
REMARK                            x       y       z     vdW  Elec       q    Type
REMARK                         _______ _______ _______ _____ _____    ______ ____
ROOT
ATOM      1  C   UNL     1       6.185   6.545  17.049  0.00  0.00    +0.000 A 
ATOM      2  C   UNL     1       6.297   5.681  15.969  0.00  0.00    +0.000 A 
ATOM      3  C   UNL     1       5.475   4.570  15.873  0.00  0.00    +0.000 A 
ATOM      4  C   UNL     1       4.513   4.296  16.819  0.00  0.00    +0.000 A 
ATOM      5  N   UNL     1       3.797   3.200  16.582  0.00  0.00    +0.000 NA
ATOM      6  C   UNL     1       2.786   2.922  17.414  0.00  0.00    +0.000 A 
ATOM      7  C   UNL     1       2.439   3.695  18.509  0.00  0.00    +0.000 A 
ATOM      8  C   UNL     1       3.224   4.827  18.823  0.00  0.00    +0.000 A 
ATOM      9  C   UNL     1       4.321   5.155  17.934  0.00  0.00    +0.000 A 
ATOM     10  C   UNL     1       5.220   6.270  18.039  0.00  0.00    +0.000 A 
ENDROOT
BRANCH   1  13
ATOM     11  C   UNL     1       8.005   7.826  18.149  0.00  0.00    +0.000 C 
ATOM     12  O   UNL     1       8.419   6.995  18.942  0.00  0.00    +0.000 OA
ATOM     13  N   UNL     1       7.032   7.664  17.178  0.00  0.00    +0.000 N 
ATOM     14  H   UNL     1       6.947   8.413  16.502  0.00  0.00    +0.000 HD
BRANCH  11  16
ATOM     15  C   UNL     1       8.993  10.266  18.325  0.00  0.00    +0.000 C 
ATOM     16  C   UNL     1       8.579   9.149  18.206  0.00  0.00    +0.000 C 
BRANCH  15  17
ATOM     17  C   UNL     1       9.392  11.659  18.539  0.00  0.00    +0.000 C 
BRANCH  17  18
ATOM     18  N   UNL     1      10.298  12.060  17.469  0.00  0.00    +0.000 NA
ATOM     19  H   UNL     1      10.243  11.358  16.726  0.00  0.00    +0.000 HD
BRANCH  18  21
ATOM     20  C   UNL     1      12.324  13.360  17.168  0.00  0.00    +0.000 C 
ATOM     21  C   UNL     1      11.691  12.179  17.909  0.00  0.00    +0.000 C 
ATOM     22  C   UNL     1      11.820  12.423  19.414  0.00  0.00    +0.000 C 
ENDBRANCH  18  21
ENDBRANCH  17  18
ENDBRANCH  15  17
ENDBRANCH  11  16
ENDBRANCH   1  13
BRANCH   7  23
ATOM     23  C   UNL     1       1.228   3.308  19.157  0.00  0.00    +0.000 C 
ATOM     24  N   UNL     1       0.302   2.948  19.767  0.00  0.00    +0.000 NA
ENDBRANCH   7  23
BRANCH   8  25
ATOM     25  N   UNL     1       2.963   5.653  19.956  0.00  0.00    +0.000 N 
ATOM     26  H   UNL     1       3.298   5.290  20.839  0.00  0.00    +0.000 HD
BRANCH  25  27
ATOM     27  C   UNL     1       2.217   6.842  20.126  0.00  0.00    +0.000 A 
ATOM     28  C   UNL     1       1.361   7.046  21.216  0.00  0.00    +0.000 A 
ATOM     29  C   UNL     1       0.599   8.214  21.334  0.00  0.00    +0.000 A 
ATOM     30  C   UNL     1       0.659   9.192  20.345  0.00  0.00    +0.000 A 
ATOM     31  C   UNL     1       1.491   8.997  19.248  0.00  0.00    +0.000 A 
ATOM     32 BR   UNL     1       1.508  10.281  17.858  0.00  0.00    +0.000 Br
ATOM     33  C   UNL     1       2.282   7.845  19.145  0.00  0.00    +0.000 A 
ENDBRANCH  25  27
ENDBRANCH   8  25
TORSDOF 8
ENDMDL
MODEL 6
REMARK VINA RESULT:      -7.8      1.422      1.912
REMARK  Name = 
REMARK  10 active torsions:
REMARK  status: ('A' for Active; 'I' for Inactive)
REMARK    1  A    between atoms: C_1  and  C_2
REMARK    2  A    between atoms: C_2  and  C_3
REMARK    3  A    between atoms: C_2  and  N_4
REMARK    4  A    between atoms: N_4  and  C_5
REMARK    5  A    between atoms: C_5  and  C_6
REMARK    6  A    between atoms: C_7  and  C_8
REMARK    7  A    between atoms: N_10  and  C_11
REMARK    8  A    between atoms: C_17  and  C_18
REMARK    9  A    between atoms: C_20  and  N_21
REMARK   10  A    between atoms: N_21  and  C_22
REMARK                            x       y       z     vdW  Elec       q    Type
REMARK                         _______ _______ _______ _____ _____    ______ ____
ROOT
ATOM      1  C   UNL     1       6.075   6.748  16.981  0.00  0.00    +0.000 A 
ATOM      2  C   UNL     1       6.191   5.859  15.922  0.00  0.00    +0.000 A 
ATOM      3  C   UNL     1       5.406   4.718  15.878  0.00  0.00    +0.000 A 
ATOM      4  C   UNL     1       4.478   4.438  16.855  0.00  0.00    +0.000 A 
ATOM      5  N   UNL     1       3.795   3.312  16.667  0.00  0.00    +0.000 NA
ATOM      6  C   UNL     1       2.816   3.023  17.532  0.00  0.00    +0.000 A 
ATOM      7  C   UNL     1       2.469   3.814  18.614  0.00  0.00    +0.000 A 
ATOM      8  C   UNL     1       3.222   4.980  18.877  0.00  0.00    +0.000 A 
ATOM      9  C   UNL     1       4.284   5.321  17.951  0.00  0.00    +0.000 A 
ATOM     10  C   UNL     1       5.146   6.468  18.003  0.00  0.00    +0.000 A 
ENDROOT
BRANCH   1  13
ATOM     11  C   UNL     1       7.906   8.102  17.970  0.00  0.00    +0.000 C 
ATOM     12  O   UNL     1       8.396   7.292  18.741  0.00  0.00    +0.000 OA
ATOM     13  N   UNL     1       6.886   7.900  17.058  0.00  0.00    +0.000 N 
ATOM     14  H   UNL     1       6.734   8.641  16.386  0.00  0.00    +0.000 HD
BRANCH  11  16
ATOM     15  C   UNL     1       8.953  10.524  18.035  0.00  0.00    +0.000 C 
ATOM     16  C   UNL     1       8.432   9.446  17.990  0.00  0.00    +0.000 C 
BRANCH  15  17
ATOM     17  C   UNL     1       9.685  11.786  18.159  0.00  0.00    +0.000 C 
BRANCH  17  18
ATOM     18  N   UNL     1       9.005  12.805  17.369  0.00  0.00    +0.000 NA
ATOM     19  H   UNL     1       9.669  13.173  16.683  0.00  0.00    +0.000 HD
BRANCH  18  21
ATOM     20  C   UNL     1       9.467  15.086  18.051  0.00  0.00    +0.000 C 
ATOM     21  C   UNL     1       8.492  13.914  18.179  0.00  0.00    +0.000 C 
ATOM     22  C   UNL     1       7.105  14.383  17.735  0.00  0.00    +0.000 C 
ENDBRANCH  18  21
ENDBRANCH  17  18
ENDBRANCH  15  17
ENDBRANCH  11  16
ENDBRANCH   1  13
BRANCH   7  23
ATOM     23  C   UNL     1       1.289   3.403  19.303  0.00  0.00    +0.000 C 
ATOM     24  N   UNL     1       0.389   3.056  19.957  0.00  0.00    +0.000 NA
ENDBRANCH   7  23
BRANCH   8  25
ATOM     25  N   UNL     1       2.960   5.828  19.994  0.00  0.00    +0.000 N 
ATOM     26  H   UNL     1       3.338   5.507  20.876  0.00  0.00    +0.000 HD
BRANCH  25  27
ATOM     27  C   UNL     1       2.169   6.989  20.153  0.00  0.00    +0.000 A 
ATOM     28  C   UNL     1       1.274   7.150  21.219  0.00  0.00    +0.000 A 
ATOM     29  C   UNL     1       0.469   8.290  21.326  0.00  0.00    +0.000 A 
ATOM     30  C   UNL     1       0.525   9.281  20.350  0.00  0.00    +0.000 A 
ATOM     31  C   UNL     1       1.396   9.128  19.277  0.00  0.00    +0.000 A 
ATOM     32 BR   UNL     1       1.410  10.428  17.902  0.00  0.00    +0.000 Br
ATOM     33  C   UNL     1       2.229   8.005  19.186  0.00  0.00    +0.000 A 
ENDBRANCH  25  27
ENDBRANCH   8  25
TORSDOF 8
ENDMDL
MODEL 7
REMARK VINA RESULT:      -7.8      4.687      8.193
REMARK  Name = 
REMARK  10 active torsions:
REMARK  status: ('A' for Active; 'I' for Inactive)
REMARK    1  A    between atoms: C_1  and  C_2
REMARK    2  A    between atoms: C_2  and  C_3
REMARK    3  A    between atoms: C_2  and  N_4
REMARK    4  A    between atoms: N_4  and  C_5
REMARK    5  A    between atoms: C_5  and  C_6
REMARK    6  A    between atoms: C_7  and  C_8
REMARK    7  A    between atoms: N_10  and  C_11
REMARK    8  A    between atoms: C_17  and  C_18
REMARK    9  A    between atoms: C_20  and  N_21
REMARK   10  A    between atoms: N_21  and  C_22
REMARK                            x       y       z     vdW  Elec       q    Type
REMARK                         _______ _______ _______ _____ _____    ______ ____
ROOT
ATOM      1  C   UNL     1       1.177   8.953  20.342  0.00  0.00    +0.000 A 
ATOM      2  C   UNL     1       1.293   8.594  21.677  0.00  0.00    +0.000 A 
ATOM      3  C   UNL     1       0.593   9.287  22.651  0.00  0.00    +0.000 A 
ATOM      4  C   UNL     1      -0.249  10.329  22.336  0.00  0.00    +0.000 A 
ATOM      5  N   UNL     1      -0.858  10.888  23.378  0.00  0.00    +0.000 NA
ATOM      6  C   UNL     1      -1.758  11.848  23.136  0.00  0.00    +0.000 A 
ATOM      7  C   UNL     1      -2.096  12.304  21.873  0.00  0.00    +0.000 A 
ATOM      8  C   UNL     1      -1.416  11.775  20.752  0.00  0.00    +0.000 A 
ATOM      9  C   UNL     1      -0.441  10.729  20.985  0.00  0.00    +0.000 A 
ATOM     10  C   UNL     1       0.335  10.030  20.000  0.00  0.00    +0.000 A 
ENDROOT
BRANCH   1  13
ATOM     11  C   UNL     1       2.299   6.952  19.391  0.00  0.00    +0.000 C 
ATOM     12  O   UNL     1       1.964   6.100  20.199  0.00  0.00    +0.000 OA
ATOM     13  N   UNL     1       1.904   8.277  19.339  0.00  0.00    +0.000 N 
ATOM     14  H   UNL     1       2.149   8.784  18.498  0.00  0.00    +0.000 HD
BRANCH  11  16
ATOM     15  C   UNL     1       3.989   6.151  17.530  0.00  0.00    +0.000 C 
ATOM     16  C   UNL     1       3.222   6.563  18.352  0.00  0.00    +0.000 C 
BRANCH  15  17
ATOM     17  C   UNL     1       4.950   5.548  16.604  0.00  0.00    +0.000 C 
BRANCH  17  18
ATOM     18  N   UNL     1       5.996   6.522  16.309  0.00  0.00    +0.000 NA
ATOM     19  H   UNL     1       6.056   6.626  15.293  0.00  0.00    +0.000 HD
BRANCH  18  21
ATOM     20  C   UNL     1       7.692   7.107  17.941  0.00  0.00    +0.000 C 
ATOM     21  C   UNL     1       7.309   6.130  16.828  0.00  0.00    +0.000 C 
ATOM     22  C   UNL     1       7.323   4.710  17.399  0.00  0.00    +0.000 C 
ENDBRANCH  18  21
ENDBRANCH  17  18
ENDBRANCH  15  17
ENDBRANCH  11  16
ENDBRANCH   1  13
BRANCH   7  23
ATOM     23  C   UNL     1      -3.197  13.209  21.837  0.00  0.00    +0.000 C 
ATOM     24  N   UNL     1      -4.121  13.916  21.911  0.00  0.00    +0.000 NA
ENDBRANCH   7  23
BRANCH   8  25
ATOM     25  N   UNL     1      -1.671  12.219  19.420  0.00  0.00    +0.000 N 
ATOM     26  H   UNL     1      -1.184  13.063  19.148  0.00  0.00    +0.000 HD
BRANCH  25  27
ATOM     27  C   UNL     1      -2.568  11.783  18.419  0.00  0.00    +0.000 A 
ATOM     28  C   UNL     1      -2.137  11.349  17.158  0.00  0.00    +0.000 A 
ATOM     29  C   UNL     1      -3.051  10.967  16.169  0.00  0.00    +0.000 A 
ATOM     30  C   UNL     1      -4.420  11.039  16.415  0.00  0.00    +0.000 A 
ATOM     31  C   UNL     1      -4.864  11.484  17.655  0.00  0.00    +0.000 A 
ATOM     32 BR   UNL     1      -6.722  11.670  17.962  0.00  0.00    +0.000 Br
ATOM     33  C   UNL     1      -3.951  11.833  18.659  0.00  0.00    +0.000 A 
ENDBRANCH  25  27
ENDBRANCH   8  25
TORSDOF 8
ENDMDL
MODEL 8
REMARK VINA RESULT:      -7.8      4.634      8.056
REMARK  Name = 
REMARK  10 active torsions:
REMARK  status: ('A' for Active; 'I' for Inactive)
REMARK    1  A    between atoms: C_1  and  C_2
REMARK    2  A    between atoms: C_2  and  C_3
REMARK    3  A    between atoms: C_2  and  N_4
REMARK    4  A    between atoms: N_4  and  C_5
REMARK    5  A    between atoms: C_5  and  C_6
REMARK    6  A    between atoms: C_7  and  C_8
REMARK    7  A    between atoms: N_10  and  C_11
REMARK    8  A    between atoms: C_17  and  C_18
REMARK    9  A    between atoms: C_20  and  N_21
REMARK   10  A    between atoms: N_21  and  C_22
REMARK                            x       y       z     vdW  Elec       q    Type
REMARK                         _______ _______ _______ _____ _____    ______ ____
ROOT
ATOM      1  C   UNL     1       1.298   8.871  20.177  0.00  0.00    +0.000 A 
ATOM      2  C   UNL     1       1.473   8.515  21.506  0.00  0.00    +0.000 A 
ATOM      3  C   UNL     1       0.813   9.207  22.509  0.00  0.00    +0.000 A 
ATOM      4  C   UNL     1      -0.047  10.244  22.229  0.00  0.00    +0.000 A 
ATOM      5  N   UNL     1      -0.613  10.801  23.296  0.00  0.00    +0.000 NA
ATOM      6  C   UNL     1      -1.528  11.756  23.092  0.00  0.00    +0.000 A 
ATOM      7  C   UNL     1      -1.922  12.209  21.844  0.00  0.00    +0.000 A 
ATOM      8  C   UNL     1      -1.289  11.681  20.696  0.00  0.00    +0.000 A 
ATOM      9  C   UNL     1      -0.299  10.640  20.888  0.00  0.00    +0.000 A 
ATOM     10  C   UNL     1       0.436   9.944  19.870  0.00  0.00    +0.000 A 
ENDROOT
BRANCH   1  13
ATOM     11  C   UNL     1       2.348   6.863  19.164  0.00  0.00    +0.000 C 
ATOM     12  O   UNL     1       2.013   6.003  19.964  0.00  0.00    +0.000 OA
ATOM     13  N   UNL     1       1.984   8.197  19.145  0.00  0.00    +0.000 N 
ATOM     14  H   UNL     1       2.220   8.713  18.307  0.00  0.00    +0.000 HD
BRANCH  11  16
ATOM     15  C   UNL     1       4.039   6.128  17.275  0.00  0.00    +0.000 C 
ATOM     16  C   UNL     1       3.236   6.471  18.095  0.00  0.00    +0.000 C 
BRANCH  15  17
ATOM     17  C   UNL     1       5.111   5.721  16.365  0.00  0.00    +0.000 C 
BRANCH  17  18
ATOM     18  N   UNL     1       6.127   6.768  16.335  0.00  0.00    +0.000 NA
ATOM     19  H   UNL     1       6.804   6.533  15.606  0.00  0.00    +0.000 HD
BRANCH  18  21
ATOM     20  C   UNL     1       7.547   5.606  17.921  0.00  0.00    +0.000 C 
ATOM     21  C   UNL     1       6.831   6.923  17.610  0.00  0.00    +0.000 C 
ATOM     22  C   UNL     1       7.870   8.047  17.584  0.00  0.00    +0.000 C 
ENDBRANCH  18  21
ENDBRANCH  17  18
ENDBRANCH  15  17
ENDBRANCH  11  16
ENDBRANCH   1  13
BRANCH   7  23
ATOM     23  C   UNL     1      -3.028  13.109  21.855  0.00  0.00    +0.000 C 
ATOM     24  N   UNL     1      -3.945  13.820  21.971  0.00  0.00    +0.000 NA
ENDBRANCH   7  23
BRANCH   8  25
ATOM     25  N   UNL     1      -1.604  12.121  19.376  0.00  0.00    +0.000 N 
ATOM     26  H   UNL     1      -1.013  12.861  19.017  0.00  0.00    +0.000 HD
BRANCH  25  27
ATOM     27  C   UNL     1      -2.661  11.816  18.489  0.00  0.00    +0.000 A 
ATOM     28  C   UNL     1      -4.009  11.942  18.850  0.00  0.00    +0.000 A 
ATOM     29  C   UNL     1      -5.034  11.588  17.966  0.00  0.00    +0.000 A 
ATOM     30  C   UNL     1      -4.729  11.072  16.709  0.00  0.00    +0.000 A 
ATOM     31  C   UNL     1      -3.396  10.924  16.342  0.00  0.00    +0.000 A 
ATOM     32 BR   UNL     1      -2.976  10.140  14.672  0.00  0.00    +0.000 Br
ATOM     33  C   UNL     1      -2.368  11.312  17.211  0.00  0.00    +0.000 A 
ENDBRANCH  25  27
ENDBRANCH   8  25
TORSDOF 8
ENDMDL
MODEL 9
REMARK VINA RESULT:      -7.6      4.882      8.587
REMARK  Name = 
REMARK  10 active torsions:
REMARK  status: ('A' for Active; 'I' for Inactive)
REMARK    1  A    between atoms: C_1  and  C_2
REMARK    2  A    between atoms: C_2  and  C_3
REMARK    3  A    between atoms: C_2  and  N_4
REMARK    4  A    between atoms: N_4  and  C_5
REMARK    5  A    between atoms: C_5  and  C_6
REMARK    6  A    between atoms: C_7  and  C_8
REMARK    7  A    between atoms: N_10  and  C_11
REMARK    8  A    between atoms: C_17  and  C_18
REMARK    9  A    between atoms: C_20  and  N_21
REMARK   10  A    between atoms: N_21  and  C_22
REMARK                            x       y       z     vdW  Elec       q    Type
REMARK                         _______ _______ _______ _____ _____    ______ ____
ROOT
ATOM      1  C   UNL     1       1.140   9.057  20.300  0.00  0.00    +0.000 A 
ATOM      2  C   UNL     1       1.279   8.656  21.620  0.00  0.00    +0.000 A 
ATOM      3  C   UNL     1       0.578   9.303  22.625  0.00  0.00    +0.000 A 
ATOM      4  C   UNL     1      -0.289  10.337  22.355  0.00  0.00    +0.000 A 
ATOM      5  N   UNL     1      -0.896  10.848  23.422  0.00  0.00    +0.000 NA
ATOM      6  C   UNL     1      -1.817  11.798  23.223  0.00  0.00    +0.000 A 
ATOM      7  C   UNL     1      -2.179  12.289  21.980  0.00  0.00    +0.000 A 
ATOM      8  C   UNL     1      -1.503  11.812  20.835  0.00  0.00    +0.000 A 
ATOM      9  C   UNL     1      -0.504  10.777  21.021  0.00  0.00    +0.000 A 
ATOM     10  C   UNL     1       0.273  10.128  20.004  0.00  0.00    +0.000 A 
ENDROOT
BRANCH   1  13
ATOM     11  C   UNL     1       2.318   7.121  19.284  0.00  0.00    +0.000 C 
ATOM     12  O   UNL     1       2.039   6.241  20.084  0.00  0.00    +0.000 OA
ATOM     13  N   UNL     1       1.867   8.429  19.267  0.00  0.00    +0.000 N 
ATOM     14  H   UNL     1       2.070   8.960  18.429  0.00  0.00    +0.000 HD
BRANCH  11  16
ATOM     15  C   UNL     1       4.018   6.442  17.384  0.00  0.00    +0.000 C 
ATOM     16  C   UNL     1       3.228   6.788  18.215  0.00  0.00    +0.000 C 
BRANCH  15  17
ATOM     17  C   UNL     1       5.046   5.953  16.463  0.00  0.00    +0.000 C 
BRANCH  17  18
ATOM     18  N   UNL     1       4.844   4.525  16.245  0.00  0.00    +0.000 NA
ATOM     19  H   UNL     1       4.623   4.094  17.146  0.00  0.00    +0.000 HD
BRANCH  18  21
ATOM     20  C   UNL     1       6.005   4.094  14.159  0.00  0.00    +0.000 C 
ATOM     21  C   UNL     1       6.017   3.859  15.672  0.00  0.00    +0.000 C 
ATOM     22  C   UNL     1       7.337   4.389  16.237  0.00  0.00    +0.000 C 
ENDBRANCH  18  21
ENDBRANCH  17  18
ENDBRANCH  15  17
ENDBRANCH  11  16
ENDBRANCH   1  13
BRANCH   7  23
ATOM     23  C   UNL     1      -3.299  13.173  21.987  0.00  0.00    +0.000 C 
ATOM     24  N   UNL     1      -4.141  13.978  22.012  0.00  0.00    +0.000 NA
ENDBRANCH   7  23
BRANCH   8  25
ATOM     25  N   UNL     1      -1.783  12.294  19.521  0.00  0.00    +0.000 N 
ATOM     26  H   UNL     1      -1.346  13.176  19.285  0.00  0.00    +0.000 HD
BRANCH  25  27
ATOM     27  C   UNL     1      -2.652  11.848  18.500  0.00  0.00    +0.000 A 
ATOM     28  C   UNL     1      -2.185  11.356  17.274  0.00  0.00    +0.000 A 
ATOM     29  C   UNL     1      -3.070  10.965  16.263  0.00  0.00    +0.000 A 
ATOM     30  C   UNL     1      -4.444  11.085  16.450  0.00  0.00    +0.000 A 
ATOM     31  C   UNL     1      -4.923  11.587  17.654  0.00  0.00    +0.000 A 
ATOM     32 BR   UNL     1      -6.786  11.837  17.879  0.00  0.00    +0.000 Br
ATOM     33  C   UNL     1      -4.041  11.946  18.682  0.00  0.00    +0.000 A 
ENDBRANCH  25  27
ENDBRANCH   8  25
TORSDOF 8
ENDMDL
