MODEL 1
REMARK VINA RESULT:      -6.4      0.000      0.000
REMARK  Name = 
REMARK  7 active torsions:
REMARK  status: ('A' for Active; 'I' for Inactive)
REMARK    1  A    between atoms: C_1  and  O_2
REMARK    2  A    between atoms: O_2  and  C_3
REMARK    3  A    between atoms: C_3  and  C_5
REMARK    4  A    between atoms: C_8  and  N_9
REMARK    5  A    between atoms: C_10  and  C_12
REMARK    6  A    between atoms: C_12  and  C_13
REMARK    7  A    between atoms: C_13  and  N_14
REMARK                            x       y       z     vdW  Elec       q    Type
REMARK                         _______ _______ _______ _____ _____    ______ ____
ROOT
ATOM      1  N   UNL     1       4.310   4.868  19.665  0.00  0.00    +0.000 N 
ATOM      2  C   UNL     1       3.185   5.667  19.563  0.00  0.00    +0.000 C 
ATOM      3  O   UNL     1       2.979   6.494  18.678  0.00  0.00    +0.000 OA
ATOM      4  H   UNL     1       4.244   3.990  20.165  0.00  0.00    +0.000 HD
ENDROOT
BRANCH   1   8
ATOM      5  C   UNL     1       6.621   4.877  16.792  0.00  0.00    +0.000 A 
ATOM      6  C   UNL     1       7.539   5.243  17.766  0.00  0.00    +0.000 A 
ATOM      7  S   UNL     1       6.799   5.527  19.292  0.00  0.00    +0.000 S 
ATOM      8  C   UNL     1       5.307   4.970  18.722  0.00  0.00    +0.000 A 
ATOM      9  C   UNL     1       5.322   4.688  17.380  0.00  0.00    +0.000 A 
BRANCH   5  10
ATOM     10  C   UNL     1       6.907   4.688  15.366  0.00  0.00    +0.000 C 
ATOM     11  O   UNL     1       7.706   5.381  14.758  0.00  0.00    +0.000 OA
BRANCH  10  13
ATOM     12  C   UNL     1       6.082   3.767  13.390  0.00  0.00    +0.000 C 
ATOM     13  O   UNL     1       6.196   3.662  14.810  0.00  0.00    +0.000 OA
ENDBRANCH  10  13
ENDBRANCH   5  10
ENDBRANCH   1   8
BRANCH   2  14
ATOM     14  C   UNL     1       2.174   5.437  20.662  0.00  0.00    +0.000 C 
BRANCH  14  15
ATOM     15  C   UNL     1       1.142   4.419  20.190  0.00  0.00    +0.000 C 
BRANCH  15  16
ATOM     16  N   UNL     1       1.714   3.362  19.379  0.00  0.00    +0.000 N 
ATOM     17  C   UNL     1       1.577   3.208  18.028  0.00  0.00    +0.000 A 
ATOM     18  C   UNL     1       2.364   2.136  17.684  0.00  0.00    +0.000 A 
ATOM     19  C   UNL     1       2.934   1.711  18.898  0.00  0.00    +0.000 A 
ATOM     20  N   UNL     1       2.538   2.454  19.936  0.00  0.00    +0.000 NA
ENDBRANCH  15  16
ENDBRANCH  14  15
ENDBRANCH   2  14
TORSDOF 6
ENDMDL
MODEL 2
REMARK VINA RESULT:      -6.2      3.176      6.508
REMARK  Name = 
REMARK  7 active torsions:
REMARK  status: ('A' for Active; 'I' for Inactive)
REMARK    1  A    between atoms: C_1  and  O_2
REMARK    2  A    between atoms: O_2  and  C_3
REMARK    3  A    between atoms: C_3  and  C_5
REMARK    4  A    between atoms: C_8  and  N_9
REMARK    5  A    between atoms: C_10  and  C_12
REMARK    6  A    between atoms: C_12  and  C_13
REMARK    7  A    between atoms: C_13  and  N_14
REMARK                            x       y       z     vdW  Elec       q    Type
REMARK                         _______ _______ _______ _____ _____    ______ ____
ROOT
ATOM      1  N   UNL     1       5.032   4.488  16.752  0.00  0.00    +0.000 N 
ATOM      2  C   UNL     1       6.283   4.444  17.343  0.00  0.00    +0.000 C 
ATOM      3  O   UNL     1       6.496   4.286  18.543  0.00  0.00    +0.000 OA
ATOM      4  H   UNL     1       4.945   4.246  15.773  0.00  0.00    +0.000 HD
ENDROOT
BRANCH   1   8
ATOM      5  C   UNL     1       2.043   3.564  18.702  0.00  0.00    +0.000 A 
ATOM      6  C   UNL     1       1.863   4.940  18.733  0.00  0.00    +0.000 A 
ATOM      7  S   UNL     1       3.191   5.792  18.049  0.00  0.00    +0.000 S 
ATOM      8  C   UNL     1       3.905   4.348  17.529  0.00  0.00    +0.000 A 
ATOM      9  C   UNL     1       3.230   3.235  17.961  0.00  0.00    +0.000 A 
BRANCH   5  10
ATOM     10  C   UNL     1       1.159   2.566  19.314  0.00  0.00    +0.000 C 
ATOM     11  O   UNL     1       0.076   2.269  18.840  0.00  0.00    +0.000 OA
BRANCH  10  13
ATOM     12  C   UNL     1       1.477   2.824  21.609  0.00  0.00    +0.000 C 
ATOM     13  O   UNL     1       1.682   2.015  20.450  0.00  0.00    +0.000 OA
ENDBRANCH  10  13
ENDBRANCH   5  10
ENDBRANCH   1   8
BRANCH   2  14
ATOM     14  C   UNL     1       7.424   4.601  16.365  0.00  0.00    +0.000 C 
BRANCH  14  15
ATOM     15  C   UNL     1       6.988   5.518  15.228  0.00  0.00    +0.000 C 
BRANCH  15  16
ATOM     16  N   UNL     1       6.848   4.829  13.960  0.00  0.00    +0.000 N 
ATOM     17  C   UNL     1       7.637   4.989  12.856  0.00  0.00    +0.000 A 
ATOM     18  C   UNL     1       7.196   4.068  11.936  0.00  0.00    +0.000 A 
ATOM     19  C   UNL     1       6.138   3.401  12.581  0.00  0.00    +0.000 A 
ATOM     20  N   UNL     1       5.919   3.865  13.815  0.00  0.00    +0.000 NA
ENDBRANCH  15  16
ENDBRANCH  14  15
ENDBRANCH   2  14
TORSDOF 6
ENDMDL
MODEL 3
REMARK VINA RESULT:      -6.1      2.710      4.503
REMARK  Name = 
REMARK  7 active torsions:
REMARK  status: ('A' for Active; 'I' for Inactive)
REMARK    1  A    between atoms: C_1  and  O_2
REMARK    2  A    between atoms: O_2  and  C_3
REMARK    3  A    between atoms: C_3  and  C_5
REMARK    4  A    between atoms: C_8  and  N_9
REMARK    5  A    between atoms: C_10  and  C_12
REMARK    6  A    between atoms: C_12  and  C_13
REMARK    7  A    between atoms: C_13  and  N_14
REMARK                            x       y       z     vdW  Elec       q    Type
REMARK                         _______ _______ _______ _____ _____    ______ ____
ROOT
ATOM      1  N   UNL     1       7.134   5.070  15.771  0.00  0.00    +0.000 N 
ATOM      2  C   UNL     1       6.358   6.069  16.331  0.00  0.00    +0.000 C 
ATOM      3  O   UNL     1       5.425   6.642  15.770  0.00  0.00    +0.000 OA
ATOM      4  H   UNL     1       7.603   4.413  16.383  0.00  0.00    +0.000 HD
ENDROOT
BRANCH   1   8
ATOM      5  C   UNL     1       6.104   3.564  12.567  0.00  0.00    +0.000 A 
ATOM      6  C   UNL     1       7.184   4.292  12.088  0.00  0.00    +0.000 A 
ATOM      7  S   UNL     1       7.871   5.314  13.288  0.00  0.00    +0.000 S 
ATOM      8  C   UNL     1       6.880   4.647  14.486  0.00  0.00    +0.000 A 
ATOM      9  C   UNL     1       5.963   3.760  13.985  0.00  0.00    +0.000 A 
BRANCH   5  10
ATOM     10  C   UNL     1       5.226   2.700  11.771  0.00  0.00    +0.000 C 
ATOM     11  O   UNL     1       5.606   1.651  11.279  0.00  0.00    +0.000 OA
BRANCH  10  13
ATOM     12  C   UNL     1       3.678   3.704  10.346  0.00  0.00    +0.000 C 
ATOM     13  O   UNL     1       3.957   3.193  11.651  0.00  0.00    +0.000 OA
ENDBRANCH  10  13
ENDBRANCH   5  10
ENDBRANCH   1   8
BRANCH   2  14
ATOM     14  C   UNL     1       6.747   6.420  17.748  0.00  0.00    +0.000 C 
BRANCH  14  15
ATOM     15  C   UNL     1       6.655   5.171  18.618  0.00  0.00    +0.000 C 
BRANCH  15  16
ATOM     16  N   UNL     1       5.290   4.794  18.931  0.00  0.00    +0.000 N 
ATOM     17  C   UNL     1       4.787   3.524  18.973  0.00  0.00    +0.000 A 
ATOM     18  C   UNL     1       3.487   3.644  19.404  0.00  0.00    +0.000 A 
ATOM     19  C   UNL     1       3.302   5.025  19.594  0.00  0.00    +0.000 A 
ATOM     20  N   UNL     1       4.399   5.732  19.302  0.00  0.00    +0.000 NA
ENDBRANCH  15  16
ENDBRANCH  14  15
ENDBRANCH   2  14
TORSDOF 6
ENDMDL
MODEL 4
REMARK VINA RESULT:      -6.1      0.869      1.227
REMARK  Name = 
REMARK  7 active torsions:
REMARK  status: ('A' for Active; 'I' for Inactive)
REMARK    1  A    between atoms: C_1  and  O_2
REMARK    2  A    between atoms: O_2  and  C_3
REMARK    3  A    between atoms: C_3  and  C_5
REMARK    4  A    between atoms: C_8  and  N_9
REMARK    5  A    between atoms: C_10  and  C_12
REMARK    6  A    between atoms: C_12  and  C_13
REMARK    7  A    between atoms: C_13  and  N_14
REMARK                            x       y       z     vdW  Elec       q    Type
REMARK                         _______ _______ _______ _____ _____    ______ ____
ROOT
ATOM      1  N   UNL     1       4.372   5.496  19.397  0.00  0.00    +0.000 N 
ATOM      2  C   UNL     1       3.113   5.971  19.074  0.00  0.00    +0.000 C 
ATOM      3  O   UNL     1       2.745   6.297  17.947  0.00  0.00    +0.000 OA
ATOM      4  H   UNL     1       4.480   4.916  20.220  0.00  0.00    +0.000 HD
ENDROOT
BRANCH   1   8
ATOM      5  C   UNL     1       6.495   4.938  16.435  0.00  0.00    +0.000 A 
ATOM      6  C   UNL     1       7.515   5.119  17.360  0.00  0.00    +0.000 A 
ATOM      7  S   UNL     1       6.925   5.592  18.904  0.00  0.00    +0.000 S 
ATOM      8  C   UNL     1       5.323   5.358  18.412  0.00  0.00    +0.000 A 
ATOM      9  C   UNL     1       5.215   5.048  17.081  0.00  0.00    +0.000 A 
BRANCH   5  10
ATOM     10  C   UNL     1       6.668   4.658  15.006  0.00  0.00    +0.000 C 
ATOM     11  O   UNL     1       5.976   3.854  14.406  0.00  0.00    +0.000 OA
BRANCH  10  13
ATOM     12  C   UNL     1       7.820   5.139  13.037  0.00  0.00    +0.000 C 
ATOM     13  O   UNL     1       7.670   5.392  14.436  0.00  0.00    +0.000 OA
ENDBRANCH  10  13
ENDBRANCH   5  10
ENDBRANCH   1   8
BRANCH   2  14
ATOM     14  C   UNL     1       2.174   6.059  20.255  0.00  0.00    +0.000 C 
BRANCH  14  15
ATOM     15  C   UNL     1       2.176   4.728  20.998  0.00  0.00    +0.000 C 
BRANCH  15  16
ATOM     16  N   UNL     1       1.870   3.597  20.143  0.00  0.00    +0.000 N 
ATOM     17  C   UNL     1       0.672   3.333  19.541  0.00  0.00    +0.000 A 
ATOM     18  C   UNL     1       0.877   2.222  18.758  0.00  0.00    +0.000 A 
ATOM     19  C   UNL     1       2.230   1.892  18.957  0.00  0.00    +0.000 A 
ATOM     20  N   UNL     1       2.839   2.726  19.805  0.00  0.00    +0.000 NA
ENDBRANCH  15  16
ENDBRANCH  14  15
ENDBRANCH   2  14
TORSDOF 6
ENDMDL
MODEL 5
REMARK VINA RESULT:      -6.1      3.169      6.322
REMARK  Name = 
REMARK  7 active torsions:
REMARK  status: ('A' for Active; 'I' for Inactive)
REMARK    1  A    between atoms: C_1  and  O_2
REMARK    2  A    between atoms: O_2  and  C_3
REMARK    3  A    between atoms: C_3  and  C_5
REMARK    4  A    between atoms: C_8  and  N_9
REMARK    5  A    between atoms: C_10  and  C_12
REMARK    6  A    between atoms: C_12  and  C_13
REMARK    7  A    between atoms: C_13  and  N_14
REMARK                            x       y       z     vdW  Elec       q    Type
REMARK                         _______ _______ _______ _____ _____    ______ ____
ROOT
ATOM      1  N   UNL     1       2.655   5.709  18.432  0.00  0.00    +0.000 N 
ATOM      2  C   UNL     1       3.921   5.194  18.653  0.00  0.00    +0.000 C 
ATOM      3  O   UNL     1       4.764   5.680  19.403  0.00  0.00    +0.000 OA
ATOM      4  H   UNL     1       1.921   5.086  18.122  0.00  0.00    +0.000 HD
ENDROOT
BRANCH   1   8
ATOM      5  C   UNL     1       1.480   8.441  20.611  0.00  0.00    +0.000 A 
ATOM      6  C   UNL     1       1.521   9.159  19.424  0.00  0.00    +0.000 A 
ATOM      7  S   UNL     1       2.209   8.255  18.133  0.00  0.00    +0.000 S 
ATOM      8  C   UNL     1       2.263   6.856  19.083  0.00  0.00    +0.000 A 
ATOM      9  C   UNL     1       1.888   7.081  20.383  0.00  0.00    +0.000 A 
BRANCH   5  10
ATOM     10  C   UNL     1       1.071   8.963  21.919  0.00  0.00    +0.000 C 
ATOM     11  O   UNL     1       1.868   9.410  22.727  0.00  0.00    +0.000 OA
BRANCH  10  13
ATOM     12  C   UNL     1      -0.764   9.931  22.982  0.00  0.00    +0.000 C 
ATOM     13  O   UNL     1      -0.279   8.898  22.122  0.00  0.00    +0.000 OA
ENDBRANCH  10  13
ENDBRANCH   5  10
ENDBRANCH   1   8
BRANCH   2  14
ATOM     14  C   UNL     1       4.206   3.928  17.878  0.00  0.00    +0.000 C 
BRANCH  14  15
ATOM     15  C   UNL     1       4.058   2.728  18.806  0.00  0.00    +0.000 C 
BRANCH  15  16
ATOM     16  N   UNL     1       2.834   2.755  19.583  0.00  0.00    +0.000 N 
ATOM     17  C   UNL     1       2.736   2.796  20.945  0.00  0.00    +0.000 A 
ATOM     18  C   UNL     1       1.396   2.908  21.228  0.00  0.00    +0.000 A 
ATOM     19  C   UNL     1       0.768   2.927  19.969  0.00  0.00    +0.000 A 
ATOM     20  N   UNL     1       1.642   2.830  18.962  0.00  0.00    +0.000 NA
ENDBRANCH  15  16
ENDBRANCH  14  15
ENDBRANCH   2  14
TORSDOF 6
ENDMDL
MODEL 6
REMARK VINA RESULT:      -6.1      4.775      7.612
REMARK  Name = 
REMARK  7 active torsions:
REMARK  status: ('A' for Active; 'I' for Inactive)
REMARK    1  A    between atoms: C_1  and  O_2
REMARK    2  A    between atoms: O_2  and  C_3
REMARK    3  A    between atoms: C_3  and  C_5
REMARK    4  A    between atoms: C_8  and  N_9
REMARK    5  A    between atoms: C_10  and  C_12
REMARK    6  A    between atoms: C_12  and  C_13
REMARK    7  A    between atoms: C_13  and  N_14
REMARK                            x       y       z     vdW  Elec       q    Type
REMARK                         _______ _______ _______ _____ _____    ______ ____
ROOT
ATOM      1  N   UNL     1       6.638   7.413  16.834  0.00  0.00    +0.000 N 
ATOM      2  C   UNL     1       7.637   7.647  17.763  0.00  0.00    +0.000 C 
ATOM      3  O   UNL     1       8.090   6.814  18.544  0.00  0.00    +0.000 OA
ATOM      4  H   UNL     1       6.588   7.999  16.011  0.00  0.00    +0.000 HD
ENDROOT
BRANCH   1   8
ATOM      5  C   UNL     1       4.851   4.195  17.050  0.00  0.00    +0.000 A 
ATOM      6  C   UNL     1       5.779   3.825  16.087  0.00  0.00    +0.000 A 
ATOM      7  S   UNL     1       6.740   5.148  15.556  0.00  0.00    +0.000 S 
ATOM      8  C   UNL     1       6.076   6.160  16.738  0.00  0.00    +0.000 A 
ATOM      9  C   UNL     1       5.063   5.562  17.444  0.00  0.00    +0.000 A 
BRANCH   5  10
ATOM     10  C   UNL     1       3.804   3.336  17.613  0.00  0.00    +0.000 C 
ATOM     11  O   UNL     1       2.732   3.157  17.060  0.00  0.00    +0.000 OA
BRANCH  10  13
ATOM     12  C   UNL     1       3.145   2.864  19.799  0.00  0.00    +0.000 C 
ATOM     13  O   UNL     1       4.164   2.766  18.802  0.00  0.00    +0.000 OA
ENDBRANCH  10  13
ENDBRANCH   5  10
ENDBRANCH   1   8
BRANCH   2  14
ATOM     14  C   UNL     1       8.164   9.064  17.745  0.00  0.00    +0.000 C 
BRANCH  14  15
ATOM     15  C   UNL     1       8.887   9.347  19.057  0.00  0.00    +0.000 C 
BRANCH  15  16
ATOM     16  N   UNL     1       9.627  10.594  19.043  0.00  0.00    +0.000 N 
ATOM     17  C   UNL     1      10.095  11.250  17.939  0.00  0.00    +0.000 A 
ATOM     18  C   UNL     1      10.643  12.424  18.397  0.00  0.00    +0.000 A 
ATOM     19  C   UNL     1      10.456  12.382  19.791  0.00  0.00    +0.000 A 
ATOM     20  N   UNL     1       9.839  11.265  20.190  0.00  0.00    +0.000 NA
ENDBRANCH  15  16
ENDBRANCH  14  15
ENDBRANCH   2  14
TORSDOF 6
ENDMDL
MODEL 7
REMARK VINA RESULT:      -6.1      2.010      2.542
REMARK  Name = 
REMARK  7 active torsions:
REMARK  status: ('A' for Active; 'I' for Inactive)
REMARK    1  A    between atoms: C_1  and  O_2
REMARK    2  A    between atoms: O_2  and  C_3
REMARK    3  A    between atoms: C_3  and  C_5
REMARK    4  A    between atoms: C_8  and  N_9
REMARK    5  A    between atoms: C_10  and  C_12
REMARK    6  A    between atoms: C_12  and  C_13
REMARK    7  A    between atoms: C_13  and  N_14
REMARK                            x       y       z     vdW  Elec       q    Type
REMARK                         _______ _______ _______ _____ _____    ______ ____
ROOT
ATOM      1  N   UNL     1       4.409   5.028  17.218  0.00  0.00    +0.000 N 
ATOM      2  C   UNL     1       3.945   6.295  17.525  0.00  0.00    +0.000 C 
ATOM      3  O   UNL     1       4.241   7.325  16.924  0.00  0.00    +0.000 OA
ATOM      4  H   UNL     1       3.857   4.225  17.492  0.00  0.00    +0.000 HD
ENDROOT
BRANCH   1   8
ATOM      5  C   UNL     1       6.301   4.279  14.143  0.00  0.00    +0.000 A 
ATOM      6  C   UNL     1       7.367   4.728  14.909  0.00  0.00    +0.000 A 
ATOM      7  S   UNL     1       6.865   5.361  16.427  0.00  0.00    +0.000 S 
ATOM      8  C   UNL     1       5.273   4.856  16.161  0.00  0.00    +0.000 A 
ATOM      9  C   UNL     1       5.084   4.330  14.908  0.00  0.00    +0.000 A 
BRANCH   5  10
ATOM     10  C   UNL     1       6.375   3.801  12.759  0.00  0.00    +0.000 C 
ATOM     11  O   UNL     1       7.196   4.223  11.961  0.00  0.00    +0.000 OA
BRANCH  10  13
ATOM     12  C   UNL     1       4.476   3.275  11.513  0.00  0.00    +0.000 C 
ATOM     13  O   UNL     1       5.443   2.844  12.473  0.00  0.00    +0.000 OA
ENDBRANCH  10  13
ENDBRANCH   5  10
ENDBRANCH   1   8
BRANCH   2  14
ATOM     14  C   UNL     1       2.998   6.327  18.703  0.00  0.00    +0.000 C 
BRANCH  14  15
ATOM     15  C   UNL     1       3.482   5.345  19.764  0.00  0.00    +0.000 C 
BRANCH  15  16
ATOM     16  N   UNL     1       2.470   4.385  20.157  0.00  0.00    +0.000 N 
ATOM     17  C   UNL     1       1.457   3.905  19.375  0.00  0.00    +0.000 A 
ATOM     18  C   UNL     1       0.812   2.955  20.130  0.00  0.00    +0.000 A 
ATOM     19  C   UNL     1       1.511   2.936  21.351  0.00  0.00    +0.000 A 
ATOM     20  N   UNL     1       2.521   3.810  21.373  0.00  0.00    +0.000 NA
ENDBRANCH  15  16
ENDBRANCH  14  15
ENDBRANCH   2  14
TORSDOF 6
ENDMDL
MODEL 8
REMARK VINA RESULT:      -6.1      1.575      2.015
REMARK  Name = 
REMARK  7 active torsions:
REMARK  status: ('A' for Active; 'I' for Inactive)
REMARK    1  A    between atoms: C_1  and  O_2
REMARK    2  A    between atoms: O_2  and  C_3
REMARK    3  A    between atoms: C_3  and  C_5
REMARK    4  A    between atoms: C_8  and  N_9
REMARK    5  A    between atoms: C_10  and  C_12
REMARK    6  A    between atoms: C_12  and  C_13
REMARK    7  A    between atoms: C_13  and  N_14
REMARK                            x       y       z     vdW  Elec       q    Type
REMARK                         _______ _______ _______ _____ _____    ______ ____
ROOT
ATOM      1  N   UNL     1       3.862   5.267  18.169  0.00  0.00    +0.000 N 
ATOM      2  C   UNL     1       3.269   6.515  18.249  0.00  0.00    +0.000 C 
ATOM      3  O   UNL     1       3.658   7.524  17.666  0.00  0.00    +0.000 OA
ATOM      4  H   UNL     1       3.301   4.445  18.353  0.00  0.00    +0.000 HD
ENDROOT
BRANCH   1   8
ATOM      5  C   UNL     1       6.493   4.737  15.641  0.00  0.00    +0.000 A 
ATOM      6  C   UNL     1       7.292   4.601  16.767  0.00  0.00    +0.000 A 
ATOM      7  S   UNL     1       6.446   4.959  18.221  0.00  0.00    +0.000 S 
ATOM      8  C   UNL     1       4.980   5.092  17.386  0.00  0.00    +0.000 A 
ATOM      9  C   UNL     1       5.131   4.992  16.026  0.00  0.00    +0.000 A 
BRANCH   5  10
ATOM     10  C   UNL     1       6.941   4.628  14.249  0.00  0.00    +0.000 C 
ATOM     11  O   UNL     1       6.456   3.832  13.463  0.00  0.00    +0.000 OA
BRANCH  10  13
ATOM     12  C   UNL     1       8.150   5.640  12.531  0.00  0.00    +0.000 C 
ATOM     13  O   UNL     1       7.941   5.507  13.938  0.00  0.00    +0.000 OA
ENDBRANCH  10  13
ENDBRANCH   5  10
ENDBRANCH   1   8
BRANCH   2  14
ATOM     14  C   UNL     1       2.047   6.551  19.138  0.00  0.00    +0.000 C 
BRANCH  14  15
ATOM     15  C   UNL     1       2.393   5.941  20.491  0.00  0.00    +0.000 C 
BRANCH  15  16
ATOM     16  N   UNL     1       1.871   4.599  20.663  0.00  0.00    +0.000 N 
ATOM     17  C   UNL     1       1.058   3.926  19.795  0.00  0.00    +0.000 A 
ATOM     18  C   UNL     1       0.901   2.666  20.320  0.00  0.00    +0.000 A 
ATOM     19  C   UNL     1       1.659   2.679  21.506  0.00  0.00    +0.000 A 
ATOM     20  N   UNL     1       2.249   3.858  21.721  0.00  0.00    +0.000 NA
ENDBRANCH  15  16
ENDBRANCH  14  15
ENDBRANCH   2  14
TORSDOF 6
ENDMDL
MODEL 9
REMARK VINA RESULT:      -6.0      2.780      6.459
REMARK  Name = 
REMARK  7 active torsions:
REMARK  status: ('A' for Active; 'I' for Inactive)
REMARK    1  A    between atoms: C_1  and  O_2
REMARK    2  A    between atoms: O_2  and  C_3
REMARK    3  A    between atoms: C_3  and  C_5
REMARK    4  A    between atoms: C_8  and  N_9
REMARK    5  A    between atoms: C_10  and  C_12
REMARK    6  A    between atoms: C_12  and  C_13
REMARK    7  A    between atoms: C_13  and  N_14
REMARK                            x       y       z     vdW  Elec       q    Type
REMARK                         _______ _______ _______ _____ _____    ______ ____
ROOT
ATOM      1  N   UNL     1       4.892   2.998  17.240  0.00  0.00    +0.000 N 
ATOM      2  C   UNL     1       5.082   4.011  16.317  0.00  0.00    +0.000 C 
ATOM      3  O   UNL     1       4.350   4.988  16.175  0.00  0.00    +0.000 OA
ATOM      4  H   UNL     1       5.692   2.460  17.548  0.00  0.00    +0.000 HD
ENDROOT
BRANCH   1   8
ATOM      5  C   UNL     1       2.347   3.374  19.882  0.00  0.00    +0.000 A 
ATOM      6  C   UNL     1       1.642   2.496  19.071  0.00  0.00    +0.000 A 
ATOM      7  S   UNL     1       2.444   2.186  17.582  0.00  0.00    +0.000 S 
ATOM      8  C   UNL     1       3.811   3.043  18.091  0.00  0.00    +0.000 A 
ATOM      9  C   UNL     1       3.634   3.657  19.304  0.00  0.00    +0.000 A 
BRANCH   5  10
ATOM     10  C   UNL     1       1.882   3.936  21.153  0.00  0.00    +0.000 C 
ATOM     11  O   UNL     1       2.200   3.469  22.234  0.00  0.00    +0.000 OA
BRANCH  10  13
ATOM     12  C   UNL     1       1.779   6.188  20.561  0.00  0.00    +0.000 C 
ATOM     13  O   UNL     1       1.071   5.024  20.991  0.00  0.00    +0.000 OA
ENDBRANCH  10  13
ENDBRANCH   5  10
ENDBRANCH   1   8
BRANCH   2  14
ATOM     14  C   UNL     1       6.315   3.831  15.461  0.00  0.00    +0.000 C 
BRANCH  14  15
ATOM     15  C   UNL     1       7.100   5.137  15.430  0.00  0.00    +0.000 C 
BRANCH  15  16
ATOM     16  N   UNL     1       7.375   5.668  16.751  0.00  0.00    +0.000 N 
ATOM     17  C   UNL     1       7.596   4.944  17.889  0.00  0.00    +0.000 A 
ATOM     18  C   UNL     1       7.907   5.859  18.867  0.00  0.00    +0.000 A 
ATOM     19  C   UNL     1       7.846   7.106  18.219  0.00  0.00    +0.000 A 
ATOM     20  N   UNL     1       7.517   6.995  16.929  0.00  0.00    +0.000 NA
ENDBRANCH  15  16
ENDBRANCH  14  15
ENDBRANCH   2  14
TORSDOF 6
ENDMDL
