MODEL 1
REMARK VINA RESULT:      -6.3      0.000      0.000
REMARK  Name = 
REMARK  7 active torsions:
REMARK  status: ('A' for Active; 'I' for Inactive)
REMARK    1  A    between atoms: C_1  and  C_2
REMARK    2  A    between atoms: C_2  and  O_3
REMARK    3  A    between atoms: O_3  and  C_4
REMARK    4  A    between atoms: C_4  and  C_6
REMARK    5  A    between atoms: C_6  and  O_7
REMARK    6  A    between atoms: O_7  and  C_8
REMARK    7  A    between atoms: C_11  and  C_12
REMARK                            x       y       z     vdW  Elec       q    Type
REMARK                         _______ _______ _______ _____ _____    ______ ____
ROOT
ATOM      1  C   UNL     1       4.093   5.295  17.767  0.00  0.00    +0.000 A 
ATOM      2  C   UNL     1       3.632   4.193  17.049  0.00  0.00    +0.000 A 
ATOM      3  C   UNL     1       2.592   3.401  17.543  0.00  0.00    +0.000 A 
ATOM      4  C   UNL     1       2.015   3.701  18.784  0.00  0.00    +0.000 A 
ATOM      5  C   UNL     1       2.500   4.797  19.511  0.00  0.00    +0.000 A 
ATOM      6  C   UNL     1       3.535   5.593  19.008  0.00  0.00    +0.000 A 
ENDROOT
BRANCH   4   7
ATOM      7  C   UNL     1       0.904   2.904  19.378  0.00  0.00    +0.000 C 
ATOM      8  N   UNL     1       0.639   3.039  20.711  0.00  0.00    +0.000 N 
ATOM      9  O   UNL     1       0.236   2.136  18.695  0.00  0.00    +0.000 OA
ATOM     10  H   UNL     1       1.123   3.651  21.346  0.00  0.00    +0.000 HD
ATOM     11  H   UNL     1      -0.125   2.486  21.079  0.00  0.00    +0.000 HD
ENDBRANCH   4   7
BRANCH   1  12
ATOM     12  O   UNL     1       5.120   5.965  17.171  0.00  0.00    +0.000 OA
BRANCH  12  13
ATOM     13  C   UNL     1       6.406   5.812  17.758  0.00  0.00    +0.000 C 
BRANCH  13  14
ATOM     14  C   UNL     1       7.308   5.109  16.761  0.00  0.00    +0.000 C 
ATOM     15  O   UNL     1       8.091   4.203  17.011  0.00  0.00    +0.000 OA
BRANCH  14  16
ATOM     16  O   UNL     1       7.183   5.719  15.543  0.00  0.00    +0.000 OA
BRANCH  16  18
ATOM     17  C   UNL     1       5.952   4.075  14.332  0.00  0.00    +0.000 C 
ATOM     18  C   UNL     1       7.264   4.833  14.418  0.00  0.00    +0.000 C 
ENDBRANCH  16  18
ENDBRANCH  14  16
ENDBRANCH  13  14
ENDBRANCH  12  13
ENDBRANCH   1  12
TORSDOF 6
ENDMDL
MODEL 2
REMARK VINA RESULT:      -6.2      1.329      2.039
REMARK  Name = 
REMARK  7 active torsions:
REMARK  status: ('A' for Active; 'I' for Inactive)
REMARK    1  A    between atoms: C_1  and  C_2
REMARK    2  A    between atoms: C_2  and  O_3
REMARK    3  A    between atoms: O_3  and  C_4
REMARK    4  A    between atoms: C_4  and  C_6
REMARK    5  A    between atoms: C_6  and  O_7
REMARK    6  A    between atoms: O_7  and  C_8
REMARK    7  A    between atoms: C_11  and  C_12
REMARK                            x       y       z     vdW  Elec       q    Type
REMARK                         _______ _______ _______ _____ _____    ______ ____
ROOT
ATOM      1  C   UNL     1       4.530   4.659  17.224  0.00  0.00    +0.000 A 
ATOM      2  C   UNL     1       3.771   5.479  18.058  0.00  0.00    +0.000 A 
ATOM      3  C   UNL     1       2.608   5.000  18.667  0.00  0.00    +0.000 A 
ATOM      4  C   UNL     1       2.183   3.687  18.425  0.00  0.00    +0.000 A 
ATOM      5  C   UNL     1       2.938   2.877  17.565  0.00  0.00    +0.000 A 
ATOM      6  C   UNL     1       4.108   3.357  16.966  0.00  0.00    +0.000 A 
ENDROOT
BRANCH   4   7
ATOM      7  C   UNL     1       0.954   3.105  19.035  0.00  0.00    +0.000 C 
ATOM      8  N   UNL     1       0.474   3.651  20.192  0.00  0.00    +0.000 N 
ATOM      9  O   UNL     1       0.376   2.155  18.520  0.00  0.00    +0.000 OA
ATOM     10  H   UNL     1       0.872   4.436  20.680  0.00  0.00    +0.000 HD
ATOM     11  H   UNL     1      -0.365   3.234  20.575  0.00  0.00    +0.000 HD
ENDBRANCH   4   7
BRANCH   1  12
ATOM     12  O   UNL     1       5.628   5.264  16.689  0.00  0.00    +0.000 OA
BRANCH  12  13
ATOM     13  C   UNL     1       5.540   5.655  15.325  0.00  0.00    +0.000 C 
BRANCH  13  14
ATOM     14  C   UNL     1       6.654   4.968  14.556  0.00  0.00    +0.000 C 
ATOM     15  O   UNL     1       7.766   5.425  14.338  0.00  0.00    +0.000 OA
BRANCH  14  16
ATOM     16  O   UNL     1       6.182   3.787  14.053  0.00  0.00    +0.000 OA
BRANCH  16  18
ATOM     17  C   UNL     1       5.089   3.222  12.011  0.00  0.00    +0.000 C 
ATOM     18  C   UNL     1       6.414   3.598  12.650  0.00  0.00    +0.000 C 
ENDBRANCH  16  18
ENDBRANCH  14  16
ENDBRANCH  13  14
ENDBRANCH  12  13
ENDBRANCH   1  12
TORSDOF 6
ENDMDL
MODEL 3
REMARK VINA RESULT:      -6.2      3.026      6.147
REMARK  Name = 
REMARK  7 active torsions:
REMARK  status: ('A' for Active; 'I' for Inactive)
REMARK    1  A    between atoms: C_1  and  C_2
REMARK    2  A    between atoms: C_2  and  O_3
REMARK    3  A    between atoms: O_3  and  C_4
REMARK    4  A    between atoms: C_4  and  C_6
REMARK    5  A    between atoms: C_6  and  O_7
REMARK    6  A    between atoms: O_7  and  C_8
REMARK    7  A    between atoms: C_11  and  C_12
REMARK                            x       y       z     vdW  Elec       q    Type
REMARK                         _______ _______ _______ _____ _____    ______ ____
ROOT
ATOM      1  C   UNL     1       3.904   3.094  18.725  0.00  0.00    +0.000 A 
ATOM      2  C   UNL     1       5.016   3.777  19.214  0.00  0.00    +0.000 A 
ATOM      3  C   UNL     1       5.719   4.674  18.405  0.00  0.00    +0.000 A 
ATOM      4  C   UNL     1       5.317   4.880  17.079  0.00  0.00    +0.000 A 
ATOM      5  C   UNL     1       4.212   4.171  16.587  0.00  0.00    +0.000 A 
ATOM      6  C   UNL     1       3.505   3.282  17.404  0.00  0.00    +0.000 A 
ENDROOT
BRANCH   4   7
ATOM      7  C   UNL     1       6.016   5.817  16.154  0.00  0.00    +0.000 C 
ATOM      8  N   UNL     1       7.363   5.994  16.294  0.00  0.00    +0.000 N 
ATOM      9  O   UNL     1       5.405   6.425  15.283  0.00  0.00    +0.000 OA
ATOM     10  H   UNL     1       7.949   5.532  16.969  0.00  0.00    +0.000 HD
ATOM     11  H   UNL     1       7.805   6.634  15.646  0.00  0.00    +0.000 HD
ENDBRANCH   4   7
BRANCH   1  12
ATOM     12  O   UNL     1       3.328   2.242  19.620  0.00  0.00    +0.000 OA
BRANCH  12  13
ATOM     13  C   UNL     1       1.966   2.487  19.947  0.00  0.00    +0.000 C 
BRANCH  13  14
ATOM     14  C   UNL     1       1.899   2.994  21.376  0.00  0.00    +0.000 C 
ATOM     15  O   UNL     1       1.543   2.351  22.353  0.00  0.00    +0.000 OA
BRANCH  14  16
ATOM     16  O   UNL     1       2.207   4.327  21.387  0.00  0.00    +0.000 OA
BRANCH  16  18
ATOM     17  C   UNL     1       2.323   6.211  19.931  0.00  0.00    +0.000 C 
ATOM     18  C   UNL     1       1.419   5.132  20.500  0.00  0.00    +0.000 C 
ENDBRANCH  16  18
ENDBRANCH  14  16
ENDBRANCH  13  14
ENDBRANCH  12  13
ENDBRANCH   1  12
TORSDOF 6
ENDMDL
MODEL 4
REMARK VINA RESULT:      -6.2      2.741      5.925
REMARK  Name = 
REMARK  7 active torsions:
REMARK  status: ('A' for Active; 'I' for Inactive)
REMARK    1  A    between atoms: C_1  and  C_2
REMARK    2  A    between atoms: C_2  and  O_3
REMARK    3  A    between atoms: O_3  and  C_4
REMARK    4  A    between atoms: C_4  and  C_6
REMARK    5  A    between atoms: C_6  and  O_7
REMARK    6  A    between atoms: O_7  and  C_8
REMARK    7  A    between atoms: C_11  and  C_12
REMARK                            x       y       z     vdW  Elec       q    Type
REMARK                         _______ _______ _______ _____ _____    ______ ____
ROOT
ATOM      1  C   UNL     1       3.146   4.884  17.836  0.00  0.00    +0.000 A 
ATOM      2  C   UNL     1       3.543   3.906  16.926  0.00  0.00    +0.000 A 
ATOM      3  C   UNL     1       4.867   3.832  16.486  0.00  0.00    +0.000 A 
ATOM      4  C   UNL     1       5.808   4.763  16.945  0.00  0.00    +0.000 A 
ATOM      5  C   UNL     1       5.396   5.759  17.841  0.00  0.00    +0.000 A 
ATOM      6  C   UNL     1       4.071   5.822  18.288  0.00  0.00    +0.000 A 
ENDROOT
BRANCH   4   7
ATOM      7  C   UNL     1       7.236   4.751  16.520  0.00  0.00    +0.000 C 
ATOM      8  N   UNL     1       7.566   5.293  15.310  0.00  0.00    +0.000 N 
ATOM      9  O   UNL     1       8.109   4.266  17.232  0.00  0.00    +0.000 OA
ATOM     10  H   UNL     1       6.924   5.724  14.666  0.00  0.00    +0.000 HD
ATOM     11  H   UNL     1       8.546   5.273  15.057  0.00  0.00    +0.000 HD
ENDBRANCH   4   7
BRANCH   1  12
ATOM     12  O   UNL     1       1.824   4.844  18.164  0.00  0.00    +0.000 OA
BRANCH  12  13
ATOM     13  C   UNL     1       1.496   4.257  19.417  0.00  0.00    +0.000 C 
BRANCH  13  14
ATOM     14  C   UNL     1       1.148   2.798  19.187  0.00  0.00    +0.000 C 
ATOM     15  O   UNL     1       0.190   2.377  18.554  0.00  0.00    +0.000 OA
BRANCH  14  16
ATOM     16  O   UNL     1       2.024   2.017  19.888  0.00  0.00    +0.000 OA
BRANCH  16  18
ATOM     17  C   UNL     1       4.381   2.253  20.161  0.00  0.00    +0.000 C 
ATOM     18  C   UNL     1       3.020   2.744  20.621  0.00  0.00    +0.000 C 
ENDBRANCH  16  18
ENDBRANCH  14  16
ENDBRANCH  13  14
ENDBRANCH  12  13
ENDBRANCH   1  12
TORSDOF 6
ENDMDL
MODEL 5
REMARK VINA RESULT:      -6.1      2.924      5.879
REMARK  Name = 
REMARK  7 active torsions:
REMARK  status: ('A' for Active; 'I' for Inactive)
REMARK    1  A    between atoms: C_1  and  C_2
REMARK    2  A    between atoms: C_2  and  O_3
REMARK    3  A    between atoms: O_3  and  C_4
REMARK    4  A    between atoms: C_4  and  C_6
REMARK    5  A    between atoms: C_6  and  O_7
REMARK    6  A    between atoms: O_7  and  C_8
REMARK    7  A    between atoms: C_11  and  C_12
REMARK                            x       y       z     vdW  Elec       q    Type
REMARK                         _______ _______ _______ _____ _____    ______ ____
ROOT
ATOM      1  C   UNL     1       3.387   5.408  19.737  0.00  0.00    +0.000 A 
ATOM      2  C   UNL     1       2.931   6.362  18.828  0.00  0.00    +0.000 A 
ATOM      3  C   UNL     1       3.683   6.688  17.696  0.00  0.00    +0.000 A 
ATOM      4  C   UNL     1       4.920   6.068  17.477  0.00  0.00    +0.000 A 
ATOM      5  C   UNL     1       5.382   5.128  18.408  0.00  0.00    +0.000 A 
ATOM      6  C   UNL     1       4.621   4.796  19.535  0.00  0.00    +0.000 A 
ENDROOT
BRANCH   4   7
ATOM      7  C   UNL     1       5.779   6.365  16.296  0.00  0.00    +0.000 C 
ATOM      8  N   UNL     1       7.130   6.192  16.407  0.00  0.00    +0.000 N 
ATOM      9  O   UNL     1       5.297   6.758  15.240  0.00  0.00    +0.000 OA
ATOM     10  H   UNL     1       7.614   5.864  17.226  0.00  0.00    +0.000 HD
ATOM     11  H   UNL     1       7.682   6.398  15.584  0.00  0.00    +0.000 HD
ENDBRANCH   4   7
BRANCH   1  12
ATOM     12  O   UNL     1       2.558   5.203  20.799  0.00  0.00    +0.000 OA
BRANCH  12  13
ATOM     13  C   UNL     1       1.290   4.626  20.516  0.00  0.00    +0.000 C 
BRANCH  13  14
ATOM     14  C   UNL     1       1.349   3.148  20.854  0.00  0.00    +0.000 C 
ATOM     15  O   UNL     1       1.621   2.668  21.945  0.00  0.00    +0.000 OA
BRANCH  14  16
ATOM     16  O   UNL     1       1.147   2.423  19.711  0.00  0.00    +0.000 OA
BRANCH  16  18
ATOM     17  C   UNL     1       2.396   2.463  17.681  0.00  0.00    +0.000 C 
ATOM     18  C   UNL     1       2.344   1.924  19.099  0.00  0.00    +0.000 C 
ENDBRANCH  16  18
ENDBRANCH  14  16
ENDBRANCH  13  14
ENDBRANCH  12  13
ENDBRANCH   1  12
TORSDOF 6
ENDMDL
MODEL 6
REMARK VINA RESULT:      -6.1      1.315      1.390
REMARK  Name = 
REMARK  7 active torsions:
REMARK  status: ('A' for Active; 'I' for Inactive)
REMARK    1  A    between atoms: C_1  and  C_2
REMARK    2  A    between atoms: C_2  and  O_3
REMARK    3  A    between atoms: O_3  and  C_4
REMARK    4  A    between atoms: C_4  and  C_6
REMARK    5  A    between atoms: C_6  and  O_7
REMARK    6  A    between atoms: O_7  and  C_8
REMARK    7  A    between atoms: C_11  and  C_12
REMARK                            x       y       z     vdW  Elec       q    Type
REMARK                         _______ _______ _______ _____ _____    ______ ____
ROOT
ATOM      1  C   UNL     1       5.127   5.023  19.120  0.00  0.00    +0.000 A 
ATOM      2  C   UNL     1       5.005   3.666  19.411  0.00  0.00    +0.000 A 
ATOM      3  C   UNL     1       3.753   3.045  19.418  0.00  0.00    +0.000 A 
ATOM      4  C   UNL     1       2.601   3.795  19.149  0.00  0.00    +0.000 A 
ATOM      5  C   UNL     1       2.730   5.165  18.880  0.00  0.00    +0.000 A 
ATOM      6  C   UNL     1       3.987   5.780  18.864  0.00  0.00    +0.000 A 
ENDROOT
BRANCH   4   7
ATOM      7  C   UNL     1       1.231   3.206  19.139  0.00  0.00    +0.000 C 
ATOM      8  N   UNL     1       0.485   3.261  20.282  0.00  0.00    +0.000 N 
ATOM      9  O   UNL     1       0.772   2.677  18.134  0.00  0.00    +0.000 OA
ATOM     10  H   UNL     1       0.771   3.684  21.150  0.00  0.00    +0.000 HD
ATOM     11  H   UNL     1      -0.441   2.856  20.238  0.00  0.00    +0.000 HD
ENDBRANCH   4   7
BRANCH   1  12
ATOM     12  O   UNL     1       6.406   5.495  19.164  0.00  0.00    +0.000 OA
BRANCH  12  13
ATOM     13  C   UNL     1       6.865   6.200  18.018  0.00  0.00    +0.000 C 
BRANCH  13  14
ATOM     14  C   UNL     1       7.429   5.195  17.031  0.00  0.00    +0.000 C 
ATOM     15  O   UNL     1       8.122   4.225  17.306  0.00  0.00    +0.000 OA
BRANCH  14  16
ATOM     16  O   UNL     1       7.124   5.601  15.761  0.00  0.00    +0.000 OA
BRANCH  16  18
ATOM     17  C   UNL     1       5.209   4.214  15.455  0.00  0.00    +0.000 C 
ATOM     18  C   UNL     1       5.721   5.643  15.466  0.00  0.00    +0.000 C 
ENDBRANCH  16  18
ENDBRANCH  14  16
ENDBRANCH  13  14
ENDBRANCH  12  13
ENDBRANCH   1  12
TORSDOF 6
ENDMDL
MODEL 7
REMARK VINA RESULT:      -6.1      1.437      1.832
REMARK  Name = 
REMARK  7 active torsions:
REMARK  status: ('A' for Active; 'I' for Inactive)
REMARK    1  A    between atoms: C_1  and  C_2
REMARK    2  A    between atoms: C_2  and  O_3
REMARK    3  A    between atoms: O_3  and  C_4
REMARK    4  A    between atoms: C_4  and  C_6
REMARK    5  A    between atoms: C_6  and  O_7
REMARK    6  A    between atoms: O_7  and  C_8
REMARK    7  A    between atoms: C_11  and  C_12
REMARK                            x       y       z     vdW  Elec       q    Type
REMARK                         _______ _______ _______ _____ _____    ______ ____
ROOT
ATOM      1  C   UNL     1       5.199   5.061  19.167  0.00  0.00    +0.000 A 
ATOM      2  C   UNL     1       4.077   5.881  19.065  0.00  0.00    +0.000 A 
ATOM      3  C   UNL     1       2.790   5.337  19.055  0.00  0.00    +0.000 A 
ATOM      4  C   UNL     1       2.620   3.948  19.128  0.00  0.00    +0.000 A 
ATOM      5  C   UNL     1       3.754   3.128  19.206  0.00  0.00    +0.000 A 
ATOM      6  C   UNL     1       5.040   3.679  19.226  0.00  0.00    +0.000 A 
ENDROOT
BRANCH   4   7
ATOM      7  C   UNL     1       1.281   3.292  19.121  0.00  0.00    +0.000 C 
ATOM      8  N   UNL     1       0.522   3.337  20.256  0.00  0.00    +0.000 N 
ATOM      9  O   UNL     1       0.859   2.718  18.124  0.00  0.00    +0.000 OA
ATOM     10  H   UNL     1       0.778   3.794  21.115  0.00  0.00    +0.000 HD
ATOM     11  H   UNL     1      -0.383   2.886  20.213  0.00  0.00    +0.000 HD
ENDBRANCH   4   7
BRANCH   1  12
ATOM     12  O   UNL     1       6.387   5.729  19.149  0.00  0.00    +0.000 OA
BRANCH  12  13
ATOM     13  C   UNL     1       7.321   5.342  18.149  0.00  0.00    +0.000 C 
BRANCH  13  14
ATOM     14  C   UNL     1       7.212   6.315  16.989  0.00  0.00    +0.000 C 
ATOM     15  O   UNL     1       6.887   7.491  17.063  0.00  0.00    +0.000 OA
BRANCH  14  16
ATOM     16  O   UNL     1       7.439   5.640  15.822  0.00  0.00    +0.000 OA
BRANCH  16  18
ATOM     17  C   UNL     1       5.318   4.679  15.309  0.00  0.00    +0.000 C 
ATOM     18  C   UNL     1       6.752   4.386  15.711  0.00  0.00    +0.000 C 
ENDBRANCH  16  18
ENDBRANCH  14  16
ENDBRANCH  13  14
ENDBRANCH  12  13
ENDBRANCH   1  12
TORSDOF 6
ENDMDL
MODEL 8
REMARK VINA RESULT:      -6.1      2.837      5.885
REMARK  Name = 
REMARK  7 active torsions:
REMARK  status: ('A' for Active; 'I' for Inactive)
REMARK    1  A    between atoms: C_1  and  C_2
REMARK    2  A    between atoms: C_2  and  O_3
REMARK    3  A    between atoms: O_3  and  C_4
REMARK    4  A    between atoms: C_4  and  C_6
REMARK    5  A    between atoms: C_6  and  O_7
REMARK    6  A    between atoms: O_7  and  C_8
REMARK    7  A    between atoms: C_11  and  C_12
REMARK                            x       y       z     vdW  Elec       q    Type
REMARK                         _______ _______ _______ _____ _____    ______ ____
ROOT
ATOM      1  C   UNL     1       3.707   5.332  19.146  0.00  0.00    +0.000 A 
ATOM      2  C   UNL     1       4.976   4.911  19.541  0.00  0.00    +0.000 A 
ATOM      3  C   UNL     1       6.014   4.799  18.612  0.00  0.00    +0.000 A 
ATOM      4  C   UNL     1       5.778   5.092  17.262  0.00  0.00    +0.000 A 
ATOM      5  C   UNL     1       4.493   5.491  16.869  0.00  0.00    +0.000 A 
ATOM      6  C   UNL     1       3.459   5.612  17.804  0.00  0.00    +0.000 A 
ENDROOT
BRANCH   4   7
ATOM      7  C   UNL     1       6.833   4.994  16.213  0.00  0.00    +0.000 C 
ATOM      8  N   UNL     1       6.580   5.520  14.978  0.00  0.00    +0.000 N 
ATOM      9  O   UNL     1       7.909   4.454  16.440  0.00  0.00    +0.000 OA
ATOM     10  H   UNL     1       5.734   5.991  14.702  0.00  0.00    +0.000 HD
ATOM     11  H   UNL     1       7.320   5.440  14.292  0.00  0.00    +0.000 HD
ENDBRANCH   4   7
BRANCH   1  12
ATOM     12  O   UNL     1       2.792   5.380  20.155  0.00  0.00    +0.000 OA
BRANCH  12  13
ATOM     13  C   UNL     1       1.655   4.536  20.024  0.00  0.00    +0.000 C 
BRANCH  13  14
ATOM     14  C   UNL     1       1.857   3.319  20.909  0.00  0.00    +0.000 C 
ATOM     15  O   UNL     1       2.268   3.325  22.060  0.00  0.00    +0.000 OA
BRANCH  14  16
ATOM     16  O   UNL     1       1.601   2.192  20.177  0.00  0.00    +0.000 OA
BRANCH  16  18
ATOM     17  C   UNL     1       3.238   1.694  18.517  0.00  0.00    +0.000 C 
ATOM     18  C   UNL     1       1.875   2.312  18.775  0.00  0.00    +0.000 C 
ENDBRANCH  16  18
ENDBRANCH  14  16
ENDBRANCH  13  14
ENDBRANCH  12  13
ENDBRANCH   1  12
TORSDOF 6
ENDMDL
MODEL 9
REMARK VINA RESULT:      -6.1      2.789      6.114
REMARK  Name = 
REMARK  7 active torsions:
REMARK  status: ('A' for Active; 'I' for Inactive)
REMARK    1  A    between atoms: C_1  and  C_2
REMARK    2  A    between atoms: C_2  and  O_3
REMARK    3  A    between atoms: O_3  and  C_4
REMARK    4  A    between atoms: C_4  and  C_6
REMARK    5  A    between atoms: C_6  and  O_7
REMARK    6  A    between atoms: O_7  and  C_8
REMARK    7  A    between atoms: C_11  and  C_12
REMARK                            x       y       z     vdW  Elec       q    Type
REMARK                         _______ _______ _______ _____ _____    ______ ____
ROOT
ATOM      1  C   UNL     1       2.881   4.586  17.534  0.00  0.00    +0.000 A 
ATOM      2  C   UNL     1       3.409   5.828  17.883  0.00  0.00    +0.000 A 
ATOM      3  C   UNL     1       4.758   6.119  17.665  0.00  0.00    +0.000 A 
ATOM      4  C   UNL     1       5.600   5.148  17.109  0.00  0.00    +0.000 A 
ATOM      5  C   UNL     1       5.067   3.893  16.784  0.00  0.00    +0.000 A 
ATOM      6  C   UNL     1       3.713   3.609  16.993  0.00  0.00    +0.000 A 
ENDROOT
BRANCH   4   7
ATOM      7  C   UNL     1       7.049   5.381  16.849  0.00  0.00    +0.000 C 
ATOM      8  N   UNL     1       7.490   6.665  16.694  0.00  0.00    +0.000 N 
ATOM      9  O   UNL     1       7.841   4.449  16.771  0.00  0.00    +0.000 OA
ATOM     10  H   UNL     1       6.919   7.492  16.752  0.00  0.00    +0.000 HD
ATOM     11  H   UNL     1       8.480   6.786  16.524  0.00  0.00    +0.000 HD
ENDBRANCH   4   7
BRANCH   1  12
ATOM     12  O   UNL     1       1.555   4.439  17.817  0.00  0.00    +0.000 OA
BRANCH  12  13
ATOM     13  C   UNL     1       1.169   3.224  18.447  0.00  0.00    +0.000 C 
BRANCH  13  14
ATOM     14  C   UNL     1       1.176   3.440  19.950  0.00  0.00    +0.000 C 
ATOM     15  O   UNL     1       0.835   4.458  20.533  0.00  0.00    +0.000 OA
BRANCH  14  16
ATOM     16  O   UNL     1       1.725   2.341  20.552  0.00  0.00    +0.000 OA
BRANCH  16  18
ATOM     17  C   UNL     1       4.104   2.366  20.393  0.00  0.00    +0.000 C 
ATOM     18  C   UNL     1       2.916   2.604  21.307  0.00  0.00    +0.000 C 
ENDBRANCH  16  18
ENDBRANCH  14  16
ENDBRANCH  13  14
ENDBRANCH  12  13
ENDBRANCH   1  12
TORSDOF 6
ENDMDL
