MODEL 1
REMARK VINA RESULT:      -7.2      0.000      0.000
REMARK  Name = 
REMARK  6 active torsions:
REMARK  status: ('A' for Active; 'I' for Inactive)
REMARK    1  A    between atoms: C_1  and  C_2
REMARK    2  A    between atoms: N_4  and  C_5
REMARK    3  A    between atoms: C_8  and  S_9
REMARK    4  A    between atoms: S_9  and  N_12
REMARK    5  A    between atoms: N_12  and  C_13
REMARK    6  A    between atoms: C_13  and  C_14
REMARK                            x       y       z     vdW  Elec       q    Type
REMARK                         _______ _______ _______ _____ _____    ______ ____
ROOT
ATOM      1  S   UNL     1       1.931   4.307  20.685  0.00  0.00    +0.000 S 
ATOM      2  O   UNL     1       0.580   4.153  20.187  0.00  0.00    +0.000 OA
ATOM      3  O   UNL     1       2.436   3.505  21.776  0.00  0.00    +0.000 OA
ENDROOT
BRANCH   1   7
ATOM      4  C   UNL     1       4.742   3.881  17.094  0.00  0.00    +0.000 A 
ATOM      5  C   UNL     1       3.369   3.654  16.967  0.00  0.00    +0.000 A 
ATOM      6  C   UNL     1       2.520   3.765  18.069  0.00  0.00    +0.000 A 
ATOM      7  C   UNL     1       3.047   4.099  19.316  0.00  0.00    +0.000 A 
ATOM      8  C   UNL     1       4.415   4.333  19.464  0.00  0.00    +0.000 A 
ATOM      9  C   UNL     1       5.263   4.204  18.355  0.00  0.00    +0.000 A 
BRANCH   4  13
ATOM     10  C   UNL     1       6.834   4.354  13.987  0.00  0.00    +0.000 C 
ATOM     11  C   UNL     1       5.949   4.807  15.116  0.00  0.00    +0.000 C 
ATOM     12  O   UNL     1       5.576   5.973  15.182  0.00  0.00    +0.000 OA
ATOM     13  N   UNL     1       5.634   3.787  16.002  0.00  0.00    +0.000 N 
ATOM     14  H   UNL     1       6.152   2.921  15.911  0.00  0.00    +0.000 HD
ENDBRANCH   4  13
ENDBRANCH   1   7
BRANCH   1  15
ATOM     15  N   UNL     1       2.176   5.922  21.105  0.00  0.00    +0.000 NA
ATOM     16  H   UNL     1       3.019   6.044  21.670  0.00  0.00    +0.000 HD
BRANCH  15  17
ATOM     17  C   UNL     1       2.159   6.864  19.974  0.00  0.00    +0.000 C 
BRANCH  17  18
ATOM     18  C   UNL     1       1.409   8.082  20.404  0.00  0.00    +0.000 A 
ATOM     19  C   UNL     1       1.154   9.243  19.678  0.00  0.00    +0.000 A 
ATOM     20  N   UNL     1       0.447  10.030  20.533  0.00  0.00    +0.000 N 
ATOM     21  C   UNL     1      -0.116  11.285  20.511  0.00  0.00    +0.000 A 
ATOM     22  C   UNL     1      -0.707  11.579  21.683  0.00  0.00    +0.000 A 
ATOM     23  S   UNL     1      -0.575  10.265  22.871  0.00  0.00    +0.000 S 
ATOM     24  C   UNL     1       0.303   9.337  21.696  0.00  0.00    +0.000 A 
ATOM     25  N   UNL     1       0.848   8.152  21.674  0.00  0.00    +0.000 NA
ENDBRANCH  17  18
ENDBRANCH  15  17
ENDBRANCH   1  15
TORSDOF 5
ENDMDL
MODEL 2
REMARK VINA RESULT:      -7.2      0.911      1.135
REMARK  Name = 
REMARK  6 active torsions:
REMARK  status: ('A' for Active; 'I' for Inactive)
REMARK    1  A    between atoms: C_1  and  C_2
REMARK    2  A    between atoms: N_4  and  C_5
REMARK    3  A    between atoms: C_8  and  S_9
REMARK    4  A    between atoms: S_9  and  N_12
REMARK    5  A    between atoms: N_12  and  C_13
REMARK    6  A    between atoms: C_13  and  C_14
REMARK                            x       y       z     vdW  Elec       q    Type
REMARK                         _______ _______ _______ _____ _____    ______ ____
ROOT
ATOM      1  S   UNL     1       1.931   4.349  20.697  0.00  0.00    +0.000 S 
ATOM      2  O   UNL     1       0.577   4.171  20.216  0.00  0.00    +0.000 OA
ATOM      3  O   UNL     1       2.454   3.577  21.801  0.00  0.00    +0.000 OA
ENDROOT
BRANCH   1   7
ATOM      4  C   UNL     1       4.712   3.869  17.089  0.00  0.00    +0.000 A 
ATOM      5  C   UNL     1       3.339   3.635  16.978  0.00  0.00    +0.000 A 
ATOM      6  C   UNL     1       2.499   3.762  18.085  0.00  0.00    +0.000 A 
ATOM      7  C   UNL     1       3.036   4.120  19.322  0.00  0.00    +0.000 A 
ATOM      8  C   UNL     1       4.405   4.361  19.454  0.00  0.00    +0.000 A 
ATOM      9  C   UNL     1       5.243   4.215  18.340  0.00  0.00    +0.000 A 
BRANCH   4  13
ATOM     10  C   UNL     1       6.790   4.303  13.968  0.00  0.00    +0.000 C 
ATOM     11  C   UNL     1       5.921   4.772  15.102  0.00  0.00    +0.000 C 
ATOM     12  O   UNL     1       5.568   5.944  15.169  0.00  0.00    +0.000 OA
ATOM     13  N   UNL     1       5.595   3.758  15.992  0.00  0.00    +0.000 N 
ATOM     14  H   UNL     1       6.098   2.884  15.898  0.00  0.00    +0.000 HD
ENDBRANCH   4  13
ENDBRANCH   1   7
BRANCH   1  15
ATOM     15  N   UNL     1       2.165   5.975  21.078  0.00  0.00    +0.000 NA
ATOM     16  H   UNL     1       3.005   6.116  21.643  0.00  0.00    +0.000 HD
BRANCH  15  17
ATOM     17  C   UNL     1       2.147   6.888  19.925  0.00  0.00    +0.000 C 
BRANCH  17  18
ATOM     18  C   UNL     1       1.464   8.148  20.347  0.00  0.00    +0.000 A 
ATOM     19  C   UNL     1       0.961   8.481  21.602  0.00  0.00    +0.000 A 
ATOM     20  N   UNL     1       0.438   9.726  21.440  0.00  0.00    +0.000 N 
ATOM     21  C   UNL     1      -0.217  10.651  22.219  0.00  0.00    +0.000 A 
ATOM     22  C   UNL     1      -0.532  11.752  21.514  0.00  0.00    +0.000 A 
ATOM     23  S   UNL     1      -0.007  11.662  19.820  0.00  0.00    +0.000 S 
ATOM     24  C   UNL     1       0.644  10.085  20.142  0.00  0.00    +0.000 A 
ATOM     25  N   UNL     1       1.270   9.182  19.439  0.00  0.00    +0.000 NA
ENDBRANCH  17  18
ENDBRANCH  15  17
ENDBRANCH   1  15
TORSDOF 5
ENDMDL
MODEL 3
REMARK VINA RESULT:      -7.1      2.121      2.586
REMARK  Name = 
REMARK  6 active torsions:
REMARK  status: ('A' for Active; 'I' for Inactive)
REMARK    1  A    between atoms: C_1  and  C_2
REMARK    2  A    between atoms: N_4  and  C_5
REMARK    3  A    between atoms: C_8  and  S_9
REMARK    4  A    between atoms: S_9  and  N_12
REMARK    5  A    between atoms: N_12  and  C_13
REMARK    6  A    between atoms: C_13  and  C_14
REMARK                            x       y       z     vdW  Elec       q    Type
REMARK                         _______ _______ _______ _____ _____    ______ ____
ROOT
ATOM      1  S   UNL     1       3.983   3.401  19.411  0.00  0.00    +0.000 S 
ATOM      2  O   UNL     1       2.694   2.994  18.891  0.00  0.00    +0.000 OA
ATOM      3  O   UNL     1       4.804   2.506  20.195  0.00  0.00    +0.000 OA
ENDROOT
BRANCH   1   7
ATOM      4  C   UNL     1       6.442   4.968  15.879  0.00  0.00    +0.000 A 
ATOM      5  C   UNL     1       5.126   4.530  15.705  0.00  0.00    +0.000 A 
ATOM      6  C   UNL     1       4.389   4.035  16.780  0.00  0.00    +0.000 A 
ATOM      7  C   UNL     1       4.972   3.966  18.046  0.00  0.00    +0.000 A 
ATOM      8  C   UNL     1       6.284   4.400  18.242  0.00  0.00    +0.000 A 
ATOM      9  C   UNL     1       7.023   4.883  17.152  0.00  0.00    +0.000 A 
BRANCH   4  13
ATOM     10  C   UNL     1       8.319   5.659  12.677  0.00  0.00    +0.000 C 
ATOM     11  C   UNL     1       7.308   4.954  13.539  0.00  0.00    +0.000 C 
ATOM     12  O   UNL     1       6.664   4.010  13.093  0.00  0.00    +0.000 OA
ATOM     13  N   UNL     1       7.220   5.484  14.818  0.00  0.00    +0.000 N 
ATOM     14  H   UNL     1       7.689   6.366  14.985  0.00  0.00    +0.000 HD
ENDBRANCH   4  13
ENDBRANCH   1   7
BRANCH   1  15
ATOM     15  N   UNL     1       3.785   4.809  20.317  0.00  0.00    +0.000 NA
ATOM     16  H   UNL     1       4.277   5.602  19.900  0.00  0.00    +0.000 HD
BRANCH  15  17
ATOM     17  C   UNL     1       2.388   5.158  20.619  0.00  0.00    +0.000 C 
BRANCH  17  18
ATOM     18  C   UNL     1       2.122   6.517  20.059  0.00  0.00    +0.000 A 
ATOM     19  C   UNL     1       2.491   7.029  18.818  0.00  0.00    +0.000 A 
ATOM     20  N   UNL     1       2.014   8.303  18.820  0.00  0.00    +0.000 N 
ATOM     21  C   UNL     1       2.014   9.378  17.962  0.00  0.00    +0.000 A 
ATOM     22  C   UNL     1       1.383  10.437  18.501  0.00  0.00    +0.000 A 
ATOM     23  S   UNL     1       0.756  10.111  20.130  0.00  0.00    +0.000 S 
ATOM     24  C   UNL     1       1.392   8.500  20.015  0.00  0.00    +0.000 A 
ATOM     25  N   UNL     1       1.411   7.456  20.798  0.00  0.00    +0.000 NA
ENDBRANCH  17  18
ENDBRANCH  15  17
ENDBRANCH   1  15
TORSDOF 5
ENDMDL
MODEL 4
REMARK VINA RESULT:      -7.1      0.943      1.536
REMARK  Name = 
REMARK  6 active torsions:
REMARK  status: ('A' for Active; 'I' for Inactive)
REMARK    1  A    between atoms: C_1  and  C_2
REMARK    2  A    between atoms: N_4  and  C_5
REMARK    3  A    between atoms: C_8  and  S_9
REMARK    4  A    between atoms: S_9  and  N_12
REMARK    5  A    between atoms: N_12  and  C_13
REMARK    6  A    between atoms: C_13  and  C_14
REMARK                            x       y       z     vdW  Elec       q    Type
REMARK                         _______ _______ _______ _____ _____    ______ ____
ROOT
ATOM      1  S   UNL     1       1.938   4.330  20.658  0.00  0.00    +0.000 S 
ATOM      2  O   UNL     1       0.586   4.070  20.209  0.00  0.00    +0.000 OA
ATOM      3  O   UNL     1       2.543   3.571  21.729  0.00  0.00    +0.000 OA
ENDROOT
BRANCH   1   7
ATOM      4  C   UNL     1       4.777   3.903  17.089  0.00  0.00    +0.000 A 
ATOM      5  C   UNL     1       5.261   4.202  18.365  0.00  0.00    +0.000 A 
ATOM      6  C   UNL     1       4.391   4.352  19.445  0.00  0.00    +0.000 A 
ATOM      7  C   UNL     1       3.017   4.209  19.250  0.00  0.00    +0.000 A 
ATOM      8  C   UNL     1       2.512   3.907  17.984  0.00  0.00    +0.000 A 
ATOM      9  C   UNL     1       3.394   3.773  16.902  0.00  0.00    +0.000 A 
BRANCH   4  13
ATOM     10  C   UNL     1       6.784   4.192  13.905  0.00  0.00    +0.000 C 
ATOM     11  C   UNL     1       5.965   4.717  15.051  0.00  0.00    +0.000 C 
ATOM     12  O   UNL     1       5.658   5.903  15.102  0.00  0.00    +0.000 OA
ATOM     13  N   UNL     1       5.625   3.736  15.972  0.00  0.00    +0.000 N 
ATOM     14  H   UNL     1       6.092   2.841  15.884  0.00  0.00    +0.000 HD
ENDBRANCH   4  13
ENDBRANCH   1   7
BRANCH   1  15
ATOM     15  N   UNL     1       2.071   5.959  21.071  0.00  0.00    +0.000 NA
ATOM     16  H   UNL     1       2.815   6.119  21.754  0.00  0.00    +0.000 HD
BRANCH  15  17
ATOM     17  C   UNL     1       2.199   6.878  19.930  0.00  0.00    +0.000 C 
BRANCH  17  18
ATOM     18  C   UNL     1       1.522   8.159  20.294  0.00  0.00    +0.000 A 
ATOM     19  C   UNL     1       1.049   8.566  21.538  0.00  0.00    +0.000 A 
ATOM     20  N   UNL     1       0.518   9.798  21.315  0.00  0.00    +0.000 N 
ATOM     21  C   UNL     1      -0.121  10.767  22.054  0.00  0.00    +0.000 A 
ATOM     22  C   UNL     1      -0.456  11.823  21.293  0.00  0.00    +0.000 A 
ATOM     23  S   UNL     1       0.029  11.634  19.595  0.00  0.00    +0.000 S 
ATOM     24  C   UNL     1       0.691  10.080  19.994  0.00  0.00    +0.000 A 
ATOM     25  N   UNL     1       1.303   9.138  19.330  0.00  0.00    +0.000 NA
ENDBRANCH  17  18
ENDBRANCH  15  17
ENDBRANCH   1  15
TORSDOF 5
ENDMDL
MODEL 5
REMARK VINA RESULT:      -7.0      3.136      8.513
REMARK  Name = 
REMARK  6 active torsions:
REMARK  status: ('A' for Active; 'I' for Inactive)
REMARK    1  A    between atoms: C_1  and  C_2
REMARK    2  A    between atoms: N_4  and  C_5
REMARK    3  A    between atoms: C_8  and  S_9
REMARK    4  A    between atoms: S_9  and  N_12
REMARK    5  A    between atoms: N_12  and  C_13
REMARK    6  A    between atoms: C_13  and  C_14
REMARK                            x       y       z     vdW  Elec       q    Type
REMARK                         _______ _______ _______ _____ _____    ______ ____
ROOT
ATOM      1  S   UNL     1       3.570   5.674  18.559  0.00  0.00    +0.000 S 
ATOM      2  O   UNL     1       3.914   5.202  19.885  0.00  0.00    +0.000 OA
ATOM      3  O   UNL     1       2.874   4.836  17.610  0.00  0.00    +0.000 OA
ENDROOT
BRANCH   1   7
ATOM      4  C   UNL     1       1.227   9.570  19.118  0.00  0.00    +0.000 A 
ATOM      5  C   UNL     1       1.318   8.628  20.146  0.00  0.00    +0.000 A 
ATOM      6  C   UNL     1       2.015   7.434  19.964  0.00  0.00    +0.000 A 
ATOM      7  C   UNL     1       2.625   7.170  18.738  0.00  0.00    +0.000 A 
ATOM      8  C   UNL     1       2.549   8.098  17.698  0.00  0.00    +0.000 A 
ATOM      9  C   UNL     1       1.833   9.289  17.885  0.00  0.00    +0.000 A 
BRANCH   4  13
ATOM     10  C   UNL     1      -1.196  12.464  19.098  0.00  0.00    +0.000 C 
ATOM     11  C   UNL     1      -0.794  11.023  18.947  0.00  0.00    +0.000 C 
ATOM     12  O   UNL     1      -1.610  10.188  18.571  0.00  0.00    +0.000 OA
ATOM     13  N   UNL     1       0.537  10.794  19.265  0.00  0.00    +0.000 N 
ATOM     14  H   UNL     1       1.038  11.547  19.721  0.00  0.00    +0.000 HD
ENDBRANCH   4  13
ENDBRANCH   1   7
BRANCH   1  15
ATOM     15  N   UNL     1       4.971   6.224  17.798  0.00  0.00    +0.000 NA
ATOM     16  H   UNL     1       5.306   7.100  18.205  0.00  0.00    +0.000 HD
BRANCH  15  17
ATOM     17  C   UNL     1       6.056   5.235  17.711  0.00  0.00    +0.000 C 
BRANCH  17  18
ATOM     18  C   UNL     1       6.268   4.911  16.268  0.00  0.00    +0.000 A 
ATOM     19  C   UNL     1       5.601   3.974  15.484  0.00  0.00    +0.000 A 
ATOM     20  N   UNL     1       6.184   4.078  14.259  0.00  0.00    +0.000 N 
ATOM     21  C   UNL     1       6.055   3.475  13.030  0.00  0.00    +0.000 A 
ATOM     22  C   UNL     1       6.931   3.977  12.142  0.00  0.00    +0.000 A 
ATOM     23  S   UNL     1       7.963   5.247  12.832  0.00  0.00    +0.000 S 
ATOM     24  C   UNL     1       7.140   5.044  14.347  0.00  0.00    +0.000 A 
ATOM     25  N   UNL     1       7.228   5.593  15.528  0.00  0.00    +0.000 NA
ENDBRANCH  17  18
ENDBRANCH  15  17
ENDBRANCH   1  15
TORSDOF 5
ENDMDL
MODEL 6
REMARK VINA RESULT:      -6.9      3.050      8.439
REMARK  Name = 
REMARK  6 active torsions:
REMARK  status: ('A' for Active; 'I' for Inactive)
REMARK    1  A    between atoms: C_1  and  C_2
REMARK    2  A    between atoms: N_4  and  C_5
REMARK    3  A    between atoms: C_8  and  S_9
REMARK    4  A    between atoms: S_9  and  N_12
REMARK    5  A    between atoms: N_12  and  C_13
REMARK    6  A    between atoms: C_13  and  C_14
REMARK                            x       y       z     vdW  Elec       q    Type
REMARK                         _______ _______ _______ _____ _____    ______ ____
ROOT
ATOM      1  S   UNL     1       3.555   5.511  18.649  0.00  0.00    +0.000 S 
ATOM      2  O   UNL     1       3.898   4.928  19.929  0.00  0.00    +0.000 OA
ATOM      3  O   UNL     1       2.827   4.768  17.645  0.00  0.00    +0.000 OA
ENDROOT
BRANCH   1   7
ATOM      4  C   UNL     1       1.133   9.337  19.339  0.00  0.00    +0.000 A 
ATOM      5  C   UNL     1       1.749   9.084  18.111  0.00  0.00    +0.000 A 
ATOM      6  C   UNL     1       2.503   7.927  17.912  0.00  0.00    +0.000 A 
ATOM      7  C   UNL     1       2.652   7.012  18.954  0.00  0.00    +0.000 A 
ATOM      8  C   UNL     1       2.044   7.244  20.189  0.00  0.00    +0.000 A 
ATOM      9  C   UNL     1       1.300   8.417  20.384  0.00  0.00    +0.000 A 
BRANCH   4  13
ATOM     10  C   UNL     1      -1.402  12.133  19.384  0.00  0.00    +0.000 C 
ATOM     11  C   UNL     1      -0.891  10.763  19.034  0.00  0.00    +0.000 C 
ATOM     12  O   UNL     1      -1.558  10.014  18.328  0.00  0.00    +0.000 OA
ATOM     13  N   UNL     1       0.356  10.492  19.579  0.00  0.00    +0.000 N 
ATOM     14  H   UNL     1       0.704  11.139  20.276  0.00  0.00    +0.000 HD
ENDBRANCH   4  13
ENDBRANCH   1   7
BRANCH   1  15
ATOM     15  N   UNL     1       4.962   6.082  17.916  0.00  0.00    +0.000 NA
ATOM     16  H   UNL     1       5.301   6.938  18.360  0.00  0.00    +0.000 HD
BRANCH  15  17
ATOM     17  C   UNL     1       6.041   5.090  17.793  0.00  0.00    +0.000 C 
BRANCH  17  18
ATOM     18  C   UNL     1       6.238   4.804  16.340  0.00  0.00    +0.000 A 
ATOM     19  C   UNL     1       5.572   3.878  15.542  0.00  0.00    +0.000 A 
ATOM     20  N   UNL     1       6.138   4.018  14.313  0.00  0.00    +0.000 N 
ATOM     21  C   UNL     1       6.001   3.444  13.070  0.00  0.00    +0.000 A 
ATOM     22  C   UNL     1       6.860   3.977  12.184  0.00  0.00    +0.000 A 
ATOM     23  S   UNL     1       7.887   5.242  12.893  0.00  0.00    +0.000 S 
ATOM     24  C   UNL     1       7.085   4.993  14.412  0.00  0.00    +0.000 A 
ATOM     25  N   UNL     1       7.181   5.514  15.604  0.00  0.00    +0.000 NA
ENDBRANCH  17  18
ENDBRANCH  15  17
ENDBRANCH   1  15
TORSDOF 5
ENDMDL
MODEL 7
REMARK VINA RESULT:      -6.9      2.165      2.667
REMARK  Name = 
REMARK  6 active torsions:
REMARK  status: ('A' for Active; 'I' for Inactive)
REMARK    1  A    between atoms: C_1  and  C_2
REMARK    2  A    between atoms: N_4  and  C_5
REMARK    3  A    between atoms: C_8  and  S_9
REMARK    4  A    between atoms: S_9  and  N_12
REMARK    5  A    between atoms: N_12  and  C_13
REMARK    6  A    between atoms: C_13  and  C_14
REMARK                            x       y       z     vdW  Elec       q    Type
REMARK                         _______ _______ _______ _____ _____    ______ ____
ROOT
ATOM      1  S   UNL     1       3.993   3.419  19.493  0.00  0.00    +0.000 S 
ATOM      2  O   UNL     1       2.741   2.920  18.963  0.00  0.00    +0.000 OA
ATOM      3  O   UNL     1       4.838   2.608  20.339  0.00  0.00    +0.000 OA
ENDROOT
BRANCH   1   7
ATOM      4  C   UNL     1       6.463   4.946  15.951  0.00  0.00    +0.000 A 
ATOM      5  C   UNL     1       5.162   4.467  15.772  0.00  0.00    +0.000 A 
ATOM      6  C   UNL     1       4.422   3.984  16.850  0.00  0.00    +0.000 A 
ATOM      7  C   UNL     1       4.987   3.970  18.126  0.00  0.00    +0.000 A 
ATOM      8  C   UNL     1       6.284   4.446  18.328  0.00  0.00    +0.000 A 
ATOM      9  C   UNL     1       7.026   4.916  17.235  0.00  0.00    +0.000 A 
BRANCH   4  13
ATOM     10  C   UNL     1       8.320   5.619  12.735  0.00  0.00    +0.000 C 
ATOM     11  C   UNL     1       7.299   4.934  13.600  0.00  0.00    +0.000 C 
ATOM     12  O   UNL     1       6.622   4.015  13.152  0.00  0.00    +0.000 OA
ATOM     13  N   UNL     1       7.243   5.451  14.887  0.00  0.00    +0.000 N 
ATOM     14  H   UNL     1       7.740   6.317  15.057  0.00  0.00    +0.000 HD
ENDBRANCH   4  13
ENDBRANCH   1   7
BRANCH   1  15
ATOM     15  N   UNL     1       3.698   4.857  20.324  0.00  0.00    +0.000 NA
ATOM     16  H   UNL     1       4.116   5.661  19.851  0.00  0.00    +0.000 HD
BRANCH  15  17
ATOM     17  C   UNL     1       2.283   5.109  20.639  0.00  0.00    +0.000 C 
BRANCH  17  18
ATOM     18  C   UNL     1       1.972   6.519  20.255  0.00  0.00    +0.000 A 
ATOM     19  C   UNL     1       1.297   7.488  20.992  0.00  0.00    +0.000 A 
ATOM     20  N   UNL     1       1.281   8.582  20.183  0.00  0.00    +0.000 N 
ATOM     21  C   UNL     1       0.791   9.866  20.237  0.00  0.00    +0.000 A 
ATOM     22  C   UNL     1       1.058  10.542  19.105  0.00  0.00    +0.000 A 
ATOM     23  S   UNL     1       1.950   9.571  17.915  0.00  0.00    +0.000 S 
ATOM     24  C   UNL     1       1.929   8.243  19.033  0.00  0.00    +0.000 A 
ATOM     25  N   UNL     1       2.380   7.020  19.024  0.00  0.00    +0.000 NA
ENDBRANCH  17  18
ENDBRANCH  15  17
ENDBRANCH   1  15
TORSDOF 5
ENDMDL
MODEL 8
REMARK VINA RESULT:      -6.9      3.146      6.372
REMARK  Name = 
REMARK  6 active torsions:
REMARK  status: ('A' for Active; 'I' for Inactive)
REMARK    1  A    between atoms: C_1  and  C_2
REMARK    2  A    between atoms: N_4  and  C_5
REMARK    3  A    between atoms: C_8  and  S_9
REMARK    4  A    between atoms: S_9  and  N_12
REMARK    5  A    between atoms: N_12  and  C_13
REMARK    6  A    between atoms: C_13  and  C_14
REMARK                            x       y       z     vdW  Elec       q    Type
REMARK                         _______ _______ _______ _____ _____    ______ ____
ROOT
ATOM      1  S   UNL     1       1.439   2.908  19.677  0.00  0.00    +0.000 S 
ATOM      2  O   UNL     1       1.657   2.638  21.083  0.00  0.00    +0.000 OA
ATOM      3  O   UNL     1       0.178   2.620  19.032  0.00  0.00    +0.000 OA
ENDROOT
BRANCH   1   7
ATOM      4  C   UNL     1       2.251   7.340  18.851  0.00  0.00    +0.000 A 
ATOM      5  C   UNL     1       2.260   6.399  17.818  0.00  0.00    +0.000 A 
ATOM      6  C   UNL     1       2.032   5.048  18.077  0.00  0.00    +0.000 A 
ATOM      7  C   UNL     1       1.801   4.625  19.386  0.00  0.00    +0.000 A 
ATOM      8  C   UNL     1       1.785   5.548  20.433  0.00  0.00    +0.000 A 
ATOM      9  C   UNL     1       2.030   6.902  20.165  0.00  0.00    +0.000 A 
BRANCH   4  13
ATOM     10  C   UNL     1       2.103  10.995  17.922  0.00  0.00    +0.000 C 
ATOM     11  C   UNL     1       1.527   9.630  18.176  0.00  0.00    +0.000 C 
ATOM     12  O   UNL     1       0.336   9.413  17.977  0.00  0.00    +0.000 OA
ATOM     13  N   UNL     1       2.469   8.718  18.629  0.00  0.00    +0.000 N 
ATOM     14  H   UNL     1       3.371   9.087  18.907  0.00  0.00    +0.000 HD
ENDBRANCH   4  13
ENDBRANCH   1   7
BRANCH   1  15
ATOM     15  N   UNL     1       2.640   2.133  18.781  0.00  0.00    +0.000 NA
ATOM     16  H   UNL     1       2.681   2.480  17.821  0.00  0.00    +0.000 HD
BRANCH  15  17
ATOM     17  C   UNL     1       3.974   2.140  19.401  0.00  0.00    +0.000 C 
BRANCH  17  18
ATOM     18  C   UNL     1       4.792   3.186  18.717  0.00  0.00    +0.000 A 
ATOM     19  C   UNL     1       4.838   3.501  17.362  0.00  0.00    +0.000 A 
ATOM     20  N   UNL     1       5.743   4.513  17.278  0.00  0.00    +0.000 N 
ATOM     21  C   UNL     1       6.292   5.292  16.285  0.00  0.00    +0.000 A 
ATOM     22  C   UNL     1       7.184   6.166  16.784  0.00  0.00    +0.000 A 
ATOM     23  S   UNL     1       7.366   6.039  18.546  0.00  0.00    +0.000 S 
ATOM     24  C   UNL     1       6.186   4.766  18.541  0.00  0.00    +0.000 A 
ATOM     25  N   UNL     1       5.639   4.009  19.452  0.00  0.00    +0.000 NA
ENDBRANCH  17  18
ENDBRANCH  15  17
ENDBRANCH   1  15
TORSDOF 5
ENDMDL
MODEL 9
REMARK VINA RESULT:      -6.8      5.484      7.239
REMARK  Name = 
REMARK  6 active torsions:
REMARK  status: ('A' for Active; 'I' for Inactive)
REMARK    1  A    between atoms: C_1  and  C_2
REMARK    2  A    between atoms: N_4  and  C_5
REMARK    3  A    between atoms: C_8  and  S_9
REMARK    4  A    between atoms: S_9  and  N_12
REMARK    5  A    between atoms: N_12  and  C_13
REMARK    6  A    between atoms: C_13  and  C_14
REMARK                            x       y       z     vdW  Elec       q    Type
REMARK                         _______ _______ _______ _____ _____    ______ ____
ROOT
ATOM      1  S   UNL     1       6.330   6.495  16.281  0.00  0.00    +0.000 S 
ATOM      2  O   UNL     1       7.502   5.677  16.049  0.00  0.00    +0.000 OA
ATOM      3  O   UNL     1       5.408   6.822  15.217  0.00  0.00    +0.000 OA
ENDROOT
BRANCH   1   7
ATOM      4  C   UNL     1       3.798   4.526  19.550  0.00  0.00    +0.000 A 
ATOM      5  C   UNL     1       3.354   5.672  18.885  0.00  0.00    +0.000 A 
ATOM      6  C   UNL     1       4.138   6.280  17.905  0.00  0.00    +0.000 A 
ATOM      7  C   UNL     1       5.386   5.744  17.587  0.00  0.00    +0.000 A 
ATOM      8  C   UNL     1       5.848   4.598  18.237  0.00  0.00    +0.000 A 
ATOM      9  C   UNL     1       5.059   4.003  19.232  0.00  0.00    +0.000 A 
BRANCH   4  13
ATOM     10  C   UNL     1       1.309   2.541  21.578  0.00  0.00    +0.000 C 
ATOM     11  C   UNL     1       2.018   2.955  20.318  0.00  0.00    +0.000 C 
ATOM     12  O   UNL     1       1.681   2.490  19.235  0.00  0.00    +0.000 OA
ATOM     13  N   UNL     1       3.031   3.876  20.543  0.00  0.00    +0.000 N 
ATOM     14  H   UNL     1       3.303   4.036  21.506  0.00  0.00    +0.000 HD
ENDBRANCH   4  13
ENDBRANCH   1   7
BRANCH   1  15
ATOM     15  N   UNL     1       6.813   7.952  16.980  0.00  0.00    +0.000 NA
ATOM     16  H   UNL     1       6.024   8.456  17.392  0.00  0.00    +0.000 HD
BRANCH  15  17
ATOM     17  C   UNL     1       7.923   7.839  17.939  0.00  0.00    +0.000 C 
BRANCH  17  18
ATOM     18  C   UNL     1       8.423   9.218  18.226  0.00  0.00    +0.000 A 
ATOM     19  C   UNL     1       8.239  10.378  17.480  0.00  0.00    +0.000 A 
ATOM     20  N   UNL     1       8.903  11.340  18.176  0.00  0.00    +0.000 N 
ATOM     21  C   UNL     1       9.158  12.685  18.040  0.00  0.00    +0.000 A 
ATOM     22  C   UNL     1       9.909  13.147  19.055  0.00  0.00    +0.000 A 
ATOM     23  S   UNL     1      10.327  11.888  20.235  0.00  0.00    +0.000 S 
ATOM     24  C   UNL     1       9.436  10.745  19.279  0.00  0.00    +0.000 A 
ATOM     25  N   UNL     1       9.169   9.471  19.372  0.00  0.00    +0.000 NA
ENDBRANCH  17  18
ENDBRANCH  15  17
ENDBRANCH   1  15
TORSDOF 5
ENDMDL
