MODEL 1
REMARK VINA RESULT:      -7.2      0.000      0.000
REMARK  Name = 
REMARK  6 active torsions:
REMARK  status: ('A' for Active; 'I' for Inactive)
REMARK    1  A    between atoms: C_1  and  N_2
REMARK    2  A    between atoms: N_5  and  C_6
REMARK    3  A    between atoms: C_6  and  C_7
REMARK    4  A    between atoms: C_7  and  C_8
REMARK    5  A    between atoms: C_8  and  N_9
REMARK    6  A    between atoms: C_12  and  C_13
REMARK                            x       y       z     vdW  Elec       q    Type
REMARK                         _______ _______ _______ _____ _____    ______ ____
ROOT
ATOM      1  N   UNL     1      -3.190  11.839  18.517  0.00  0.00    +0.000 NA
ATOM      2  C   UNL     1      -2.235  11.571  19.345  0.00  0.00    +0.000 A 
ATOM      3  C   UNL     1      -1.139  10.601  19.074  0.00  0.00    +0.000 A 
ATOM      4  C   UNL     1      -0.130  10.304  19.899  0.00  0.00    +0.000 A 
ATOM      5  S   UNL     1       0.121  10.936  21.467  0.00  0.00    +0.000 S 
ATOM      6  C   UNL     1      -1.194  12.121  21.596  0.00  0.00    +0.000 A 
ATOM      7  C   UNL     1      -1.186  12.915  22.757  0.00  0.00    +0.000 A 
ATOM      8  C   UNL     1      -2.163  13.888  22.970  0.00  0.00    +0.000 A 
ATOM      9  C   UNL     1      -3.174  14.058  22.033  0.00  0.00    +0.000 A 
ATOM     10 CL   UNL     1      -4.379  15.258  22.292  0.00  0.00    +0.000 Cl
ATOM     11  C   UNL     1      -3.205  13.275  20.883  0.00  0.00    +0.000 A 
ATOM     12  C   UNL     1      -2.202  12.315  20.644  0.00  0.00    +0.000 A 
ENDROOT
BRANCH   4  13
ATOM     13  C   UNL     1       0.882   9.343  19.436  0.00  0.00    +0.000 A 
ATOM     14  C   UNL     1       1.377   9.422  18.124  0.00  0.00    +0.000 A 
ATOM     15  C   UNL     1       2.298   8.479  17.663  0.00  0.00    +0.000 A 
ATOM     16  C   UNL     1       2.724   7.457  18.510  0.00  0.00    +0.000 A 
ATOM     17 CL   UNL     1       3.846   6.285  17.936  0.00  0.00    +0.000 Cl
ATOM     18  C   UNL     1       2.239   7.370  19.813  0.00  0.00    +0.000 A 
ATOM     19  C   UNL     1       1.316   8.311  20.276  0.00  0.00    +0.000 A 
ENDBRANCH   4  13
BRANCH   1  20
ATOM     20  C   UNL     1      -3.233  11.150  17.226  0.00  0.00    +0.000 C 
BRANCH  20  21
ATOM     21  C   UNL     1      -4.635  11.269  16.641  0.00  0.00    +0.000 C 
BRANCH  21  22
ATOM     22  C   UNL     1      -5.469  12.325  17.380  0.00  0.00    +0.000 C 
BRANCH  22  27
ATOM     23  C   UNL     1      -7.046  12.732  21.943  0.00  0.00    +0.000 C 
ATOM     24  N   UNL     1      -7.395  12.323  20.589  0.00  0.00    +0.000 NA
ATOM     25  C   UNL     1      -6.542  11.213  20.127  0.00  0.00    +0.000 C 
ATOM     26  C   UNL     1      -6.890  10.790  18.681  0.00  0.00    +0.000 C 
ATOM     27  N   UNL     1      -6.842  11.889  17.689  0.00  0.00    +0.000 NA
ATOM     28  C   UNL     1      -7.665  13.006  18.206  0.00  0.00    +0.000 C 
ATOM     29  C   UNL     1      -7.310  13.451  19.644  0.00  0.00    +0.000 C 
ENDBRANCH  22  27
ENDBRANCH  21  22
ENDBRANCH  20  21
ENDBRANCH   1  20
TORSDOF 5
ENDMDL
MODEL 2
REMARK VINA RESULT:      -6.8     10.010     13.221
REMARK  Name = 
REMARK  6 active torsions:
REMARK  status: ('A' for Active; 'I' for Inactive)
REMARK    1  A    between atoms: C_1  and  N_2
REMARK    2  A    between atoms: N_5  and  C_6
REMARK    3  A    between atoms: C_6  and  C_7
REMARK    4  A    between atoms: C_7  and  C_8
REMARK    5  A    between atoms: C_8  and  N_9
REMARK    6  A    between atoms: C_12  and  C_13
REMARK                            x       y       z     vdW  Elec       q    Type
REMARK                         _______ _______ _______ _____ _____    ______ ____
ROOT
ATOM      1  N   UNL     1       7.596   6.907  16.696  0.00  0.00    +0.000 NA
ATOM      2  C   UNL     1       6.796   5.901  16.566  0.00  0.00    +0.000 A 
ATOM      3  C   UNL     1       5.908   5.392  17.647  0.00  0.00    +0.000 A 
ATOM      4  C   UNL     1       5.061   4.362  17.549  0.00  0.00    +0.000 A 
ATOM      5  S   UNL     1       4.823   3.369  16.179  0.00  0.00    +0.000 S 
ATOM      6  C   UNL     1       5.865   4.153  14.976  0.00  0.00    +0.000 A 
ATOM      7  C   UNL     1       5.793   3.627  13.673  0.00  0.00    +0.000 A 
ATOM      8  C   UNL     1       6.558   4.163  12.637  0.00  0.00    +0.000 A 
ATOM      9  C   UNL     1       7.424   5.217  12.901  0.00  0.00    +0.000 A 
ATOM     10 CL   UNL     1       8.368   5.882  11.627  0.00  0.00    +0.000 Cl
ATOM     11  C   UNL     1       7.517   5.744  14.186  0.00  0.00    +0.000 A 
ATOM     12  C   UNL     1       6.721   5.231  15.230  0.00  0.00    +0.000 A 
ENDROOT
BRANCH   4  13
ATOM     13  C   UNL     1       4.237   4.031  18.721  0.00  0.00    +0.000 A 
ATOM     14  C   UNL     1       4.473   2.844  19.434  0.00  0.00    +0.000 A 
ATOM     15  C   UNL     1       3.658   2.500  20.514  0.00  0.00    +0.000 A 
ATOM     16  C   UNL     1       2.606   3.338  20.882  0.00  0.00    +0.000 A 
ATOM     17 CL   UNL     1       1.591   2.905  22.203  0.00  0.00    +0.000 Cl
ATOM     18  C   UNL     1       2.364   4.517  20.180  0.00  0.00    +0.000 A 
ATOM     19  C   UNL     1       3.176   4.863  19.099  0.00  0.00    +0.000 A 
ENDBRANCH   4  13
BRANCH   1  20
ATOM     20  C   UNL     1       7.669   7.603  17.983  0.00  0.00    +0.000 C 
BRANCH  20  21
ATOM     21  C   UNL     1       8.104   9.044  17.749  0.00  0.00    +0.000 C 
BRANCH  21  22
ATOM     22  C   UNL     1       9.051   9.536  18.854  0.00  0.00    +0.000 C 
BRANCH  22  27
ATOM     23  C   UNL     1      12.306  13.081  18.303  0.00  0.00    +0.000 C 
ATOM     24  N   UNL     1      10.984  12.739  18.812  0.00  0.00    +0.000 NA
ATOM     25  C   UNL     1      11.065  11.730  19.882  0.00  0.00    +0.000 C 
ATOM     26  C   UNL     1       9.664  11.344  20.409  0.00  0.00    +0.000 C 
ATOM     27  N   UNL     1       8.721  10.877  19.367  0.00  0.00    +0.000 NA
ATOM     28  C   UNL     1       8.701  11.886  18.285  0.00  0.00    +0.000 C 
ATOM     29  C   UNL     1      10.096  12.263  17.735  0.00  0.00    +0.000 C 
ENDBRANCH  22  27
ENDBRANCH  21  22
ENDBRANCH  20  21
ENDBRANCH   1  20
TORSDOF 5
ENDMDL
MODEL 3
REMARK VINA RESULT:      -6.8      4.680      6.452
REMARK  Name = 
REMARK  6 active torsions:
REMARK  status: ('A' for Active; 'I' for Inactive)
REMARK    1  A    between atoms: C_1  and  N_2
REMARK    2  A    between atoms: N_5  and  C_6
REMARK    3  A    between atoms: C_6  and  C_7
REMARK    4  A    between atoms: C_7  and  C_8
REMARK    5  A    between atoms: C_8  and  N_9
REMARK    6  A    between atoms: C_12  and  C_13
REMARK                            x       y       z     vdW  Elec       q    Type
REMARK                         _______ _______ _______ _____ _____    ______ ____
ROOT
ATOM      1  N   UNL     1       1.306  11.818  18.987  0.00  0.00    +0.000 NA
ATOM      2  C   UNL     1       1.242  10.623  19.474  0.00  0.00    +0.000 A 
ATOM      3  C   UNL     1       1.928   9.441  18.885  0.00  0.00    +0.000 A 
ATOM      4  C   UNL     1       1.894   8.192  19.364  0.00  0.00    +0.000 A 
ATOM      5  S   UNL     1       1.031   7.654  20.737  0.00  0.00    +0.000 S 
ATOM      6  C   UNL     1       0.358   9.172  21.362  0.00  0.00    +0.000 A 
ATOM      7  C   UNL     1      -0.322   9.077  22.590  0.00  0.00    +0.000 A 
ATOM      8  C   UNL     1      -0.889  10.203  23.189  0.00  0.00    +0.000 A 
ATOM      9  C   UNL     1      -0.801  11.433  22.550  0.00  0.00    +0.000 A 
ATOM     10 CL   UNL     1      -1.497  12.824  23.286  0.00  0.00    +0.000 Cl
ATOM     11  C   UNL     1      -0.141  11.546  21.331  0.00  0.00    +0.000 A 
ATOM     12  C   UNL     1       0.464  10.420  20.737  0.00  0.00    +0.000 A 
ENDROOT
BRANCH   4  13
ATOM     13  C   UNL     1       2.670   7.161  18.661  0.00  0.00    +0.000 A 
ATOM     14  C   UNL     1       3.660   7.535  17.737  0.00  0.00    +0.000 A 
ATOM     15  C   UNL     1       4.363   6.558  17.028  0.00  0.00    +0.000 A 
ATOM     16  C   UNL     1       4.077   5.210  17.239  0.00  0.00    +0.000 A 
ATOM     17 CL   UNL     1       4.931   4.007  16.352  0.00  0.00    +0.000 Cl
ATOM     18  C   UNL     1       3.097   4.830  18.153  0.00  0.00    +0.000 A 
ATOM     19  C   UNL     1       2.391   5.804  18.862  0.00  0.00    +0.000 A 
ENDBRANCH   4  13
BRANCH   1  20
ATOM     20  C   UNL     1       2.083  12.054  17.768  0.00  0.00    +0.000 C 
BRANCH  20  21
ATOM     21  C   UNL     1       2.894  13.334  17.931  0.00  0.00    +0.000 C 
BRANCH  21  22
ATOM     22  C   UNL     1       2.102  14.414  18.683  0.00  0.00    +0.000 C 
BRANCH  22  27
ATOM     23  C   UNL     1       0.977  18.626  16.570  0.00  0.00    +0.000 C 
ATOM     24  N   UNL     1       1.864  17.961  17.516  0.00  0.00    +0.000 NA
ATOM     25  C   UNL     1       2.668  16.917  16.854  0.00  0.00    +0.000 C 
ATOM     26  C   UNL     1       3.594  16.191  17.857  0.00  0.00    +0.000 C 
ATOM     27  N   UNL     1       2.898  15.605  19.026  0.00  0.00    +0.000 NA
ATOM     28  C   UNL     1       2.061  16.663  19.636  0.00  0.00    +0.000 C 
ATOM     29  C   UNL     1       1.115  17.381  18.645  0.00  0.00    +0.000 C 
ENDBRANCH  22  27
ENDBRANCH  21  22
ENDBRANCH  20  21
ENDBRANCH   1  20
TORSDOF 5
ENDMDL
MODEL 4
REMARK VINA RESULT:      -6.7     10.068     13.085
REMARK  Name = 
REMARK  6 active torsions:
REMARK  status: ('A' for Active; 'I' for Inactive)
REMARK    1  A    between atoms: C_1  and  N_2
REMARK    2  A    between atoms: N_5  and  C_6
REMARK    3  A    between atoms: C_6  and  C_7
REMARK    4  A    between atoms: C_7  and  C_8
REMARK    5  A    between atoms: C_8  and  N_9
REMARK    6  A    between atoms: C_12  and  C_13
REMARK                            x       y       z     vdW  Elec       q    Type
REMARK                         _______ _______ _______ _____ _____    ______ ____
ROOT
ATOM      1  N   UNL     1       7.689   6.928  16.722  0.00  0.00    +0.000 NA
ATOM      2  C   UNL     1       6.880   5.928  16.597  0.00  0.00    +0.000 A 
ATOM      3  C   UNL     1       5.996   5.425  17.683  0.00  0.00    +0.000 A 
ATOM      4  C   UNL     1       5.140   4.401  17.590  0.00  0.00    +0.000 A 
ATOM      5  S   UNL     1       4.885   3.411  16.221  0.00  0.00    +0.000 S 
ATOM      6  C   UNL     1       5.925   4.188  15.012  0.00  0.00    +0.000 A 
ATOM      7  C   UNL     1       5.840   3.665  13.709  0.00  0.00    +0.000 A 
ATOM      8  C   UNL     1       6.602   4.196  12.668  0.00  0.00    +0.000 A 
ATOM      9  C   UNL     1       7.478   5.242  12.927  0.00  0.00    +0.000 A 
ATOM     10 CL   UNL     1       8.418   5.901  11.647  0.00  0.00    +0.000 Cl
ATOM     11  C   UNL     1       7.584   5.767  14.212  0.00  0.00    +0.000 A 
ATOM     12  C   UNL     1       6.791   5.260  15.260  0.00  0.00    +0.000 A 
ENDROOT
BRANCH   4  13
ATOM     13  C   UNL     1       4.321   4.075  18.767  0.00  0.00    +0.000 A 
ATOM     14  C   UNL     1       4.282   2.758  19.253  0.00  0.00    +0.000 A 
ATOM     15  C   UNL     1       3.463   2.434  20.337  0.00  0.00    +0.000 A 
ATOM     16  C   UNL     1       2.684   3.423  20.935  0.00  0.00    +0.000 A 
ATOM     17 CL   UNL     1       1.663   3.019  22.261  0.00  0.00    +0.000 Cl
ATOM     18  C   UNL     1       2.717   4.732  20.461  0.00  0.00    +0.000 A 
ATOM     19  C   UNL     1       3.532   5.059  19.375  0.00  0.00    +0.000 A 
ENDBRANCH   4  13
BRANCH   1  20
ATOM     20  C   UNL     1       7.776   7.622  18.009  0.00  0.00    +0.000 C 
BRANCH  20  21
ATOM     21  C   UNL     1       7.875   9.122  17.763  0.00  0.00    +0.000 C 
BRANCH  21  22
ATOM     22  C   UNL     1       8.894   9.783  18.703  0.00  0.00    +0.000 C 
BRANCH  22  27
ATOM     23  C   UNL     1       9.912  13.782  21.240  0.00  0.00    +0.000 C 
ATOM     24  N   UNL     1      10.093  13.094  19.968  0.00  0.00    +0.000 NA
ATOM     25  C   UNL     1       8.803  12.878  19.288  0.00  0.00    +0.000 C 
ATOM     26  C   UNL     1       8.984  12.126  17.949  0.00  0.00    +0.000 C 
ATOM     27  N   UNL     1       9.701  10.835  18.060  0.00  0.00    +0.000 NA
ATOM     28  C   UNL     1      10.965  11.076  18.791  0.00  0.00    +0.000 C 
ATOM     29  C   UNL     1      10.793  11.809  20.143  0.00  0.00    +0.000 C 
ENDBRANCH  22  27
ENDBRANCH  21  22
ENDBRANCH  20  21
ENDBRANCH   1  20
TORSDOF 5
ENDMDL
MODEL 5
REMARK VINA RESULT:      -6.6      1.587      6.139
REMARK  Name = 
REMARK  6 active torsions:
REMARK  status: ('A' for Active; 'I' for Inactive)
REMARK    1  A    between atoms: C_1  and  N_2
REMARK    2  A    between atoms: N_5  and  C_6
REMARK    3  A    between atoms: C_6  and  C_7
REMARK    4  A    between atoms: C_7  and  C_8
REMARK    5  A    between atoms: C_8  and  N_9
REMARK    6  A    between atoms: C_12  and  C_13
REMARK                            x       y       z     vdW  Elec       q    Type
REMARK                         _______ _______ _______ _____ _____    ______ ____
ROOT
ATOM      1  N   UNL     1      -0.981  11.130  18.416  0.00  0.00    +0.000 NA
ATOM      2  C   UNL     1      -1.004  11.189  19.707  0.00  0.00    +0.000 A 
ATOM      3  C   UNL     1      -1.886  12.098  20.488  0.00  0.00    +0.000 A 
ATOM      4  C   UNL     1      -1.945  12.182  21.822  0.00  0.00    +0.000 A 
ATOM      5  S   UNL     1      -1.002  11.297  22.938  0.00  0.00    +0.000 S 
ATOM      6  C   UNL     1      -0.089  10.216  21.867  0.00  0.00    +0.000 A 
ATOM      7  C   UNL     1       0.709   9.254  22.511  0.00  0.00    +0.000 A 
ATOM      8  C   UNL     1       1.469   8.341  21.778  0.00  0.00    +0.000 A 
ATOM      9  C   UNL     1       1.455   8.400  20.390  0.00  0.00    +0.000 A 
ATOM     10 CL   UNL     1       2.388   7.275  19.483  0.00  0.00    +0.000 Cl
ATOM     11  C   UNL     1       0.679   9.351  19.735  0.00  0.00    +0.000 A 
ATOM     12  C   UNL     1      -0.118  10.253  20.468  0.00  0.00    +0.000 A 
ENDROOT
BRANCH   4  13
ATOM     13  C   UNL     1      -2.912  13.118  22.413  0.00  0.00    +0.000 A 
ATOM     14  C   UNL     1      -3.753  12.694  23.456  0.00  0.00    +0.000 A 
ATOM     15  C   UNL     1      -4.710  13.564  23.983  0.00  0.00    +0.000 A 
ATOM     16  C   UNL     1      -4.829  14.855  23.470  0.00  0.00    +0.000 A 
ATOM     17 CL   UNL     1      -6.020  15.920  24.110  0.00  0.00    +0.000 Cl
ATOM     18  C   UNL     1      -4.000  15.284  22.437  0.00  0.00    +0.000 A 
ATOM     19  C   UNL     1      -3.044  14.416  21.906  0.00  0.00    +0.000 A 
ENDBRANCH   4  13
BRANCH   1  20
ATOM     20  C   UNL     1      -1.858  12.012  17.643  0.00  0.00    +0.000 C 
BRANCH  20  21
ATOM     21  C   UNL     1      -2.975  11.185  17.017  0.00  0.00    +0.000 C 
BRANCH  21  22
ATOM     22  C   UNL     1      -4.148  10.992  17.988  0.00  0.00    +0.000 C 
BRANCH  22  27
ATOM     23  C   UNL     1      -7.874  10.820  21.080  0.00  0.00    +0.000 C 
ATOM     24  N   UNL     1      -7.219  11.600  20.038  0.00  0.00    +0.000 NA
ATOM     25  C   UNL     1      -7.203  10.874  18.755  0.00  0.00    +0.000 C 
ATOM     26  C   UNL     1      -6.487  11.685  17.650  0.00  0.00    +0.000 C 
ATOM     27  N   UNL     1      -5.109  12.108  17.991  0.00  0.00    +0.000 NA
ATOM     28  C   UNL     1      -5.152  12.787  19.305  0.00  0.00    +0.000 C 
ATOM     29  C   UNL     1      -5.847  11.975  20.423  0.00  0.00    +0.000 C 
ENDBRANCH  22  27
ENDBRANCH  21  22
ENDBRANCH  20  21
ENDBRANCH   1  20
TORSDOF 5
ENDMDL
MODEL 6
REMARK VINA RESULT:      -6.5      3.526      8.690
REMARK  Name = 
REMARK  6 active torsions:
REMARK  status: ('A' for Active; 'I' for Inactive)
REMARK    1  A    between atoms: C_1  and  N_2
REMARK    2  A    between atoms: N_5  and  C_6
REMARK    3  A    between atoms: C_6  and  C_7
REMARK    4  A    between atoms: C_7  and  C_8
REMARK    5  A    between atoms: C_8  and  N_9
REMARK    6  A    between atoms: C_12  and  C_13
REMARK                            x       y       z     vdW  Elec       q    Type
REMARK                         _______ _______ _______ _____ _____    ______ ____
ROOT
ATOM      1  N   UNL     1       0.113   9.981  18.182  0.00  0.00    +0.000 NA
ATOM      2  C   UNL     1      -0.907  10.669  18.577  0.00  0.00    +0.000 A 
ATOM      3  C   UNL     1      -0.966  11.416  19.862  0.00  0.00    +0.000 A 
ATOM      4  C   UNL     1      -1.997  12.146  20.301  0.00  0.00    +0.000 A 
ATOM      5  S   UNL     1      -3.497  12.363  19.512  0.00  0.00    +0.000 S 
ATOM      6  C   UNL     1      -3.232  11.502  17.984  0.00  0.00    +0.000 A 
ATOM      7  C   UNL     1      -4.270  11.603  17.040  0.00  0.00    +0.000 A 
ATOM      8  C   UNL     1      -4.177  10.976  15.797  0.00  0.00    +0.000 A 
ATOM      9  C   UNL     1      -3.052  10.219  15.496  0.00  0.00    +0.000 A 
ATOM     10 CL   UNL     1      -2.932   9.446  13.964  0.00  0.00    +0.000 Cl
ATOM     11  C   UNL     1      -2.018  10.099  16.420  0.00  0.00    +0.000 A 
ATOM     12  C   UNL     1      -2.090  10.758  17.664  0.00  0.00    +0.000 A 
ENDROOT
BRANCH   4  13
ATOM     13  C   UNL     1      -1.852  12.845  21.586  0.00  0.00    +0.000 A 
ATOM     14  C   UNL     1      -2.867  12.755  22.554  0.00  0.00    +0.000 A 
ATOM     15  C   UNL     1      -2.757  13.462  23.754  0.00  0.00    +0.000 A 
ATOM     16  C   UNL     1      -1.637  14.258  23.988  0.00  0.00    +0.000 A 
ATOM     17 CL   UNL     1      -1.511  15.142  25.459  0.00  0.00    +0.000 Cl
ATOM     18  C   UNL     1      -0.626  14.354  23.034  0.00  0.00    +0.000 A 
ATOM     19  C   UNL     1      -0.734  13.651  21.832  0.00  0.00    +0.000 A 
ENDBRANCH   4  13
BRANCH   1  20
ATOM     20  C   UNL     1       1.298   9.900  19.039  0.00  0.00    +0.000 C 
BRANCH  20  21
ATOM     21  C   UNL     1       1.405   8.493  19.614  0.00  0.00    +0.000 C 
BRANCH  21  22
ATOM     22  C   UNL     1       2.221   7.568  18.699  0.00  0.00    +0.000 C 
BRANCH  22  27
ATOM     23  C   UNL     1       2.308   2.884  17.467  0.00  0.00    +0.000 C 
ATOM     24  N   UNL     1       2.873   3.901  18.345  0.00  0.00    +0.000 NA
ATOM     25  C   UNL     1       1.842   4.484  19.222  0.00  0.00    +0.000 C 
ATOM     26  C   UNL     1       2.429   5.581  20.140  0.00  0.00    +0.000 C 
ATOM     27  N   UNL     1       3.136   6.669  19.425  0.00  0.00    +0.000 NA
ATOM     28  C   UNL     1       4.126   6.050  18.516  0.00  0.00    +0.000 C 
ATOM     29  C   UNL     1       3.545   4.966  17.579  0.00  0.00    +0.000 C 
ENDBRANCH  22  27
ENDBRANCH  21  22
ENDBRANCH  20  21
ENDBRANCH   1  20
TORSDOF 5
ENDMDL
MODEL 7
REMARK VINA RESULT:      -6.5      3.491      8.681
REMARK  Name = 
REMARK  6 active torsions:
REMARK  status: ('A' for Active; 'I' for Inactive)
REMARK    1  A    between atoms: C_1  and  N_2
REMARK    2  A    between atoms: N_5  and  C_6
REMARK    3  A    between atoms: C_6  and  C_7
REMARK    4  A    between atoms: C_7  and  C_8
REMARK    5  A    between atoms: C_8  and  N_9
REMARK    6  A    between atoms: C_12  and  C_13
REMARK                            x       y       z     vdW  Elec       q    Type
REMARK                         _______ _______ _______ _____ _____    ______ ____
ROOT
ATOM      1  N   UNL     1      -0.167   9.955  18.284  0.00  0.00    +0.000 NA
ATOM      2  C   UNL     1      -1.197  10.652  18.633  0.00  0.00    +0.000 A 
ATOM      3  C   UNL     1      -1.321  11.372  19.929  0.00  0.00    +0.000 A 
ATOM      4  C   UNL     1      -2.365  12.110  20.323  0.00  0.00    +0.000 A 
ATOM      5  S   UNL     1      -3.811  12.371  19.450  0.00  0.00    +0.000 S 
ATOM      6  C   UNL     1      -3.468  11.540  17.921  0.00  0.00    +0.000 A 
ATOM      7  C   UNL     1      -4.445  11.680  16.919  0.00  0.00    +0.000 A 
ATOM      8  C   UNL     1      -4.287  11.080  15.669  0.00  0.00    +0.000 A 
ATOM      9  C   UNL     1      -3.159  10.310  15.419  0.00  0.00    +0.000 A 
ATOM     10 CL   UNL     1      -2.959   9.570  13.879  0.00  0.00    +0.000 Cl
ATOM     11  C   UNL     1      -2.185  10.151  16.401  0.00  0.00    +0.000 A 
ATOM     12  C   UNL     1      -2.321  10.783  17.652  0.00  0.00    +0.000 A 
ENDROOT
BRANCH   4  13
ATOM     13  C   UNL     1      -2.287  12.777  21.630  0.00  0.00    +0.000 A 
ATOM     14  C   UNL     1      -3.460  13.044  22.354  0.00  0.00    +0.000 A 
ATOM     15  C   UNL     1      -3.394  13.726  23.572  0.00  0.00    +0.000 A 
ATOM     16  C   UNL     1      -2.158  14.143  24.065  0.00  0.00    +0.000 A 
ATOM     17 CL   UNL     1      -2.080  14.998  25.556  0.00  0.00    +0.000 Cl
ATOM     18  C   UNL     1      -0.989  13.883  23.354  0.00  0.00    +0.000 A 
ATOM     19  C   UNL     1      -1.052  13.203  22.136  0.00  0.00    +0.000 A 
ENDBRANCH   4  13
BRANCH   1  20
ATOM     20  C   UNL     1       0.962   9.833  19.209  0.00  0.00    +0.000 C 
BRANCH  20  21
ATOM     21  C   UNL     1       2.091   9.073  18.524  0.00  0.00    +0.000 C 
BRANCH  21  22
ATOM     22  C   UNL     1       2.205   7.635  19.050  0.00  0.00    +0.000 C 
BRANCH  22  27
ATOM     23  C   UNL     1       3.131   3.103  20.492  0.00  0.00    +0.000 C 
ATOM     24  N   UNL     1       3.153   4.029  19.366  0.00  0.00    +0.000 NA
ATOM     25  C   UNL     1       4.068   5.157  19.617  0.00  0.00    +0.000 C 
ATOM     26  C   UNL     1       4.077   6.156  18.437  0.00  0.00    +0.000 C 
ATOM     27  N   UNL     1       2.743   6.681  18.064  0.00  0.00    +0.000 NA
ATOM     28  C   UNL     1       1.837   5.528  17.870  0.00  0.00    +0.000 C 
ATOM     29  C   UNL     1       1.803   4.533  19.054  0.00  0.00    +0.000 C 
ENDBRANCH  22  27
ENDBRANCH  21  22
ENDBRANCH  20  21
ENDBRANCH   1  20
TORSDOF 5
ENDMDL
MODEL 8
REMARK VINA RESULT:      -6.4      4.556      6.641
REMARK  Name = 
REMARK  6 active torsions:
REMARK  status: ('A' for Active; 'I' for Inactive)
REMARK    1  A    between atoms: C_1  and  N_2
REMARK    2  A    between atoms: N_5  and  C_6
REMARK    3  A    between atoms: C_6  and  C_7
REMARK    4  A    between atoms: C_7  and  C_8
REMARK    5  A    between atoms: C_8  and  N_9
REMARK    6  A    between atoms: C_12  and  C_13
REMARK                            x       y       z     vdW  Elec       q    Type
REMARK                         _______ _______ _______ _____ _____    ______ ____
ROOT
ATOM      1  N   UNL     1       1.289  12.234  19.166  0.00  0.00    +0.000 NA
ATOM      2  C   UNL     1       1.149  11.047  19.656  0.00  0.00    +0.000 A 
ATOM      3  C   UNL     1       1.802   9.830  19.102  0.00  0.00    +0.000 A 
ATOM      4  C   UNL     1       1.690   8.587  19.586  0.00  0.00    +0.000 A 
ATOM      5  S   UNL     1       0.749   8.100  20.927  0.00  0.00    +0.000 S 
ATOM      6  C   UNL     1       0.125   9.653  21.516  0.00  0.00    +0.000 A 
ATOM      7  C   UNL     1      -0.607   9.598  22.716  0.00  0.00    +0.000 A 
ATOM      8  C   UNL     1      -1.144  10.754  23.286  0.00  0.00    +0.000 A 
ATOM      9  C   UNL     1      -0.973  11.975  22.645  0.00  0.00    +0.000 A 
ATOM     10 CL   UNL     1      -1.631  13.401  23.344  0.00  0.00    +0.000 Cl
ATOM     11  C   UNL     1      -0.260  12.047  21.452  0.00  0.00    +0.000 A 
ATOM     12  C   UNL     1       0.314  10.890  20.889  0.00  0.00    +0.000 A 
ENDROOT
BRANCH   4  13
ATOM     13  C   UNL     1       2.444   7.516  18.920  0.00  0.00    +0.000 A 
ATOM     14  C   UNL     1       2.474   6.227  19.478  0.00  0.00    +0.000 A 
ATOM     15  C   UNL     1       3.234   5.220  18.878  0.00  0.00    +0.000 A 
ATOM     16  C   UNL     1       3.964   5.499  17.723  0.00  0.00    +0.000 A 
ATOM     17 CL   UNL     1       4.912   4.262  16.994  0.00  0.00    +0.000 Cl
ATOM     18  C   UNL     1       3.940   6.774  17.163  0.00  0.00    +0.000 A 
ATOM     19  C   UNL     1       3.183   7.784  17.762  0.00  0.00    +0.000 A 
ENDBRANCH   4  13
BRANCH   1  20
ATOM     20  C   UNL     1       2.124  12.424  17.978  0.00  0.00    +0.000 C 
BRANCH  20  21
ATOM     21  C   UNL     1       3.032  13.629  18.192  0.00  0.00    +0.000 C 
BRANCH  21  22
ATOM     22  C   UNL     1       2.234  14.871  18.617  0.00  0.00    +0.000 C 
BRANCH  22  27
ATOM     23  C   UNL     1       3.250  18.625  21.506  0.00  0.00    +0.000 C 
ATOM     24  N   UNL     1       3.218  18.149  20.128  0.00  0.00    +0.000 NA
ATOM     25  C   UNL     1       1.847  17.799  19.714  0.00  0.00    +0.000 C 
ATOM     26  C   UNL     1       1.809  17.271  18.261  0.00  0.00    +0.000 C 
ATOM     27  N   UNL     1       2.708  16.122  18.000  0.00  0.00    +0.000 NA
ATOM     28  C   UNL     1       4.062  16.485  18.474  0.00  0.00    +0.000 C 
ATOM     29  C   UNL     1       4.114  16.995  19.933  0.00  0.00    +0.000 C 
ENDBRANCH  22  27
ENDBRANCH  21  22
ENDBRANCH  20  21
ENDBRANCH   1  20
TORSDOF 5
ENDMDL
MODEL 9
REMARK VINA RESULT:      -6.4      4.311      6.402
REMARK  Name = 
REMARK  6 active torsions:
REMARK  status: ('A' for Active; 'I' for Inactive)
REMARK    1  A    between atoms: C_1  and  N_2
REMARK    2  A    between atoms: N_5  and  C_6
REMARK    3  A    between atoms: C_6  and  C_7
REMARK    4  A    between atoms: C_7  and  C_8
REMARK    5  A    between atoms: C_8  and  N_9
REMARK    6  A    between atoms: C_12  and  C_13
REMARK                            x       y       z     vdW  Elec       q    Type
REMARK                         _______ _______ _______ _____ _____    ______ ____
ROOT
ATOM      1  N   UNL     1       0.993  12.968  19.349  0.00  0.00    +0.000 NA
ATOM      2  C   UNL     1       0.784  11.805  19.873  0.00  0.00    +0.000 A 
ATOM      3  C   UNL     1       1.400  10.543  19.383  0.00  0.00    +0.000 A 
ATOM      4  C   UNL     1       1.216   9.324  19.903  0.00  0.00    +0.000 A 
ATOM      5  S   UNL     1       0.209   8.924  21.223  0.00  0.00    +0.000 S 
ATOM      6  C   UNL     1      -0.366  10.522  21.739  0.00  0.00    +0.000 A 
ATOM      7  C   UNL     1      -1.142  10.540  22.912  0.00  0.00    +0.000 A 
ATOM      8  C   UNL     1      -1.646  11.737  23.424  0.00  0.00    +0.000 A 
ATOM      9  C   UNL     1      -1.399  12.926  22.750  0.00  0.00    +0.000 A 
ATOM     10 CL   UNL     1      -2.016  14.403  23.378  0.00  0.00    +0.000 Cl
ATOM     11  C   UNL     1      -0.642  12.927  21.582  0.00  0.00    +0.000 A 
ATOM     12  C   UNL     1      -0.100  11.727  21.079  0.00  0.00    +0.000 A 
ENDROOT
BRANCH   4  13
ATOM     13  C   UNL     1       1.945   8.198  19.300  0.00  0.00    +0.000 A 
ATOM     14  C   UNL     1       2.097   6.997  20.013  0.00  0.00    +0.000 A 
ATOM     15  C   UNL     1       2.835   5.945  19.466  0.00  0.00    +0.000 A 
ATOM     16  C   UNL     1       3.421   6.091  18.210  0.00  0.00    +0.000 A 
ATOM     17 CL   UNL     1       4.344   4.799  17.544  0.00  0.00    +0.000 Cl
ATOM     18  C   UNL     1       3.276   7.278  17.495  0.00  0.00    +0.000 A 
ATOM     19  C   UNL     1       2.540   8.333  18.040  0.00  0.00    +0.000 A 
ENDBRANCH   4  13
BRANCH   1  20
ATOM     20  C   UNL     1       1.877  13.081  18.187  0.00  0.00    +0.000 C 
BRANCH  20  21
ATOM     21  C   UNL     1       3.110  13.888  18.572  0.00  0.00    +0.000 C 
BRANCH  21  22
ATOM     22  C   UNL     1       2.774  14.980  19.599  0.00  0.00    +0.000 C 
BRANCH  22  27
ATOM     23  C   UNL     1       0.812  18.555  16.983  0.00  0.00    +0.000 C 
ATOM     24  N   UNL     1       1.970  18.141  17.766  0.00  0.00    +0.000 NA
ATOM     25  C   UNL     1       2.636  16.973  17.161  0.00  0.00    +0.000 C 
ATOM     26  C   UNL     1       3.851  16.513  18.000  0.00  0.00    +0.000 C 
ATOM     27  N   UNL     1       3.545  16.223  19.420  0.00  0.00    +0.000 NA
ATOM     28  C   UNL     1       2.833  17.392  19.982  0.00  0.00    +0.000 C 
ATOM     29  C   UNL     1       1.603  17.847  19.162  0.00  0.00    +0.000 C 
ENDBRANCH  22  27
ENDBRANCH  21  22
ENDBRANCH  20  21
ENDBRANCH   1  20
TORSDOF 5
ENDMDL
