MODEL 1
REMARK VINA RESULT:      -7.3      0.000      0.000
REMARK  Name = 
REMARK  3 active torsions:
REMARK  status: ('A' for Active; 'I' for Inactive)
REMARK    1  A    between atoms: C_5  and  C_6
REMARK    2  A    between atoms: C_9  and  C_10
REMARK    3  A    between atoms: C_16  and  N_17
REMARK                            x       y       z     vdW  Elec       q    Type
REMARK                         _______ _______ _______ _____ _____    ______ ____
ROOT
ATOM      1  C   UNL     1       2.089   8.394  18.366  0.00  0.00    +0.000 A 
ATOM      2  N   UNL     1       3.127   8.943  17.702  0.00  0.00    +0.000 NA
ATOM      3  N   UNL     1       4.127   8.154  17.253  0.00  0.00    +0.000 NA
ATOM      4  C   UNL     1       4.073   6.822  17.485  0.00  0.00    +0.000 A 
ATOM      5  C   UNL     1       3.021   6.278  18.259  0.00  0.00    +0.000 A 
ATOM      6  N   UNL     1       2.006   7.080  18.680  0.00  0.00    +0.000 NA
ENDROOT
BRANCH   1  11
ATOM      7 BR   UNL     1      -2.633  12.191  19.722  0.00  0.00    +0.000 Br
ATOM      8  C   UNL     1      -1.197  11.031  19.325  0.00  0.00    +0.000 A 
ATOM      9  C   UNL     1      -1.077  10.497  18.043  0.00  0.00    +0.000 A 
ATOM     10  C   UNL     1      -0.007   9.647  17.749  0.00  0.00    +0.000 A 
ATOM     11  C   UNL     1       0.973   9.308  18.709  0.00  0.00    +0.000 A 
ATOM     12  C   UNL     1       0.821   9.868  19.994  0.00  0.00    +0.000 A 
ATOM     13  C   UNL     1      -0.255  10.717  20.297  0.00  0.00    +0.000 A 
ENDBRANCH   1  11
BRANCH   4  14
ATOM     14  C   UNL     1       5.132   6.058  16.789  0.00  0.00    +0.000 A 
ATOM     15  C   UNL     1       6.180   5.451  17.502  0.00  0.00    +0.000 A 
ATOM     16  C   UNL     1       7.123   4.642  16.858  0.00  0.00    +0.000 A 
ATOM     17  C   UNL     1       7.031   4.415  15.489  0.00  0.00    +0.000 A 
ATOM     18  C   UNL     1       6.050   5.065  14.752  0.00  0.00    +0.000 A 
ATOM     19  C   UNL     1       5.143   5.912  15.393  0.00  0.00    +0.000 A 
ENDBRANCH   4  14
BRANCH   5  20
ATOM     20  N   UNL     1       2.937   4.911  18.543  0.00  0.00    +0.000 N 
ATOM     21  C   UNL     1       1.893   4.121  17.881  0.00  0.00    +0.000 C 
ATOM     22  C   UNL     1       2.510   2.783  17.448  0.00  0.00    +0.000 C 
ATOM     23  S   UNL     1       3.004   1.770  18.891  0.00  0.00    +0.000 S 
ATOM     24  C   UNL     1       3.989   3.027  19.786  0.00  0.00    +0.000 C 
ATOM     25  C   UNL     1       3.314   4.410  19.882  0.00  0.00    +0.000 C 
ENDBRANCH   5  20
TORSDOF 3
ENDMDL
MODEL 2
REMARK VINA RESULT:      -7.3      0.157      1.367
REMARK  Name = 
REMARK  3 active torsions:
REMARK  status: ('A' for Active; 'I' for Inactive)
REMARK    1  A    between atoms: C_5  and  C_6
REMARK    2  A    between atoms: C_9  and  C_10
REMARK    3  A    between atoms: C_16  and  N_17
REMARK                            x       y       z     vdW  Elec       q    Type
REMARK                         _______ _______ _______ _____ _____    ______ ____
ROOT
ATOM      1  C   UNL     1       2.085   8.323  18.375  0.00  0.00    +0.000 A 
ATOM      2  N   UNL     1       3.132   8.838  17.697  0.00  0.00    +0.000 NA
ATOM      3  N   UNL     1       4.111   8.019  17.256  0.00  0.00    +0.000 NA
ATOM      4  C   UNL     1       4.028   6.692  17.509  0.00  0.00    +0.000 A 
ATOM      5  C   UNL     1       2.967   6.185  18.297  0.00  0.00    +0.000 A 
ATOM      6  N   UNL     1       1.974   7.017  18.709  0.00  0.00    +0.000 NA
ENDROOT
BRANCH   1  11
ATOM      7 BR   UNL     1      -2.434  12.318  19.850  0.00  0.00    +0.000 Br
ATOM      8  C   UNL     1      -1.061  11.107  19.387  0.00  0.00    +0.000 A 
ATOM      9  C   UNL     1      -0.085  10.779  20.327  0.00  0.00    +0.000 A 
ATOM     10  C   UNL     1       0.924   9.875  19.983  0.00  0.00    +0.000 A 
ATOM     11  C   UNL     1       0.993   9.269  18.709  0.00  0.00    +0.000 A 
ATOM     12  C   UNL     1      -0.010   9.624  17.784  0.00  0.00    +0.000 A 
ATOM     13  C   UNL     1      -1.023  10.535  18.121  0.00  0.00    +0.000 A 
ENDBRANCH   1  11
BRANCH   4  14
ATOM     14  C   UNL     1       5.065   5.892  16.820  0.00  0.00    +0.000 A 
ATOM     15  C   UNL     1       5.079   5.770  15.420  0.00  0.00    +0.000 A 
ATOM     16  C   UNL     1       6.117   5.101  14.760  0.00  0.00    +0.000 A 
ATOM     17  C   UNL     1       7.167   4.550  15.487  0.00  0.00    +0.000 A 
ATOM     18  C   UNL     1       7.135   4.592  16.875  0.00  0.00    +0.000 A 
ATOM     19  C   UNL     1       6.070   5.216  17.528  0.00  0.00    +0.000 A 
ENDBRANCH   4  14
BRANCH   5  20
ATOM     20  N   UNL     1       2.853   4.825  18.603  0.00  0.00    +0.000 N 
ATOM     21  C   UNL     1       1.864   4.024  17.873  0.00  0.00    +0.000 C 
ATOM     22  C   UNL     1       2.508   2.675  17.522  0.00  0.00    +0.000 C 
ATOM     23  S   UNL     1       2.875   1.692  19.024  0.00  0.00    +0.000 S 
ATOM     24  C   UNL     1       3.788   2.966  19.970  0.00  0.00    +0.000 C 
ATOM     25  C   UNL     1       3.114   4.353  19.979  0.00  0.00    +0.000 C 
ENDBRANCH   5  20
TORSDOF 3
ENDMDL
MODEL 3
REMARK VINA RESULT:      -6.9      1.157      1.539
REMARK  Name = 
REMARK  3 active torsions:
REMARK  status: ('A' for Active; 'I' for Inactive)
REMARK    1  A    between atoms: C_5  and  C_6
REMARK    2  A    between atoms: C_9  and  C_10
REMARK    3  A    between atoms: C_16  and  N_17
REMARK                            x       y       z     vdW  Elec       q    Type
REMARK                         _______ _______ _______ _____ _____    ______ ____
ROOT
ATOM      1  C   UNL     1       1.818   8.681  18.576  0.00  0.00    +0.000 A 
ATOM      2  N   UNL     1       2.603   9.061  17.547  0.00  0.00    +0.000 NA
ATOM      3  N   UNL     1       3.563   8.226  17.095  0.00  0.00    +0.000 NA
ATOM      4  C   UNL     1       3.727   7.021  17.689  0.00  0.00    +0.000 A 
ATOM      5  C   UNL     1       2.951   6.678  18.822  0.00  0.00    +0.000 A 
ATOM      6  N   UNL     1       1.969   7.517  19.248  0.00  0.00    +0.000 NA
ENDROOT
BRANCH   1  11
ATOM      7 BR   UNL     1      -2.784  12.555  20.117  0.00  0.00    +0.000 Br
ATOM      8  C   UNL     1      -1.385  11.382  19.634  0.00  0.00    +0.000 A 
ATOM      9  C   UNL     1      -0.425  11.028  20.581  0.00  0.00    +0.000 A 
ATOM     10  C   UNL     1       0.603  10.151  20.222  0.00  0.00    +0.000 A 
ATOM     11  C   UNL     1       0.707   9.599  18.925  0.00  0.00    +0.000 A 
ATOM     12  C   UNL     1      -0.282   9.978  17.995  0.00  0.00    +0.000 A 
ATOM     13  C   UNL     1      -1.314  10.862  18.347  0.00  0.00    +0.000 A 
ENDBRANCH   1  11
BRANCH   4  14
ATOM     14  C   UNL     1       4.684   6.140  16.985  0.00  0.00    +0.000 A 
ATOM     15  C   UNL     1       6.052   6.458  16.917  0.00  0.00    +0.000 A 
ATOM     16  C   UNL     1       6.974   5.576  16.343  0.00  0.00    +0.000 A 
ATOM     17  C   UNL     1       6.549   4.352  15.835  0.00  0.00    +0.000 A 
ATOM     18  C   UNL     1       5.194   4.050  15.823  0.00  0.00    +0.000 A 
ATOM     19  C   UNL     1       4.273   4.957  16.351  0.00  0.00    +0.000 A 
ENDBRANCH   4  14
BRANCH   5  20
ATOM     20  N   UNL     1       3.101   5.454  19.482  0.00  0.00    +0.000 N 
ATOM     21  C   UNL     1       2.086   5.060  20.466  0.00  0.00    +0.000 C 
ATOM     22  C   UNL     1       1.786   3.567  20.269  0.00  0.00    +0.000 C 
ATOM     23  S   UNL     1       3.240   2.529  20.672  0.00  0.00    +0.000 S 
ATOM     24  C   UNL     1       4.487   3.392  19.647  0.00  0.00    +0.000 C 
ATOM     25  C   UNL     1       4.453   4.929  19.768  0.00  0.00    +0.000 C 
ENDBRANCH   5  20
TORSDOF 3
ENDMDL
MODEL 4
REMARK VINA RESULT:      -6.8      1.173      1.404
REMARK  Name = 
REMARK  3 active torsions:
REMARK  status: ('A' for Active; 'I' for Inactive)
REMARK    1  A    between atoms: C_5  and  C_6
REMARK    2  A    between atoms: C_9  and  C_10
REMARK    3  A    between atoms: C_16  and  N_17
REMARK                            x       y       z     vdW  Elec       q    Type
REMARK                         _______ _______ _______ _____ _____    ______ ____
ROOT
ATOM      1  C   UNL     1       1.795   8.686  18.675  0.00  0.00    +0.000 A 
ATOM      2  N   UNL     1       2.586   9.043  17.641  0.00  0.00    +0.000 NA
ATOM      3  N   UNL     1       3.528   8.185  17.193  0.00  0.00    +0.000 NA
ATOM      4  C   UNL     1       3.668   6.982  17.796  0.00  0.00    +0.000 A 
ATOM      5  C   UNL     1       2.888   6.663  18.934  0.00  0.00    +0.000 A 
ATOM      6  N   UNL     1       1.923   7.524  19.355  0.00  0.00    +0.000 NA
ENDROOT
BRANCH   1  11
ATOM      7 BR   UNL     1      -2.828  12.602  20.037  0.00  0.00    +0.000 Br
ATOM      8  C   UNL     1      -1.422  11.406  19.637  0.00  0.00    +0.000 A 
ATOM      9  C   UNL     1      -1.323  10.862  18.358  0.00  0.00    +0.000 A 
ATOM     10  C   UNL     1      -0.274   9.985  18.063  0.00  0.00    +0.000 A 
ATOM     11  C   UNL     1       0.703   9.629  19.019  0.00  0.00    +0.000 A 
ATOM     12  C   UNL     1       0.572  10.200  20.301  0.00  0.00    +0.000 A 
ATOM     13  C   UNL     1      -0.481  11.076  20.605  0.00  0.00    +0.000 A 
ENDBRANCH   1  11
BRANCH   4  14
ATOM     14  C   UNL     1       4.606   6.076  17.098  0.00  0.00    +0.000 A 
ATOM     15  C   UNL     1       4.161   4.879  16.510  0.00  0.00    +0.000 A 
ATOM     16  C   UNL     1       5.025   4.073  15.761  0.00  0.00    +0.000 A 
ATOM     17  C   UNL     1       6.351   4.453  15.575  0.00  0.00    +0.000 A 
ATOM     18  C   UNL     1       6.832   5.591  16.209  0.00  0.00    +0.000 A 
ATOM     19  C   UNL     1       5.976   6.363  16.998  0.00  0.00    +0.000 A 
ENDBRANCH   4  14
BRANCH   5  20
ATOM     20  N   UNL     1       3.014   5.441  19.603  0.00  0.00    +0.000 N 
ATOM     21  C   UNL     1       2.019   5.096  20.624  0.00  0.00    +0.000 C 
ATOM     22  C   UNL     1       1.656   3.614  20.456  0.00  0.00    +0.000 C 
ATOM     23  S   UNL     1       3.083   2.525  20.821  0.00  0.00    +0.000 S 
ATOM     24  C   UNL     1       4.326   3.330  19.745  0.00  0.00    +0.000 C 
ATOM     25  C   UNL     1       4.354   4.868  19.849  0.00  0.00    +0.000 C 
ENDBRANCH   5  20
TORSDOF 3
ENDMDL
MODEL 5
REMARK VINA RESULT:      -6.7      0.545      1.798
REMARK  Name = 
REMARK  3 active torsions:
REMARK  status: ('A' for Active; 'I' for Inactive)
REMARK    1  A    between atoms: C_5  and  C_6
REMARK    2  A    between atoms: C_9  and  C_10
REMARK    3  A    between atoms: C_16  and  N_17
REMARK                            x       y       z     vdW  Elec       q    Type
REMARK                         _______ _______ _______ _____ _____    ______ ____
ROOT
ATOM      1  C   UNL     1       2.090   8.283  18.509  0.00  0.00    +0.000 A 
ATOM      2  N   UNL     1       3.153   8.773  17.838  0.00  0.00    +0.000 NA
ATOM      3  N   UNL     1       4.117   7.932  17.406  0.00  0.00    +0.000 NA
ATOM      4  C   UNL     1       4.003   6.607  17.661  0.00  0.00    +0.000 A 
ATOM      5  C   UNL     1       2.925   6.125  18.440  0.00  0.00    +0.000 A 
ATOM      6  N   UNL     1       1.946   6.980  18.844  0.00  0.00    +0.000 NA
ENDROOT
BRANCH   1  11
ATOM      7 BR   UNL     1      -2.356  12.372  19.947  0.00  0.00    +0.000 Br
ATOM      8  C   UNL     1      -1.004  11.134  19.495  0.00  0.00    +0.000 A 
ATOM      9  C   UNL     1      -0.106  10.707  20.472  0.00  0.00    +0.000 A 
ATOM     10  C   UNL     1       0.888   9.782  20.136  0.00  0.00    +0.000 A 
ATOM     11  C   UNL     1       1.016   9.253  18.832  0.00  0.00    +0.000 A 
ATOM     12  C   UNL     1       0.090   9.706  17.871  0.00  0.00    +0.000 A 
ATOM     13  C   UNL     1      -0.906  10.638  18.201  0.00  0.00    +0.000 A 
ENDBRANCH   1  11
BRANCH   4  14
ATOM     14  C   UNL     1       5.027   5.784  16.981  0.00  0.00    +0.000 A 
ATOM     15  C   UNL     1       4.907   5.449  15.621  0.00  0.00    +0.000 A 
ATOM     16  C   UNL     1       5.924   4.759  14.951  0.00  0.00    +0.000 A 
ATOM     17  C   UNL     1       7.087   4.400  15.626  0.00  0.00    +0.000 A 
ATOM     18  C   UNL     1       7.195   4.653  16.987  0.00  0.00    +0.000 A 
ATOM     19  C   UNL     1       6.154   5.295  17.660  0.00  0.00    +0.000 A 
ENDBRANCH   4  14
BRANCH   5  20
ATOM     20  N   UNL     1       2.777   4.768  18.747  0.00  0.00    +0.000 N 
ATOM     21  C   UNL     1       3.644   4.185  19.777  0.00  0.00    +0.000 C 
ATOM     22  C   UNL     1       2.788   3.257  20.651  0.00  0.00    +0.000 C 
ATOM     23  S   UNL     1       2.172   1.816  19.703  0.00  0.00    +0.000 S 
ATOM     24  C   UNL     1       1.453   2.712  18.277  0.00  0.00    +0.000 C 
ATOM     25  C   UNL     1       2.364   3.814  17.696  0.00  0.00    +0.000 C 
ENDBRANCH   5  20
TORSDOF 3
ENDMDL
MODEL 6
REMARK VINA RESULT:      -6.7      0.440      1.131
REMARK  Name = 
REMARK  3 active torsions:
REMARK  status: ('A' for Active; 'I' for Inactive)
REMARK    1  A    between atoms: C_5  and  C_6
REMARK    2  A    between atoms: C_9  and  C_10
REMARK    3  A    between atoms: C_16  and  N_17
REMARK                            x       y       z     vdW  Elec       q    Type
REMARK                         _______ _______ _______ _____ _____    ______ ____
ROOT
ATOM      1  C   UNL     1       2.076   8.409  18.361  0.00  0.00    +0.000 A 
ATOM      2  N   UNL     1       3.118   8.939  17.689  0.00  0.00    +0.000 NA
ATOM      3  N   UNL     1       4.115   8.136  17.259  0.00  0.00    +0.000 NA
ATOM      4  C   UNL     1       4.053   6.809  17.516  0.00  0.00    +0.000 A 
ATOM      5  C   UNL     1       2.995   6.286  18.297  0.00  0.00    +0.000 A 
ATOM      6  N   UNL     1       1.984   7.102  18.699  0.00  0.00    +0.000 NA
ENDROOT
BRANCH   1  11
ATOM      7 BR   UNL     1      -2.632  12.252  19.637  0.00  0.00    +0.000 Br
ATOM      8  C   UNL     1      -1.199  11.080  19.263  0.00  0.00    +0.000 A 
ATOM      9  C   UNL     1      -1.145  10.428  18.033  0.00  0.00    +0.000 A 
ATOM     10  C   UNL     1      -0.077   9.569  17.756  0.00  0.00    +0.000 A 
ATOM     11  C   UNL     1       0.965   9.336  18.683  0.00  0.00    +0.000 A 
ATOM     12  C   UNL     1       0.877  10.013  19.916  0.00  0.00    +0.000 A 
ATOM     13  C   UNL     1      -0.195  10.872  20.202  0.00  0.00    +0.000 A 
ENDBRANCH   1  11
BRANCH   4  14
ATOM     14  C   UNL     1       5.110   6.025  16.838  0.00  0.00    +0.000 A 
ATOM     15  C   UNL     1       6.202   5.503  17.553  0.00  0.00    +0.000 A 
ATOM     16  C   UNL     1       7.145   4.676  16.934  0.00  0.00    +0.000 A 
ATOM     17  C   UNL     1       7.010   4.345  15.589  0.00  0.00    +0.000 A 
ATOM     18  C   UNL     1       5.983   4.910  14.845  0.00  0.00    +0.000 A 
ATOM     19  C   UNL     1       5.075   5.776  15.457  0.00  0.00    +0.000 A 
ENDBRANCH   4  14
BRANCH   5  20
ATOM     20  N   UNL     1       2.902   4.925  18.607  0.00  0.00    +0.000 N 
ATOM     21  C   UNL     1       3.691   4.407  19.730  0.00  0.00    +0.000 C 
ATOM     22  C   UNL     1       2.808   3.433  20.524  0.00  0.00    +0.000 C 
ATOM     23  S   UNL     1       2.387   1.948  19.538  0.00  0.00    +0.000 S 
ATOM     24  C   UNL     1       1.767   2.785  18.032  0.00  0.00    +0.000 C 
ATOM     25  C   UNL     1       2.662   3.937  17.533  0.00  0.00    +0.000 C 
ENDBRANCH   5  20
TORSDOF 3
ENDMDL
MODEL 7
REMARK VINA RESULT:      -6.6      2.087      4.041
REMARK  Name = 
REMARK  3 active torsions:
REMARK  status: ('A' for Active; 'I' for Inactive)
REMARK    1  A    between atoms: C_5  and  C_6
REMARK    2  A    between atoms: C_9  and  C_10
REMARK    3  A    between atoms: C_16  and  N_17
REMARK                            x       y       z     vdW  Elec       q    Type
REMARK                         _______ _______ _______ _____ _____    ______ ____
ROOT
ATOM      1  C   UNL     1       1.551   7.276  20.317  0.00  0.00    +0.000 A 
ATOM      2  N   UNL     1       0.935   6.152  20.738  0.00  0.00    +0.000 NA
ATOM      3  N   UNL     1       1.443   4.946  20.402  0.00  0.00    +0.000 NA
ATOM      4  C   UNL     1       2.559   4.887  19.640  0.00  0.00    +0.000 A 
ATOM      5  C   UNL     1       3.139   6.076  19.136  0.00  0.00    +0.000 A 
ATOM      6  N   UNL     1       2.634   7.284  19.507  0.00  0.00    +0.000 NA
ENDROOT
BRANCH   1  11
ATOM      7 BR   UNL     1      -0.744  12.657  22.400  0.00  0.00    +0.000 Br
ATOM      8  C   UNL     1      -0.055  11.013  21.777  0.00  0.00    +0.000 A 
ATOM      9  C   UNL     1       0.375  10.903  20.456  0.00  0.00    +0.000 A 
ATOM     10  C   UNL     1       0.894   9.687  20.000  0.00  0.00    +0.000 A 
ATOM     11  C   UNL     1       1.007   8.553  20.837  0.00  0.00    +0.000 A 
ATOM     12  C   UNL     1       0.563   8.702  22.167  0.00  0.00    +0.000 A 
ATOM     13  C   UNL     1       0.036   9.918  22.628  0.00  0.00    +0.000 A 
ENDBRANCH   1  11
BRANCH   4  14
ATOM     14  C   UNL     1       3.106   3.519  19.497  0.00  0.00    +0.000 A 
ATOM     15  C   UNL     1       2.859   2.752  18.345  0.00  0.00    +0.000 A 
ATOM     16  C   UNL     1       3.460   1.502  18.164  0.00  0.00    +0.000 A 
ATOM     17  C   UNL     1       4.329   0.997  19.125  0.00  0.00    +0.000 A 
ATOM     18  C   UNL     1       4.529   1.702  20.305  0.00  0.00    +0.000 A 
ATOM     19  C   UNL     1       3.885   2.926  20.502  0.00  0.00    +0.000 A 
ENDBRANCH   4  14
BRANCH   5  20
ATOM     20  N   UNL     1       4.279   6.062  18.327  0.00  0.00    +0.000 N 
ATOM     21  C   UNL     1       5.570   5.731  18.941  0.00  0.00    +0.000 C 
ATOM     22  C   UNL     1       6.329   4.801  17.983  0.00  0.00    +0.000 C 
ATOM     23  S   UNL     1       6.770   5.654  16.423  0.00  0.00    +0.000 S 
ATOM     24  C   UNL     1       5.118   6.318  15.996  0.00  0.00    +0.000 C 
ATOM     25  C   UNL     1       4.378   6.984  17.175  0.00  0.00    +0.000 C 
ENDBRANCH   5  20
TORSDOF 3
ENDMDL
MODEL 8
REMARK VINA RESULT:      -6.6      4.957      9.702
REMARK  Name = 
REMARK  3 active torsions:
REMARK  status: ('A' for Active; 'I' for Inactive)
REMARK    1  A    between atoms: C_5  and  C_6
REMARK    2  A    between atoms: C_9  and  C_10
REMARK    3  A    between atoms: C_16  and  N_17
REMARK                            x       y       z     vdW  Elec       q    Type
REMARK                         _______ _______ _______ _____ _____    ______ ____
ROOT
ATOM      1  C   UNL     1       0.918   9.380  20.888  0.00  0.00    +0.000 A 
ATOM      2  N   UNL     1       0.184   9.087  21.982  0.00  0.00    +0.000 NA
ATOM      3  N   UNL     1      -0.489  10.070  22.619  0.00  0.00    +0.000 NA
ATOM      4  C   UNL     1      -0.409  11.337  22.151  0.00  0.00    +0.000 A 
ATOM      5  C   UNL     1       0.434  11.637  21.055  0.00  0.00    +0.000 A 
ATOM      6  N   UNL     1       1.083  10.633  20.406  0.00  0.00    +0.000 NA
ENDROOT
BRANCH   1  11
ATOM      7 BR   UNL     1       3.474   4.615  17.836  0.00  0.00    +0.000 Br
ATOM      8  C   UNL     1       2.701   6.058  18.777  0.00  0.00    +0.000 A 
ATOM      9  C   UNL     1       2.619   7.311  18.171  0.00  0.00    +0.000 A 
ATOM     10  C   UNL     1       2.036   8.374  18.868  0.00  0.00    +0.000 A 
ATOM     11  C   UNL     1       1.517   8.227  20.174  0.00  0.00    +0.000 A 
ATOM     12  C   UNL     1       1.618   6.946  20.754  0.00  0.00    +0.000 A 
ATOM     13  C   UNL     1       2.206   5.876  20.063  0.00  0.00    +0.000 A 
ENDBRANCH   1  11
BRANCH   4  14
ATOM     14  C   UNL     1      -1.331  12.276  22.828  0.00  0.00    +0.000 A 
ATOM     15  C   UNL     1      -2.652  11.906  23.134  0.00  0.00    +0.000 A 
ATOM     16  C   UNL     1      -3.492  12.754  23.865  0.00  0.00    +0.000 A 
ATOM     17  C   UNL     1      -3.023  13.984  24.315  0.00  0.00    +0.000 A 
ATOM     18  C   UNL     1      -1.748  14.403  23.960  0.00  0.00    +0.000 A 
ATOM     19  C   UNL     1      -0.934  13.574  23.186  0.00  0.00    +0.000 A 
ENDBRANCH   4  14
BRANCH   5  20
ATOM     20  N   UNL     1       0.565  12.936  20.551  0.00  0.00    +0.000 N 
ATOM     21  C   UNL     1      -0.327  13.360  19.467  0.00  0.00    +0.000 C 
ATOM     22  C   UNL     1      -0.789  14.794  19.763  0.00  0.00    +0.000 C 
ATOM     23  S   UNL     1       0.607  15.978  19.696  0.00  0.00    +0.000 S 
ATOM     24  C   UNL     1       1.766  15.102  20.809  0.00  0.00    +0.000 C 
ATOM     25  C   UNL     1       1.891  13.590  20.532  0.00  0.00    +0.000 C 
ENDBRANCH   5  20
TORSDOF 3
ENDMDL
MODEL 9
REMARK VINA RESULT:      -6.6      5.086      9.907
REMARK  Name = 
REMARK  3 active torsions:
REMARK  status: ('A' for Active; 'I' for Inactive)
REMARK    1  A    between atoms: C_5  and  C_6
REMARK    2  A    between atoms: C_9  and  C_10
REMARK    3  A    between atoms: C_16  and  N_17
REMARK                            x       y       z     vdW  Elec       q    Type
REMARK                         _______ _______ _______ _____ _____    ______ ____
ROOT
ATOM      1  C   UNL     1       0.786   9.605  20.967  0.00  0.00    +0.000 A 
ATOM      2  N   UNL     1       0.130   9.249  22.092  0.00  0.00    +0.000 NA
ATOM      3  N   UNL     1      -0.566  10.179  22.782  0.00  0.00    +0.000 NA
ATOM      4  C   UNL     1      -0.587  11.456  22.335  0.00  0.00    +0.000 A 
ATOM      5  C   UNL     1       0.179  11.826  21.204  0.00  0.00    +0.000 A 
ATOM      6  N   UNL     1       0.852  10.873  20.503  0.00  0.00    +0.000 NA
ENDROOT
BRANCH   1  11
ATOM      7 BR   UNL     1       3.383   4.922  17.822  0.00  0.00    +0.000 Br
ATOM      8  C   UNL     1       2.588   6.352  18.765  0.00  0.00    +0.000 A 
ATOM      9  C   UNL     1       2.165   6.160  20.079  0.00  0.00    +0.000 A 
ATOM     10  C   UNL     1       1.586   7.224  20.778  0.00  0.00    +0.000 A 
ATOM     11  C   UNL     1       1.415   8.502  20.201  0.00  0.00    +0.000 A 
ATOM     12  C   UNL     1       1.856   8.660  18.871  0.00  0.00    +0.000 A 
ATOM     13  C   UNL     1       2.432   7.595  18.162  0.00  0.00    +0.000 A 
ENDBRANCH   1  11
BRANCH   4  14
ATOM     14  C   UNL     1      -1.525  12.327  23.077  0.00  0.00    +0.000 A 
ATOM     15  C   UNL     1      -1.166  13.633  23.451  0.00  0.00    +0.000 A 
ATOM     16  C   UNL     1      -2.088  14.493  24.061  0.00  0.00    +0.000 A 
ATOM     17  C   UNL     1      -3.390  14.066  24.298  0.00  0.00    +0.000 A 
ATOM     18  C   UNL     1      -3.746  12.756  24.008  0.00  0.00    +0.000 A 
ATOM     19  C   UNL     1      -2.806  11.887  23.447  0.00  0.00    +0.000 A 
ENDBRANCH   4  14
BRANCH   5  20
ATOM     20  N   UNL     1       0.206  13.138  20.720  0.00  0.00    +0.000 N 
ATOM     21  C   UNL     1      -0.775  13.529  19.701  0.00  0.00    +0.000 C 
ATOM     22  C   UNL     1      -1.296  14.929  20.054  0.00  0.00    +0.000 C 
ATOM     23  S   UNL     1       0.025  16.192  19.926  0.00  0.00    +0.000 S 
ATOM     24  C   UNL     1       1.297  15.364  20.949  0.00  0.00    +0.000 C 
ATOM     25  C   UNL     1       1.489  13.867  20.633  0.00  0.00    +0.000 C 
ENDBRANCH   5  20
TORSDOF 3
ENDMDL
