MODEL 1
REMARK VINA RESULT:      -6.4      0.000      0.000
REMARK  Name = 
REMARK  2 active torsions:
REMARK  status: ('A' for Active; 'I' for Inactive)
REMARK    1  A    between atoms: N_1  and  C_2
REMARK    2  A    between atoms: C_8  and  N_9
REMARK                            x       y       z     vdW  Elec       q    Type
REMARK                         _______ _______ _______ _____ _____    ______ ____
ROOT
ATOM      1  C   UNL     1       4.982   4.437  18.811  0.00  0.00    +0.000 A 
ATOM      2  C   UNL     1       6.157   5.033  18.329  0.00  0.00    +0.000 A 
ATOM      3  C   UNL     1       6.100   6.229  17.622  0.00  0.00    +0.000 A 
ATOM      4 CL   UNL     1       7.541   6.915  16.979  0.00  0.00    +0.000 Cl
ATOM      5  C   UNL     1       4.884   6.868  17.432  0.00  0.00    +0.000 A 
ATOM      6  C   UNL     1       3.720   6.323  17.986  0.00  0.00    +0.000 A 
ATOM      7  C   UNL     1       3.731   5.117  18.714  0.00  0.00    +0.000 A 
ENDROOT
BRANCH   7   8
ATOM      8  N   UNL     1       2.558   4.618  19.278  0.00  0.00    +0.000 N 
ATOM      9  C   UNL     1       2.178   4.923  20.661  0.00  0.00    +0.000 C 
ATOM     10  C   UNL     1       2.107   3.647  21.499  0.00  0.00    +0.000 C 
ATOM     11  C   UNL     1       1.189   2.617  20.848  0.00  0.00    +0.000 C 
ATOM     12  C   UNL     1       1.652   2.324  19.427  0.00  0.00    +0.000 C 
ATOM     13  C   UNL     1       1.764   3.596  18.587  0.00  0.00    +0.000 C 
ENDBRANCH   7   8
BRANCH   1  14
ATOM     14  N   UNL     1       5.104   3.212  19.511  0.00  0.00    +0.000 N 
ATOM     15  H   UNL     1       5.087   3.320  20.518  0.00  0.00    +0.000 HD
ATOM     16  H   UNL     1       5.941   2.727  19.192  0.00  0.00    +0.000 HD
ENDBRANCH   1  14
TORSDOF 2
ENDMDL
MODEL 2
REMARK VINA RESULT:      -6.4      1.878      2.301
REMARK  Name = 
REMARK  2 active torsions:
REMARK  status: ('A' for Active; 'I' for Inactive)
REMARK    1  A    between atoms: N_1  and  C_2
REMARK    2  A    between atoms: C_8  and  N_9
REMARK                            x       y       z     vdW  Elec       q    Type
REMARK                         _______ _______ _______ _____ _____    ______ ____
ROOT
ATOM      1  C   UNL     1       6.176   4.664  18.256  0.00  0.00    +0.000 A 
ATOM      2  C   UNL     1       6.886   4.912  17.071  0.00  0.00    +0.000 A 
ATOM      3  C   UNL     1       6.311   4.637  15.836  0.00  0.00    +0.000 A 
ATOM      4 CL   UNL     1       7.218   4.883  14.394  0.00  0.00    +0.000 Cl
ATOM      5  C   UNL     1       5.010   4.163  15.764  0.00  0.00    +0.000 A 
ATOM      6  C   UNL     1       4.266   3.997  16.938  0.00  0.00    +0.000 A 
ATOM      7  C   UNL     1       4.806   4.268  18.211  0.00  0.00    +0.000 A 
ENDROOT
BRANCH   7   8
ATOM      8  N   UNL     1       4.028   4.121  19.358  0.00  0.00    +0.000 N 
ATOM      9  C   UNL     1       3.779   2.807  19.957  0.00  0.00    +0.000 C 
ATOM     10  C   UNL     1       2.287   2.477  19.942  0.00  0.00    +0.000 C 
ATOM     11  C   UNL     1       1.476   3.589  20.603  0.00  0.00    +0.000 C 
ATOM     12  C   UNL     1       1.758   4.921  19.919  0.00  0.00    +0.000 C 
ATOM     13  C   UNL     1       3.251   5.246  19.892  0.00  0.00    +0.000 C 
ENDBRANCH   7   8
BRANCH   1  14
ATOM     14  N   UNL     1       6.822   4.951  19.484  0.00  0.00    +0.000 N 
ATOM     15  H   UNL     1       7.792   5.221  19.374  0.00  0.00    +0.000 HD
ATOM     16  H   UNL     1       6.714   4.156  20.111  0.00  0.00    +0.000 HD
ENDBRANCH   1  14
TORSDOF 2
ENDMDL
MODEL 3
REMARK VINA RESULT:      -6.2      2.950      5.211
REMARK  Name = 
REMARK  2 active torsions:
REMARK  status: ('A' for Active; 'I' for Inactive)
REMARK    1  A    between atoms: N_1  and  C_2
REMARK    2  A    between atoms: C_8  and  N_9
REMARK                            x       y       z     vdW  Elec       q    Type
REMARK                         _______ _______ _______ _____ _____    ______ ____
ROOT
ATOM      1  C   UNL     1       4.292   3.839  19.026  0.00  0.00    +0.000 A 
ATOM      2  C   UNL     1       3.465   3.257  19.998  0.00  0.00    +0.000 A 
ATOM      3  C   UNL     1       2.089   3.453  19.960  0.00  0.00    +0.000 A 
ATOM      4 CL   UNL     1       1.094   2.788  21.196  0.00  0.00    +0.000 Cl
ATOM      5  C   UNL     1       1.519   4.184  18.929  0.00  0.00    +0.000 A 
ATOM      6  C   UNL     1       2.330   4.693  17.909  0.00  0.00    +0.000 A 
ATOM      7  C   UNL     1       3.727   4.515  17.903  0.00  0.00    +0.000 A 
ENDROOT
BRANCH   7   8
ATOM      8  N   UNL     1       4.502   5.009  16.855  0.00  0.00    +0.000 N 
ATOM      9  C   UNL     1       4.895   4.165  15.722  0.00  0.00    +0.000 C 
ATOM     10  C   UNL     1       6.415   4.031  15.645  0.00  0.00    +0.000 C 
ATOM     11  C   UNL     1       7.081   5.404  15.618  0.00  0.00    +0.000 C 
ATOM     12  C   UNL     1       6.655   6.220  16.831  0.00  0.00    +0.000 C 
ATOM     13  C   UNL     1       5.135   6.330  16.942  0.00  0.00    +0.000 C 
ENDBRANCH   7   8
BRANCH   1  14
ATOM     14  N   UNL     1       5.688   3.615  19.127  0.00  0.00    +0.000 N 
ATOM     15  H   UNL     1       5.956   3.125  19.973  0.00  0.00    +0.000 HD
ATOM     16  H   UNL     1       6.177   4.503  19.027  0.00  0.00    +0.000 HD
ENDBRANCH   1  14
TORSDOF 2
ENDMDL
MODEL 4
REMARK VINA RESULT:      -6.2      1.606      1.606
REMARK  Name = 
REMARK  2 active torsions:
REMARK  status: ('A' for Active; 'I' for Inactive)
REMARK    1  A    between atoms: N_1  and  C_2
REMARK    2  A    between atoms: C_8  and  N_9
REMARK                            x       y       z     vdW  Elec       q    Type
REMARK                         _______ _______ _______ _____ _____    ______ ____
ROOT
ATOM      1  C   UNL     1       4.389   3.501  17.264  0.00  0.00    +0.000 A 
ATOM      2  C   UNL     1       5.474   3.653  16.387  0.00  0.00    +0.000 A 
ATOM      3  C   UNL     1       5.793   4.906  15.874  0.00  0.00    +0.000 A 
ATOM      4 CL   UNL     1       7.083   5.068  14.747  0.00  0.00    +0.000 Cl
ATOM      5  C   UNL     1       5.071   6.023  16.268  0.00  0.00    +0.000 A 
ATOM      6  C   UNL     1       4.046   5.890  17.210  0.00  0.00    +0.000 A 
ATOM      7  C   UNL     1       3.691   4.642  17.760  0.00  0.00    +0.000 A 
ENDROOT
BRANCH   7   8
ATOM      8  N   UNL     1       2.684   4.549  18.719  0.00  0.00    +0.000 N 
ATOM      9  C   UNL     1       2.970   4.676  20.152  0.00  0.00    +0.000 C 
ATOM     10  C   UNL     1       2.611   3.389  20.893  0.00  0.00    +0.000 C 
ATOM     11  C   UNL     1       1.166   2.984  20.614  0.00  0.00    +0.000 C 
ATOM     12  C   UNL     1       0.942   2.843  19.114  0.00  0.00    +0.000 C 
ATOM     13  C   UNL     1       1.332   4.110  18.354  0.00  0.00    +0.000 C 
ENDBRANCH   7   8
BRANCH   1  14
ATOM     14  N   UNL     1       4.106   2.197  17.741  0.00  0.00    +0.000 N 
ATOM     15  H   UNL     1       4.350   1.466  17.083  0.00  0.00    +0.000 HD
ATOM     16  H   UNL     1       3.128   2.150  18.022  0.00  0.00    +0.000 HD
ENDBRANCH   1  14
TORSDOF 2
ENDMDL
MODEL 5
REMARK VINA RESULT:      -6.1      1.869      2.371
REMARK  Name = 
REMARK  2 active torsions:
REMARK  status: ('A' for Active; 'I' for Inactive)
REMARK    1  A    between atoms: N_1  and  C_2
REMARK    2  A    between atoms: C_8  and  N_9
REMARK                            x       y       z     vdW  Elec       q    Type
REMARK                         _______ _______ _______ _____ _____    ______ ____
ROOT
ATOM      1  C   UNL     1       4.314   6.055  17.089  0.00  0.00    +0.000 A 
ATOM      2  C   UNL     1       5.298   6.118  16.090  0.00  0.00    +0.000 A 
ATOM      3  C   UNL     1       5.901   4.956  15.623  0.00  0.00    +0.000 A 
ATOM      4 CL   UNL     1       7.152   5.053  14.446  0.00  0.00    +0.000 Cl
ATOM      5  C   UNL     1       5.496   3.720  16.105  0.00  0.00    +0.000 A 
ATOM      6  C   UNL     1       4.455   3.646  17.037  0.00  0.00    +0.000 A 
ATOM      7  C   UNL     1       3.812   4.796  17.534  0.00  0.00    +0.000 A 
ENDROOT
BRANCH   7   8
ATOM      8  N   UNL     1       2.757   4.685  18.438  0.00  0.00    +0.000 N 
ATOM      9  C   UNL     1       2.962   4.831  19.883  0.00  0.00    +0.000 C 
ATOM     10  C   UNL     1       2.596   3.541  20.616  0.00  0.00    +0.000 C 
ATOM     11  C   UNL     1       1.179   3.097  20.263  0.00  0.00    +0.000 C 
ATOM     12  C   UNL     1       1.039   2.938  18.755  0.00  0.00    +0.000 C 
ATOM     13  C   UNL     1       1.438   4.208  18.005  0.00  0.00    +0.000 C 
ENDBRANCH   7   8
BRANCH   1  14
ATOM     14  N   UNL     1       3.748   7.276  17.533  0.00  0.00    +0.000 N 
ATOM     15  H   UNL     1       2.903   7.532  17.036  0.00  0.00    +0.000 HD
ATOM     16  H   UNL     1       4.455   8.008  17.489  0.00  0.00    +0.000 HD
ENDBRANCH   1  14
TORSDOF 2
ENDMDL
MODEL 6
REMARK VINA RESULT:      -6.1      2.896      5.371
REMARK  Name = 
REMARK  2 active torsions:
REMARK  status: ('A' for Active; 'I' for Inactive)
REMARK    1  A    between atoms: N_1  and  C_2
REMARK    2  A    between atoms: C_8  and  N_9
REMARK                            x       y       z     vdW  Elec       q    Type
REMARK                         _______ _______ _______ _____ _____    ______ ____
ROOT
ATOM      1  C   UNL     1       3.117   5.281  19.794  0.00  0.00    +0.000 A 
ATOM      2  C   UNL     1       2.307   4.634  20.739  0.00  0.00    +0.000 A 
ATOM      3  C   UNL     1       2.372   3.253  20.893  0.00  0.00    +0.000 A 
ATOM      4 CL   UNL     1       1.326   2.465  22.008  0.00  0.00    +0.000 Cl
ATOM      5  C   UNL     1       3.278   2.513  20.149  0.00  0.00    +0.000 A 
ATOM      6  C   UNL     1       4.149   3.163  19.269  0.00  0.00    +0.000 A 
ATOM      7  C   UNL     1       4.123   4.560  19.084  0.00  0.00    +0.000 A 
ENDROOT
BRANCH   7   8
ATOM      8  N   UNL     1       5.025   5.179  18.222  0.00  0.00    +0.000 N 
ATOM      9  C   UNL     1       4.705   5.418  16.811  0.00  0.00    +0.000 C 
ATOM     10  C   UNL     1       5.671   4.665  15.899  0.00  0.00    +0.000 C 
ATOM     11  C   UNL     1       7.120   5.005  16.241  0.00  0.00    +0.000 C 
ATOM     12  C   UNL     1       7.396   4.710  17.709  0.00  0.00    +0.000 C 
ATOM     13  C   UNL     1       6.412   5.427  18.633  0.00  0.00    +0.000 C 
ENDBRANCH   7   8
BRANCH   1  14
ATOM     14  N   UNL     1       2.993   6.688  19.674  0.00  0.00    +0.000 N 
ATOM     15  H   UNL     1       2.175   6.977  19.151  0.00  0.00    +0.000 HD
ATOM     16  H   UNL     1       3.853   7.066  19.279  0.00  0.00    +0.000 HD
ENDBRANCH   1  14
TORSDOF 2
ENDMDL
MODEL 7
REMARK VINA RESULT:      -6.1      2.869      5.187
REMARK  Name = 
REMARK  2 active torsions:
REMARK  status: ('A' for Active; 'I' for Inactive)
REMARK    1  A    between atoms: N_1  and  C_2
REMARK    2  A    between atoms: C_8  and  N_9
REMARK                            x       y       z     vdW  Elec       q    Type
REMARK                         _______ _______ _______ _____ _____    ______ ____
ROOT
ATOM      1  C   UNL     1       3.878   3.295  18.593  0.00  0.00    +0.000 A 
ATOM      2  C   UNL     1       2.856   2.748  19.384  0.00  0.00    +0.000 A 
ATOM      3  C   UNL     1       2.258   3.507  20.384  0.00  0.00    +0.000 A 
ATOM      4 CL   UNL     1       1.053   2.804  21.390  0.00  0.00    +0.000 Cl
ATOM      5  C   UNL     1       2.633   4.829  20.571  0.00  0.00    +0.000 A 
ATOM      6  C   UNL     1       3.589   5.406  19.728  0.00  0.00    +0.000 A 
ATOM      7  C   UNL     1       4.217   4.677  18.699  0.00  0.00    +0.000 A 
ENDROOT
BRANCH   7   8
ATOM      8  N   UNL     1       5.143   5.290  17.857  0.00  0.00    +0.000 N 
ATOM      9  C   UNL     1       4.759   5.822  16.546  0.00  0.00    +0.000 C 
ATOM     10  C   UNL     1       5.507   5.099  15.427  0.00  0.00    +0.000 C 
ATOM     11  C   UNL     1       7.015   5.143  15.663  0.00  0.00    +0.000 C 
ATOM     12  C   UNL     1       7.350   4.553  17.026  0.00  0.00    +0.000 C 
ATOM     13  C   UNL     1       6.580   5.241  18.153  0.00  0.00    +0.000 C 
ENDBRANCH   7   8
BRANCH   1  14
ATOM     14  N   UNL     1       4.458   2.466  17.601  0.00  0.00    +0.000 N 
ATOM     15  H   UNL     1       5.102   1.779  17.977  0.00  0.00    +0.000 HD
ATOM     16  H   UNL     1       4.893   3.051  16.890  0.00  0.00    +0.000 HD
ENDBRANCH   1  14
TORSDOF 2
ENDMDL
MODEL 8
REMARK VINA RESULT:      -6.1      1.694      2.355
REMARK  Name = 
REMARK  2 active torsions:
REMARK  status: ('A' for Active; 'I' for Inactive)
REMARK    1  A    between atoms: N_1  and  C_2
REMARK    2  A    between atoms: C_8  and  N_9
REMARK                            x       y       z     vdW  Elec       q    Type
REMARK                         _______ _______ _______ _____ _____    ______ ____
ROOT
ATOM      1  C   UNL     1       3.978   3.969  17.276  0.00  0.00    +0.000 A 
ATOM      2  C   UNL     1       4.844   4.082  16.178  0.00  0.00    +0.000 A 
ATOM      3  C   UNL     1       6.145   4.540  16.353  0.00  0.00    +0.000 A 
ATOM      4 CL   UNL     1       7.175   4.737  14.989  0.00  0.00    +0.000 Cl
ATOM      5  C   UNL     1       6.611   4.840  17.624  0.00  0.00    +0.000 A 
ATOM      6  C   UNL     1       5.780   4.646  18.732  0.00  0.00    +0.000 A 
ATOM      7  C   UNL     1       4.457   4.179  18.604  0.00  0.00    +0.000 A 
ENDROOT
BRANCH   7   8
ATOM      8  N   UNL     1       3.666   3.967  19.731  0.00  0.00    +0.000 N 
ATOM      9  C   UNL     1       3.477   2.630  20.301  0.00  0.00    +0.000 C 
ATOM     10  C   UNL     1       2.007   2.219  20.249  0.00  0.00    +0.000 C 
ATOM     11  C   UNL     1       1.123   3.273  20.912  0.00  0.00    +0.000 C 
ATOM     12  C   UNL     1       1.345   4.631  20.258  0.00  0.00    +0.000 C 
ATOM     13  C   UNL     1       2.818   5.038  20.269  0.00  0.00    +0.000 C 
ENDBRANCH   7   8
BRANCH   1  14
ATOM     14  N   UNL     1       2.660   3.511  17.031  0.00  0.00    +0.000 N 
ATOM     15  H   UNL     1       2.155   3.267  17.876  0.00  0.00    +0.000 HD
ATOM     16  H   UNL     1       2.693   2.738  16.369  0.00  0.00    +0.000 HD
ENDBRANCH   1  14
TORSDOF 2
ENDMDL
MODEL 9
REMARK VINA RESULT:      -6.0      2.819      5.292
REMARK  Name = 
REMARK  2 active torsions:
REMARK  status: ('A' for Active; 'I' for Inactive)
REMARK    1  A    between atoms: N_1  and  C_2
REMARK    2  A    between atoms: C_8  and  N_9
REMARK                            x       y       z     vdW  Elec       q    Type
REMARK                         _______ _______ _______ _____ _____    ______ ____
ROOT
ATOM      1  C   UNL     1       3.655   4.874  18.866  0.00  0.00    +0.000 A 
ATOM      2  C   UNL     1       2.498   4.178  19.247  0.00  0.00    +0.000 A 
ATOM      3  C   UNL     1       1.989   3.166  18.442  0.00  0.00    +0.000 A 
ATOM      4 CL   UNL     1       0.532   2.366  18.888  0.00  0.00    +0.000 Cl
ATOM      5  C   UNL     1       2.652   2.803  17.279  0.00  0.00    +0.000 A 
ATOM      6  C   UNL     1       3.853   3.433  16.939  0.00  0.00    +0.000 A 
ATOM      7  C   UNL     1       4.410   4.460  17.728  0.00  0.00    +0.000 A 
ENDROOT
BRANCH   7   8
ATOM      8  N   UNL     1       5.624   5.046  17.377  0.00  0.00    +0.000 N 
ATOM      9  C   UNL     1       6.890   4.619  17.981  0.00  0.00    +0.000 C 
ATOM     10  C   UNL     1       7.539   5.768  18.752  0.00  0.00    +0.000 C 
ATOM     11  C   UNL     1       7.695   6.999  17.863  0.00  0.00    +0.000 C 
ATOM     12  C   UNL     1       6.345   7.408  17.290  0.00  0.00    +0.000 C 
ATOM     13  C   UNL     1       5.666   6.257  16.549  0.00  0.00    +0.000 C 
ENDBRANCH   7   8
BRANCH   1  14
ATOM     14  N   UNL     1       4.116   5.904  19.722  0.00  0.00    +0.000 N 
ATOM     15  H   UNL     1       4.737   6.561  19.264  0.00  0.00    +0.000 HD
ATOM     16  H   UNL     1       4.542   5.487  20.548  0.00  0.00    +0.000 HD
ENDBRANCH   1  14
TORSDOF 2
ENDMDL
