MODEL 1
REMARK VINA RESULT:      -8.8      0.000      0.000
REMARK  Name = 
REMARK  9 active torsions:
REMARK  status: ('A' for Active; 'I' for Inactive)
REMARK    1  A    between atoms: C_1  and  C_2
REMARK    2  A    between atoms: C_7  and  C_8
REMARK    3  A    between atoms: C_10  and  O_11
REMARK    4  A    between atoms: O_11  and  C_12
REMARK    5  A    between atoms: C_12  and  C_13
REMARK    6  A    between atoms: C_12  and  C_14
REMARK    7  A    between atoms: N_16  and  C_17
REMARK    8  A    between atoms: C_20  and  N_21
REMARK    9  A    between atoms: C_22  and  C_24
REMARK                            x       y       z     vdW  Elec       q    Type
REMARK                         _______ _______ _______ _____ _____    ______ ____
ROOT
ATOM      1  C   UNL     1       3.542   5.313  18.386  0.00  0.00    +0.000 A 
ATOM      2  N   UNL     1       4.541   4.870  17.633  0.00  0.00    +0.000 NA
ATOM      3  C   UNL     1       4.853   5.940  16.849  0.00  0.00    +0.000 A 
ATOM      4  N   UNL     1       4.110   7.023  17.037  0.00  0.00    +0.000 NA
ATOM      5  N   UNL     1       3.356   6.670  18.104  0.00  0.00    +0.000 N 
ENDROOT
BRANCH   1  12
ATOM      6  C   UNL     1       1.005   4.009  17.422  0.00  0.00    +0.000 C 
ATOM      7  C   UNL     1       1.517   3.855  18.829  0.00  0.00    +0.000 A 
ATOM      8  C   UNL     1       0.756   3.081  19.729  0.00  0.00    +0.000 A 
ATOM      9  C   UNL     1       1.170   2.887  21.045  0.00  0.00    +0.000 A 
ATOM     10  C   UNL     1       2.333   3.494  21.495  0.00  0.00    +0.000 A 
ATOM     11  C   UNL     1       3.070   4.305  20.629  0.00  0.00    +0.000 A 
ATOM     12  C   UNL     1       2.704   4.476  19.276  0.00  0.00    +0.000 A 
ENDBRANCH   1  12
BRANCH   5  13
ATOM     13  C   UNL     1       2.523   7.632  18.732  0.00  0.00    +0.000 A 
ATOM     14  C   UNL     1       2.013   8.685  17.967  0.00  0.00    +0.000 A 
ATOM     15  C   UNL     1       1.057   9.543  18.518  0.00  0.00    +0.000 A 
ATOM     16  C   UNL     1       0.632   9.389  19.840  0.00  0.00    +0.000 A 
ATOM     17  C   UNL     1       1.233   8.404  20.632  0.00  0.00    +0.000 A 
ATOM     18  C   UNL     1       2.167   7.520  20.081  0.00  0.00    +0.000 A 
BRANCH  16  19
ATOM     19  N   UNL     1      -0.387  10.168  20.422  0.00  0.00    +0.000 N 
ATOM     20  C   UNL     1      -0.220  11.265  21.255  0.00  0.00    +0.000 C 
ATOM     21  O   UNL     1       0.864  11.734  21.588  0.00  0.00    +0.000 OA
ATOM     22  H   UNL     1      -1.344   9.992  20.134  0.00  0.00    +0.000 HD
BRANCH  20  23
ATOM     23  C   UNL     1      -1.466  11.870  21.678  0.00  0.00    +0.000 A 
ATOM     24  C   UNL     1      -2.402  12.584  20.955  0.00  0.00    +0.000 A 
ATOM     25  C   UNL     1      -3.424  12.950  21.862  0.00  0.00    +0.000 A 
ATOM     26  C   UNL     1      -3.055  12.436  23.080  0.00  0.00    +0.000 A 
ATOM     27  O   UNL     1      -1.871  11.773  22.984  0.00  0.00    +0.000 OA
ENDBRANCH  20  23
ENDBRANCH  16  19
ENDBRANCH   5  13
BRANCH   3  28
ATOM     28  O   UNL     1       5.822   6.065  15.922  0.00  0.00    +0.000 OA
BRANCH  28  29
ATOM     29  C   UNL     1       6.499   4.847  15.614  0.00  0.00    +0.000 C 
ATOM     30  C   UNL     1       7.138   4.984  14.235  0.00  0.00    +0.000 C 
ATOM     31  C   UNL     1       7.587   4.647  16.669  0.00  0.00    +0.000 C 
ENDBRANCH  28  29
ENDBRANCH   3  28
TORSDOF 6
ENDMDL
MODEL 2
REMARK VINA RESULT:      -8.5      1.232      1.696
REMARK  Name = 
REMARK  9 active torsions:
REMARK  status: ('A' for Active; 'I' for Inactive)
REMARK    1  A    between atoms: C_1  and  C_2
REMARK    2  A    between atoms: C_7  and  C_8
REMARK    3  A    between atoms: C_10  and  O_11
REMARK    4  A    between atoms: O_11  and  C_12
REMARK    5  A    between atoms: C_12  and  C_13
REMARK    6  A    between atoms: C_12  and  C_14
REMARK    7  A    between atoms: N_16  and  C_17
REMARK    8  A    between atoms: C_20  and  N_21
REMARK    9  A    between atoms: C_22  and  C_24
REMARK                            x       y       z     vdW  Elec       q    Type
REMARK                         _______ _______ _______ _____ _____    ______ ____
ROOT
ATOM      1  C   UNL     1       3.710   5.415  18.681  0.00  0.00    +0.000 A 
ATOM      2  N   UNL     1       4.856   5.035  18.131  0.00  0.00    +0.000 NA
ATOM      3  C   UNL     1       5.217   6.105  17.368  0.00  0.00    +0.000 A 
ATOM      4  N   UNL     1       4.372   7.128  17.380  0.00  0.00    +0.000 NA
ATOM      5  N   UNL     1       3.472   6.744  18.315  0.00  0.00    +0.000 N 
ENDROOT
BRANCH   1  12
ATOM      6  C   UNL     1       1.308   4.118  17.410  0.00  0.00    +0.000 C 
ATOM      7  C   UNL     1       1.672   3.919  18.857  0.00  0.00    +0.000 A 
ATOM      8  C   UNL     1       0.832   3.104  19.644  0.00  0.00    +0.000 A 
ATOM      9  C   UNL     1       1.108   2.867  20.988  0.00  0.00    +0.000 A 
ATOM     10  C   UNL     1       2.208   3.471  21.579  0.00  0.00    +0.000 A 
ATOM     11  C   UNL     1       3.019   4.321  20.825  0.00  0.00    +0.000 A 
ATOM     12  C   UNL     1       2.795   4.537  19.448  0.00  0.00    +0.000 A 
ENDBRANCH   1  12
BRANCH   5  13
ATOM     13  C   UNL     1       2.471   7.650  18.748  0.00  0.00    +0.000 A 
ATOM     14  C   UNL     1       2.038   7.594  20.076  0.00  0.00    +0.000 A 
ATOM     15  C   UNL     1       1.182   8.582  20.570  0.00  0.00    +0.000 A 
ATOM     16  C   UNL     1       0.718   9.607  19.742  0.00  0.00    +0.000 A 
ATOM     17  C   UNL     1       1.064   9.590  18.387  0.00  0.00    +0.000 A 
ATOM     18  C   UNL     1       1.945   8.623  17.890  0.00  0.00    +0.000 A 
BRANCH  16  19
ATOM     19  N   UNL     1      -0.077  10.675  20.204  0.00  0.00    +0.000 N 
ATOM     20  C   UNL     1       0.350  11.765  20.948  0.00  0.00    +0.000 C 
ATOM     21  O   UNL     1       1.511  11.969  21.293  0.00  0.00    +0.000 OA
ATOM     22  H   UNL     1      -1.039  10.725  19.886  0.00  0.00    +0.000 HD
BRANCH  20  23
ATOM     23  C   UNL     1      -0.705  12.709  21.257  0.00  0.00    +0.000 A 
ATOM     24  C   UNL     1      -0.857  13.553  22.340  0.00  0.00    +0.000 A 
ATOM     25  C   UNL     1      -2.072  14.252  22.142  0.00  0.00    +0.000 A 
ATOM     26  C   UNL     1      -2.584  13.797  20.952  0.00  0.00    +0.000 A 
ATOM     27  O   UNL     1      -1.763  12.864  20.400  0.00  0.00    +0.000 OA
ENDBRANCH  20  23
ENDBRANCH  16  19
ENDBRANCH   5  13
BRANCH   3  28
ATOM     28  O   UNL     1       6.321   6.284  16.618  0.00  0.00    +0.000 OA
BRANCH  28  29
ATOM     29  C   UNL     1       7.489   6.622  17.365  0.00  0.00    +0.000 C 
ATOM     30  C   UNL     1       7.509   8.133  17.574  0.00  0.00    +0.000 C 
ATOM     31  C   UNL     1       7.388   5.916  18.718  0.00  0.00    +0.000 C 
ENDBRANCH  28  29
ENDBRANCH   3  28
TORSDOF 6
ENDMDL
MODEL 3
REMARK VINA RESULT:      -8.5      1.588      1.944
REMARK  Name = 
REMARK  9 active torsions:
REMARK  status: ('A' for Active; 'I' for Inactive)
REMARK    1  A    between atoms: C_1  and  C_2
REMARK    2  A    between atoms: C_7  and  C_8
REMARK    3  A    between atoms: C_10  and  O_11
REMARK    4  A    between atoms: O_11  and  C_12
REMARK    5  A    between atoms: C_12  and  C_13
REMARK    6  A    between atoms: C_12  and  C_14
REMARK    7  A    between atoms: N_16  and  C_17
REMARK    8  A    between atoms: C_20  and  N_21
REMARK    9  A    between atoms: C_22  and  C_24
REMARK                            x       y       z     vdW  Elec       q    Type
REMARK                         _______ _______ _______ _____ _____    ______ ____
ROOT
ATOM      1  C   UNL     1       3.816   5.284  18.743  0.00  0.00    +0.000 A 
ATOM      2  N   UNL     1       4.978   4.846  18.277  0.00  0.00    +0.000 NA
ATOM      3  C   UNL     1       5.411   5.863  17.480  0.00  0.00    +0.000 A 
ATOM      4  N   UNL     1       4.596   6.907  17.392  0.00  0.00    +0.000 NA
ATOM      5  N   UNL     1       3.637   6.597  18.294  0.00  0.00    +0.000 N 
ENDROOT
BRANCH   1  12
ATOM      6  C   UNL     1       1.356   4.129  17.446  0.00  0.00    +0.000 C 
ATOM      7  C   UNL     1       1.685   3.921  18.900  0.00  0.00    +0.000 A 
ATOM      8  C   UNL     1       0.784   3.168  19.681  0.00  0.00    +0.000 A 
ATOM      9  C   UNL     1       1.026   2.927  21.031  0.00  0.00    +0.000 A 
ATOM     10  C   UNL     1       2.152   3.466  21.634  0.00  0.00    +0.000 A 
ATOM     11  C   UNL     1       3.027   4.256  20.885  0.00  0.00    +0.000 A 
ATOM     12  C   UNL     1       2.837   4.473  19.503  0.00  0.00    +0.000 A 
ENDBRANCH   1  12
BRANCH   5  13
ATOM     13  C   UNL     1       2.640   7.551  18.624  0.00  0.00    +0.000 A 
ATOM     14  C   UNL     1       2.086   7.533  19.908  0.00  0.00    +0.000 A 
ATOM     15  C   UNL     1       1.232   8.563  20.310  0.00  0.00    +0.000 A 
ATOM     16  C   UNL     1       0.890   9.595  19.432  0.00  0.00    +0.000 A 
ATOM     17  C   UNL     1       1.358   9.543  18.114  0.00  0.00    +0.000 A 
ATOM     18  C   UNL     1       2.238   8.533  17.711  0.00  0.00    +0.000 A 
BRANCH  16  19
ATOM     19  N   UNL     1       0.104  10.702  19.807  0.00  0.00    +0.000 N 
ATOM     20  C   UNL     1      -1.198  10.968  19.409  0.00  0.00    +0.000 C 
ATOM     21  O   UNL     1      -1.870  10.246  18.679  0.00  0.00    +0.000 OA
ATOM     22  H   UNL     1       0.469  11.325  20.520  0.00  0.00    +0.000 HD
BRANCH  20  23
ATOM     23  C   UNL     1      -1.746  12.181  19.982  0.00  0.00    +0.000 A 
ATOM     24  C   UNL     1      -1.106  13.279  20.525  0.00  0.00    +0.000 A 
ATOM     25  C   UNL     1      -2.120  14.173  20.942  0.00  0.00    +0.000 A 
ATOM     26  C   UNL     1      -3.313  13.572  20.627  0.00  0.00    +0.000 A 
ATOM     27  O   UNL     1      -3.103  12.364  20.038  0.00  0.00    +0.000 OA
ENDBRANCH  20  23
ENDBRANCH  16  19
ENDBRANCH   5  13
BRANCH   3  28
ATOM     28  O   UNL     1       6.558   5.973  16.783  0.00  0.00    +0.000 OA
BRANCH  28  29
ATOM     29  C   UNL     1       7.662   6.458  17.545  0.00  0.00    +0.000 C 
ATOM     30  C   UNL     1       7.597   7.982  17.577  0.00  0.00    +0.000 C 
ATOM     31  C   UNL     1       7.518   5.907  18.964  0.00  0.00    +0.000 C 
ENDBRANCH  28  29
ENDBRANCH   3  28
TORSDOF 6
ENDMDL
MODEL 4
REMARK VINA RESULT:      -8.5      1.576      1.833
REMARK  Name = 
REMARK  9 active torsions:
REMARK  status: ('A' for Active; 'I' for Inactive)
REMARK    1  A    between atoms: C_1  and  C_2
REMARK    2  A    between atoms: C_7  and  C_8
REMARK    3  A    between atoms: C_10  and  O_11
REMARK    4  A    between atoms: O_11  and  C_12
REMARK    5  A    between atoms: C_12  and  C_13
REMARK    6  A    between atoms: C_12  and  C_14
REMARK    7  A    between atoms: N_16  and  C_17
REMARK    8  A    between atoms: C_20  and  N_21
REMARK    9  A    between atoms: C_22  and  C_24
REMARK                            x       y       z     vdW  Elec       q    Type
REMARK                         _______ _______ _______ _____ _____    ______ ____
ROOT
ATOM      1  C   UNL     1       4.022   4.521  18.394  0.00  0.00    +0.000 A 
ATOM      2  N   UNL     1       5.027   3.902  17.789  0.00  0.00    +0.000 NA
ATOM      3  C   UNL     1       5.512   4.839  16.927  0.00  0.00    +0.000 A 
ATOM      4  N   UNL     1       4.873   6.002  16.928  0.00  0.00    +0.000 NA
ATOM      5  N   UNL     1       4.002   5.848  17.951  0.00  0.00    +0.000 N 
ENDROOT
BRANCH   1  12
ATOM      6  C   UNL     1       1.180   4.030  17.530  0.00  0.00    +0.000 C 
ATOM      7  C   UNL     1       1.699   3.636  18.886  0.00  0.00    +0.000 A 
ATOM      8  C   UNL     1       0.800   3.029  19.788  0.00  0.00    +0.000 A 
ATOM      9  C   UNL     1       1.210   2.631  21.058  0.00  0.00    +0.000 A 
ATOM     10  C   UNL     1       2.515   2.865  21.463  0.00  0.00    +0.000 A 
ATOM     11  C   UNL     1       3.403   3.510  20.599  0.00  0.00    +0.000 A 
ATOM     12  C   UNL     1       3.031   3.877  19.288  0.00  0.00    +0.000 A 
ENDBRANCH   1  12
BRANCH   5  13
ATOM     13  C   UNL     1       3.224   6.950  18.392  0.00  0.00    +0.000 A 
ATOM     14  C   UNL     1       3.005   8.016  17.514  0.00  0.00    +0.000 A 
ATOM     15  C   UNL     1       2.106   9.028  17.861  0.00  0.00    +0.000 A 
ATOM     16  C   UNL     1       1.451   9.012  19.095  0.00  0.00    +0.000 A 
ATOM     17  C   UNL     1       1.764   8.004  20.013  0.00  0.00    +0.000 A 
ATOM     18  C   UNL     1       2.638   6.969  19.662  0.00  0.00    +0.000 A 
BRANCH  16  19
ATOM     19  N   UNL     1       0.473   9.957  19.464  0.00  0.00    +0.000 N 
ATOM     20  C   UNL     1      -0.664  10.298  18.746  0.00  0.00    +0.000 C 
ATOM     21  O   UNL     1      -0.998   9.793  17.679  0.00  0.00    +0.000 OA
ATOM     22  H   UNL     1       0.533  10.366  20.391  0.00  0.00    +0.000 HD
BRANCH  20  23
ATOM     23  C   UNL     1      -1.488  11.295  19.399  0.00  0.00    +0.000 A 
ATOM     24  C   UNL     1      -1.248  12.047  20.534  0.00  0.00    +0.000 A 
ATOM     25  C   UNL     1      -2.389  12.859  20.731  0.00  0.00    +0.000 A 
ATOM     26  C   UNL     1      -3.253  12.559  19.707  0.00  0.00    +0.000 A 
ATOM     27  O   UNL     1      -2.718  11.615  18.887  0.00  0.00    +0.000 OA
ENDBRANCH  20  23
ENDBRANCH  16  19
ENDBRANCH   5  13
BRANCH   3  28
ATOM     28  O   UNL     1       6.561   4.764  16.086  0.00  0.00    +0.000 OA
BRANCH  28  29
ATOM     29  C   UNL     1       6.250   5.082  14.731  0.00  0.00    +0.000 C 
ATOM     30  C   UNL     1       7.557   5.281  13.968  0.00  0.00    +0.000 C 
ATOM     31  C   UNL     1       5.487   3.894  14.144  0.00  0.00    +0.000 C 
ENDBRANCH  28  29
ENDBRANCH   3  28
TORSDOF 6
ENDMDL
MODEL 5
REMARK VINA RESULT:      -8.5      0.965      1.712
REMARK  Name = 
REMARK  9 active torsions:
REMARK  status: ('A' for Active; 'I' for Inactive)
REMARK    1  A    between atoms: C_1  and  C_2
REMARK    2  A    between atoms: C_7  and  C_8
REMARK    3  A    between atoms: C_10  and  O_11
REMARK    4  A    between atoms: O_11  and  C_12
REMARK    5  A    between atoms: C_12  and  C_13
REMARK    6  A    between atoms: C_12  and  C_14
REMARK    7  A    between atoms: N_16  and  C_17
REMARK    8  A    between atoms: C_20  and  N_21
REMARK    9  A    between atoms: C_22  and  C_24
REMARK                            x       y       z     vdW  Elec       q    Type
REMARK                         _______ _______ _______ _____ _____    ______ ____
ROOT
ATOM      1  C   UNL     1       3.687   5.081  17.573  0.00  0.00    +0.000 A 
ATOM      2  N   UNL     1       4.664   4.706  16.757  0.00  0.00    +0.000 NA
ATOM      3  C   UNL     1       5.072   5.874  16.184  0.00  0.00    +0.000 A 
ATOM      4  N   UNL     1       4.409   6.959  16.564  0.00  0.00    +0.000 NA
ATOM      5  N   UNL     1       3.610   6.477  17.544  0.00  0.00    +0.000 N 
ENDROOT
BRANCH   1  12
ATOM      6  C   UNL     1       4.621   3.365  19.864  0.00  0.00    +0.000 C 
ATOM      7  C   UNL     1       3.199   3.362  19.369  0.00  0.00    +0.000 A 
ATOM      8  C   UNL     1       2.280   2.499  20.003  0.00  0.00    +0.000 A 
ATOM      9  C   UNL     1       0.947   2.447  19.605  0.00  0.00    +0.000 A 
ATOM     10  C   UNL     1       0.516   3.228  18.544  0.00  0.00    +0.000 A 
ATOM     11  C   UNL     1       1.426   4.049  17.874  0.00  0.00    +0.000 A 
ATOM     12  C   UNL     1       2.770   4.164  18.289  0.00  0.00    +0.000 A 
ENDBRANCH   1  12
BRANCH   5  13
ATOM     13  C   UNL     1       2.840   7.370  18.332  0.00  0.00    +0.000 A 
ATOM     14  C   UNL     1       2.352   8.541  17.746  0.00  0.00    +0.000 A 
ATOM     15  C   UNL     1       1.452   9.348  18.449  0.00  0.00    +0.000 A 
ATOM     16  C   UNL     1       1.063   9.021  19.750  0.00  0.00    +0.000 A 
ATOM     17  C   UNL     1       1.645   7.910  20.370  0.00  0.00    +0.000 A 
ATOM     18  C   UNL     1       2.522   7.079  19.664  0.00  0.00    +0.000 A 
BRANCH  16  19
ATOM     19  N   UNL     1       0.097   9.748  20.475  0.00  0.00    +0.000 N 
ATOM     20  C   UNL     1       0.312  10.897  21.221  0.00  0.00    +0.000 C 
ATOM     21  O   UNL     1       1.393  11.469  21.335  0.00  0.00    +0.000 OA
ATOM     22  H   UNL     1      -0.876   9.481  20.370  0.00  0.00    +0.000 HD
BRANCH  20  23
ATOM     23  C   UNL     1      -0.888  11.424  21.837  0.00  0.00    +0.000 A 
ATOM     24  C   UNL     1      -1.357  11.296  23.131  0.00  0.00    +0.000 A 
ATOM     25  C   UNL     1      -2.580  12.003  23.191  0.00  0.00    +0.000 A 
ATOM     26  C   UNL     1      -2.783  12.523  21.937  0.00  0.00    +0.000 A 
ATOM     27  O   UNL     1      -1.762  12.184  21.105  0.00  0.00    +0.000 OA
ENDBRANCH  20  23
ENDBRANCH  16  19
ENDBRANCH   5  13
BRANCH   3  28
ATOM     28  O   UNL     1       6.066   6.090  15.302  0.00  0.00    +0.000 OA
BRANCH  28  29
ATOM     29  C   UNL     1       6.991   5.011  15.186  0.00  0.00    +0.000 C 
ATOM     30  C   UNL     1       7.356   4.533  16.589  0.00  0.00    +0.000 C 
ATOM     31  C   UNL     1       6.291   3.885  14.424  0.00  0.00    +0.000 C 
ENDBRANCH  28  29
ENDBRANCH   3  28
TORSDOF 6
ENDMDL
MODEL 6
REMARK VINA RESULT:      -8.5      0.695      1.122
REMARK  Name = 
REMARK  9 active torsions:
REMARK  status: ('A' for Active; 'I' for Inactive)
REMARK    1  A    between atoms: C_1  and  C_2
REMARK    2  A    between atoms: C_7  and  C_8
REMARK    3  A    between atoms: C_10  and  O_11
REMARK    4  A    between atoms: O_11  and  C_12
REMARK    5  A    between atoms: C_12  and  C_13
REMARK    6  A    between atoms: C_12  and  C_14
REMARK    7  A    between atoms: N_16  and  C_17
REMARK    8  A    between atoms: C_20  and  N_21
REMARK    9  A    between atoms: C_22  and  C_24
REMARK                            x       y       z     vdW  Elec       q    Type
REMARK                         _______ _______ _______ _____ _____    ______ ____
ROOT
ATOM      1  C   UNL     1       3.541   5.357  18.599  0.00  0.00    +0.000 A 
ATOM      2  N   UNL     1       4.621   4.950  17.945  0.00  0.00    +0.000 NA
ATOM      3  C   UNL     1       4.933   6.009  17.145  0.00  0.00    +0.000 A 
ATOM      4  N   UNL     1       4.115   7.051  17.232  0.00  0.00    +0.000 NA
ATOM      5  N   UNL     1       3.300   6.690  18.249  0.00  0.00    +0.000 N 
ENDROOT
BRANCH   1  12
ATOM      6  C   UNL     1       1.104   3.959  17.518  0.00  0.00    +0.000 C 
ATOM      7  C   UNL     1       1.545   3.837  18.952  0.00  0.00    +0.000 A 
ATOM      8  C   UNL     1       0.762   3.048  19.820  0.00  0.00    +0.000 A 
ATOM      9  C   UNL     1       1.111   2.883  21.158  0.00  0.00    +0.000 A 
ATOM     10  C   UNL     1       2.227   3.533  21.662  0.00  0.00    +0.000 A 
ATOM     11  C   UNL     1       2.983   4.359  20.826  0.00  0.00    +0.000 A 
ATOM     12  C   UNL     1       2.685   4.502  19.454  0.00  0.00    +0.000 A 
ENDBRANCH   1  12
BRANCH   5  13
ATOM     13  C   UNL     1       2.365   7.620  18.771  0.00  0.00    +0.000 A 
ATOM     14  C   UNL     1       1.979   7.511  20.110  0.00  0.00    +0.000 A 
ATOM     15  C   UNL     1       1.195   8.512  20.691  0.00  0.00    +0.000 A 
ATOM     16  C   UNL     1       0.756   9.605  19.939  0.00  0.00    +0.000 A 
ATOM     17  C   UNL     1       1.051   9.646  18.572  0.00  0.00    +0.000 A 
ATOM     18  C   UNL     1       1.861   8.666  17.989  0.00  0.00    +0.000 A 
BRANCH  16  19
ATOM     19  N   UNL     1       0.036  10.684  20.489  0.00  0.00    +0.000 N 
ATOM     20  C   UNL     1      -0.060  11.017  21.832  0.00  0.00    +0.000 C 
ATOM     21  O   UNL     1       0.502  10.420  22.746  0.00  0.00    +0.000 OA
ATOM     22  H   UNL     1      -0.374  11.357  19.851  0.00  0.00    +0.000 HD
BRANCH  20  23
ATOM     23  C   UNL     1      -0.861  12.198  22.083  0.00  0.00    +0.000 A 
ATOM     24  C   UNL     1      -1.531  13.025  21.202  0.00  0.00    +0.000 A 
ATOM     25  C   UNL     1      -2.147  14.033  21.981  0.00  0.00    +0.000 A 
ATOM     26  C   UNL     1      -1.821  13.760  23.286  0.00  0.00    +0.000 A 
ATOM     27  O   UNL     1      -1.045  12.646  23.365  0.00  0.00    +0.000 OA
ENDBRANCH  20  23
ENDBRANCH  16  19
ENDBRANCH   5  13
BRANCH   3  28
ATOM     28  O   UNL     1       5.964   6.160  16.293  0.00  0.00    +0.000 OA
BRANCH  28  29
ATOM     29  C   UNL     1       6.543   4.934  15.849  0.00  0.00    +0.000 C 
ATOM     30  C   UNL     1       7.166   5.161  14.475  0.00  0.00    +0.000 C 
ATOM     31  C   UNL     1       7.632   4.551  16.852  0.00  0.00    +0.000 C 
ENDBRANCH  28  29
ENDBRANCH   3  28
TORSDOF 6
ENDMDL
MODEL 7
REMARK VINA RESULT:      -8.5      1.066      1.578
REMARK  Name = 
REMARK  9 active torsions:
REMARK  status: ('A' for Active; 'I' for Inactive)
REMARK    1  A    between atoms: C_1  and  C_2
REMARK    2  A    between atoms: C_7  and  C_8
REMARK    3  A    between atoms: C_10  and  O_11
REMARK    4  A    between atoms: O_11  and  C_12
REMARK    5  A    between atoms: C_12  and  C_13
REMARK    6  A    between atoms: C_12  and  C_14
REMARK    7  A    between atoms: N_16  and  C_17
REMARK    8  A    between atoms: C_20  and  N_21
REMARK    9  A    between atoms: C_22  and  C_24
REMARK                            x       y       z     vdW  Elec       q    Type
REMARK                         _______ _______ _______ _____ _____    ______ ____
ROOT
ATOM      1  C   UNL     1       3.902   4.981  18.089  0.00  0.00    +0.000 A 
ATOM      2  N   UNL     1       4.945   4.614  17.356  0.00  0.00    +0.000 NA
ATOM      3  C   UNL     1       5.217   5.718  16.605  0.00  0.00    +0.000 A 
ATOM      4  N   UNL     1       4.409   6.753  16.796  0.00  0.00    +0.000 NA
ATOM      5  N   UNL     1       3.647   6.332  17.832  0.00  0.00    +0.000 N 
ENDROOT
BRANCH   1  12
ATOM      6  C   UNL     1       1.109   4.163  17.318  0.00  0.00    +0.000 C 
ATOM      7  C   UNL     1       1.781   3.683  18.576  0.00  0.00    +0.000 A 
ATOM      8  C   UNL     1       1.052   2.830  19.432  0.00  0.00    +0.000 A 
ATOM      9  C   UNL     1       1.611   2.340  20.609  0.00  0.00    +0.000 A 
ATOM     10  C   UNL     1       2.893   2.723  20.973  0.00  0.00    +0.000 A 
ATOM     11  C   UNL     1       3.607   3.608  20.161  0.00  0.00    +0.000 A 
ATOM     12  C   UNL     1       3.089   4.078  18.935  0.00  0.00    +0.000 A 
ENDBRANCH   1  12
BRANCH   5  13
ATOM     13  C   UNL     1       2.743   7.230  18.456  0.00  0.00    +0.000 A 
ATOM     14  C   UNL     1       2.333   6.973  19.767  0.00  0.00    +0.000 A 
ATOM     15  C   UNL     1       1.583   7.928  20.460  0.00  0.00    +0.000 A 
ATOM     16  C   UNL     1       1.200   9.122  19.845  0.00  0.00    +0.000 A 
ATOM     17  C   UNL     1       1.516   9.320  18.497  0.00  0.00    +0.000 A 
ATOM     18  C   UNL     1       2.294   8.385  17.805  0.00  0.00    +0.000 A 
BRANCH  16  19
ATOM     19  N   UNL     1       0.518  10.155  20.519  0.00  0.00    +0.000 N 
ATOM     20  C   UNL     1       0.428  10.332  21.892  0.00  0.00    +0.000 C 
ATOM     21  O   UNL     1       0.965   9.613  22.729  0.00  0.00    +0.000 OA
ATOM     22  H   UNL     1       0.134  10.912  19.964  0.00  0.00    +0.000 HD
BRANCH  20  23
ATOM     23  C   UNL     1      -0.331  11.503  22.279  0.00  0.00    +0.000 A 
ATOM     24  C   UNL     1      -1.530  11.604  22.959  0.00  0.00    +0.000 A 
ATOM     25  C   UNL     1      -1.822  12.985  23.063  0.00  0.00    +0.000 A 
ATOM     26  C   UNL     1      -0.786  13.642  22.448  0.00  0.00    +0.000 A 
ATOM     27  O   UNL     1       0.130  12.757  21.971  0.00  0.00    +0.000 OA
ENDBRANCH  20  23
ENDBRANCH  16  19
ENDBRANCH   5  13
BRANCH   3  28
ATOM     28  O   UNL     1       6.203   5.920  15.710  0.00  0.00    +0.000 OA
BRANCH  28  29
ATOM     29  C   UNL     1       6.577   4.754  14.977  0.00  0.00    +0.000 C 
ATOM     30  C   UNL     1       5.360   4.260  14.200  0.00  0.00    +0.000 C 
ATOM     31  C   UNL     1       7.682   5.160  14.002  0.00  0.00    +0.000 C 
ENDBRANCH  28  29
ENDBRANCH   3  28
TORSDOF 6
ENDMDL
MODEL 8
REMARK VINA RESULT:      -8.4      1.082      1.691
REMARK  Name = 
REMARK  9 active torsions:
REMARK  status: ('A' for Active; 'I' for Inactive)
REMARK    1  A    between atoms: C_1  and  C_2
REMARK    2  A    between atoms: C_7  and  C_8
REMARK    3  A    between atoms: C_10  and  O_11
REMARK    4  A    between atoms: O_11  and  C_12
REMARK    5  A    between atoms: C_12  and  C_13
REMARK    6  A    between atoms: C_12  and  C_14
REMARK    7  A    between atoms: N_16  and  C_17
REMARK    8  A    between atoms: C_20  and  N_21
REMARK    9  A    between atoms: C_22  and  C_24
REMARK                            x       y       z     vdW  Elec       q    Type
REMARK                         _______ _______ _______ _____ _____    ______ ____
ROOT
ATOM      1  C   UNL     1       3.795   4.939  17.454  0.00  0.00    +0.000 A 
ATOM      2  N   UNL     1       4.740   4.560  16.603  0.00  0.00    +0.000 NA
ATOM      3  C   UNL     1       5.118   5.722  16.001  0.00  0.00    +0.000 A 
ATOM      4  N   UNL     1       4.467   6.809  16.396  0.00  0.00    +0.000 NA
ATOM      5  N   UNL     1       3.711   6.335  17.413  0.00  0.00    +0.000 N 
ENDROOT
BRANCH   1  12
ATOM      6  C   UNL     1       4.816   3.301  19.765  0.00  0.00    +0.000 C 
ATOM      7  C   UNL     1       3.383   3.261  19.307  0.00  0.00    +0.000 A 
ATOM      8  C   UNL     1       2.495   2.400  19.986  0.00  0.00    +0.000 A 
ATOM      9  C   UNL     1       1.153   2.316  19.625  0.00  0.00    +0.000 A 
ATOM     10  C   UNL     1       0.682   3.061  18.555  0.00  0.00    +0.000 A 
ATOM     11  C   UNL     1       1.561   3.879  17.841  0.00  0.00    +0.000 A 
ATOM     12  C   UNL     1       2.913   4.027  18.218  0.00  0.00    +0.000 A 
ENDBRANCH   1  12
BRANCH   5  13
ATOM     13  C   UNL     1       2.970   7.234  18.222  0.00  0.00    +0.000 A 
ATOM     14  C   UNL     1       2.499   8.422  17.657  0.00  0.00    +0.000 A 
ATOM     15  C   UNL     1       1.625   9.238  18.381  0.00  0.00    +0.000 A 
ATOM     16  C   UNL     1       1.247   8.903  19.684  0.00  0.00    +0.000 A 
ATOM     17  C   UNL     1       1.813   7.773  20.282  0.00  0.00    +0.000 A 
ATOM     18  C   UNL     1       2.663   6.933  19.555  0.00  0.00    +0.000 A 
BRANCH  16  19
ATOM     19  N   UNL     1       0.306   9.641  20.429  0.00  0.00    +0.000 N 
ATOM     20  C   UNL     1       0.400  10.975  20.796  0.00  0.00    +0.000 C 
ATOM     21  O   UNL     1       1.325  11.723  20.492  0.00  0.00    +0.000 OA
ATOM     22  H   UNL     1      -0.583   9.200  20.642  0.00  0.00    +0.000 HD
BRANCH  20  23
ATOM     23  C   UNL     1      -0.741  11.455  21.548  0.00  0.00    +0.000 A 
ATOM     24  C   UNL     1      -1.732  12.350  21.192  0.00  0.00    +0.000 A 
ATOM     25  C   UNL     1      -2.595  12.464  22.307  0.00  0.00    +0.000 A 
ATOM     26  C   UNL     1      -2.085  11.631  23.272  0.00  0.00    +0.000 A 
ATOM     27  O   UNL     1      -0.962  11.008  22.825  0.00  0.00    +0.000 OA
ENDBRANCH  20  23
ENDBRANCH  16  19
ENDBRANCH   5  13
BRANCH   3  28
ATOM     28  O   UNL     1       6.074   5.933  15.076  0.00  0.00    +0.000 OA
BRANCH  28  29
ATOM     29  C   UNL     1       6.606   4.740  14.502  0.00  0.00    +0.000 C 
ATOM     30  C   UNL     1       5.514   4.074  13.671  0.00  0.00    +0.000 C 
ATOM     31  C   UNL     1       7.768   5.146  13.595  0.00  0.00    +0.000 C 
ENDBRANCH  28  29
ENDBRANCH   3  28
TORSDOF 6
ENDMDL
MODEL 9
REMARK VINA RESULT:      -8.3      1.263      1.697
REMARK  Name = 
REMARK  9 active torsions:
REMARK  status: ('A' for Active; 'I' for Inactive)
REMARK    1  A    between atoms: C_1  and  C_2
REMARK    2  A    between atoms: C_7  and  C_8
REMARK    3  A    between atoms: C_10  and  O_11
REMARK    4  A    between atoms: O_11  and  C_12
REMARK    5  A    between atoms: C_12  and  C_13
REMARK    6  A    between atoms: C_12  and  C_14
REMARK    7  A    between atoms: N_16  and  C_17
REMARK    8  A    between atoms: C_20  and  N_21
REMARK    9  A    between atoms: C_22  and  C_24
REMARK                            x       y       z     vdW  Elec       q    Type
REMARK                         _______ _______ _______ _____ _____    ______ ____
ROOT
ATOM      1  C   UNL     1       3.800   5.157  18.648  0.00  0.00    +0.000 A 
ATOM      2  N   UNL     1       4.930   4.681  18.141  0.00  0.00    +0.000 NA
ATOM      3  C   UNL     1       5.346   5.667  17.297  0.00  0.00    +0.000 A 
ATOM      4  N   UNL     1       4.550   6.727  17.219  0.00  0.00    +0.000 NA
ATOM      5  N   UNL     1       3.628   6.462  18.173  0.00  0.00    +0.000 N 
ENDROOT
BRANCH   1  12
ATOM      6  C   UNL     1       1.262   4.019  17.496  0.00  0.00    +0.000 C 
ATOM      7  C   UNL     1       1.652   3.844  18.939  0.00  0.00    +0.000 A 
ATOM      8  C   UNL     1       0.772   3.132  19.781  0.00  0.00    +0.000 A 
ATOM      9  C   UNL     1       1.070   2.924  21.125  0.00  0.00    +0.000 A 
ATOM     10  C   UNL     1       2.233   3.456  21.661  0.00  0.00    +0.000 A 
ATOM     11  C   UNL     1       3.088   4.206  20.852  0.00  0.00    +0.000 A 
ATOM     12  C   UNL     1       2.840   4.388  19.474  0.00  0.00    +0.000 A 
ENDBRANCH   1  12
BRANCH   5  13
ATOM     13  C   UNL     1       2.669   7.446  18.523  0.00  0.00    +0.000 A 
ATOM     14  C   UNL     1       2.167   7.468  19.827  0.00  0.00    +0.000 A 
ATOM     15  C   UNL     1       1.355   8.527  20.242  0.00  0.00    +0.000 A 
ATOM     16  C   UNL     1       1.002   9.548  19.357  0.00  0.00    +0.000 A 
ATOM     17  C   UNL     1       1.413   9.458  18.023  0.00  0.00    +0.000 A 
ATOM     18  C   UNL     1       2.252   8.419  17.606  0.00  0.00    +0.000 A 
BRANCH  16  19
ATOM     19  N   UNL     1       0.258  10.682  19.740  0.00  0.00    +0.000 N 
ATOM     20  C   UNL     1      -1.041  10.988  19.362  0.00  0.00    +0.000 C 
ATOM     21  O   UNL     1      -1.748  10.285  18.646  0.00  0.00    +0.000 OA
ATOM     22  H   UNL     1       0.655  11.295  20.444  0.00  0.00    +0.000 HD
BRANCH  20  23
ATOM     23  C   UNL     1      -1.540  12.220  19.938  0.00  0.00    +0.000 A 
ATOM     24  C   UNL     1      -0.903  13.427  20.152  0.00  0.00    +0.000 A 
ATOM     25  C   UNL     1      -1.853  14.287  20.750  0.00  0.00    +0.000 A 
ATOM     26  C   UNL     1      -3.011  13.559  20.862  0.00  0.00    +0.000 A 
ATOM     27  O   UNL     1      -2.839  12.303  20.369  0.00  0.00    +0.000 OA
ENDBRANCH  20  23
ENDBRANCH  16  19
ENDBRANCH   5  13
BRANCH   3  28
ATOM     28  O   UNL     1       6.462   5.733  16.546  0.00  0.00    +0.000 OA
BRANCH  28  29
ATOM     29  C   UNL     1       6.622   4.644  15.638  0.00  0.00    +0.000 C 
ATOM     30  C   UNL     1       5.253   4.283  15.069  0.00  0.00    +0.000 C 
ATOM     31  C   UNL     1       7.540   5.117  14.511  0.00  0.00    +0.000 C 
ENDBRANCH  28  29
ENDBRANCH   3  28
TORSDOF 6
ENDMDL
