MODEL 1
REMARK VINA RESULT:      -8.0      0.000      0.000
REMARK  Name = 
REMARK  7 active torsions:
REMARK  status: ('A' for Active; 'I' for Inactive)
REMARK    1  A    between atoms: C_1  and  O_2
REMARK    2  A    between atoms: O_2  and  C_3
REMARK    3  A    between atoms: C_6  and  C_7
REMARK    4  A    between atoms: C_11  and  C_12
REMARK    5  A    between atoms: C_16  and  O_17
REMARK    6  A    between atoms: O_17  and  C_18
REMARK    7  A    between atoms: N_21  and  C_22
REMARK                            x       y       z     vdW  Elec       q    Type
REMARK                         _______ _______ _______ _____ _____    ______ ____
ROOT
ATOM      1  C   UNL     1       3.583   6.218  17.813  0.00  0.00    +0.000 A 
ATOM      2  N   UNL     1       3.124   7.448  17.681  0.00  0.00    +0.000 NA
ATOM      3  C   UNL     1       2.406   7.718  18.811  0.00  0.00    +0.000 A 
ATOM      4  C   UNL     1       1.765   8.911  19.181  0.00  0.00    +0.000 A 
ATOM      5  C   UNL     1       1.129   8.981  20.426  0.00  0.00    +0.000 A 
ATOM      6  C   UNL     1       1.118   7.835  21.248  0.00  0.00    +0.000 A 
ATOM      7  C   UNL     1       1.723   6.622  20.878  0.00  0.00    +0.000 A 
ATOM      8  C   UNL     1       2.376   6.612  19.648  0.00  0.00    +0.000 A 
ATOM      9  N   UNL     1       3.097   5.656  18.974  0.00  0.00    +0.000 N 
ATOM     10  H   UNL     1       3.248   4.704  19.277  0.00  0.00    +0.000 HD
ENDROOT
BRANCH   5  11
ATOM     11  C   UNL     1       0.479  10.205  20.922  0.00  0.00    +0.000 A 
ATOM     12  N   UNL     1      -0.436  10.225  21.873  0.00  0.00    +0.000 NA
ATOM     13  C   UNL     1      -0.811  11.532  22.026  0.00  0.00    +0.000 A 
ATOM     14  C   UNL     1      -1.757  12.083  22.895  0.00  0.00    +0.000 A 
ATOM     15  C   UNL     1      -1.992  13.462  22.869  0.00  0.00    +0.000 A 
ATOM     16  C   UNL     1      -1.302  14.272  21.964  0.00  0.00    +0.000 A 
ATOM     17  C   UNL     1      -0.334  13.737  21.090  0.00  0.00    +0.000 A 
ATOM     18  C   UNL     1      -0.114  12.356  21.155  0.00  0.00    +0.000 A 
ATOM     19  N   UNL     1       0.724  11.494  20.485  0.00  0.00    +0.000 N 
ATOM     20  H   UNL     1       1.399  11.758  19.783  0.00  0.00    +0.000 HD
BRANCH  15  21
ATOM     21  O   UNL     1      -2.952  13.869  23.750  0.00  0.00    +0.000 OA
BRANCH  21  22
ATOM     22  C   UNL     1      -3.332  15.249  23.816  0.00  0.00    +0.000 C 
ATOM     23  C   UNL     1      -2.694  15.953  25.017  0.00  0.00    +0.000 C 
ATOM     24  C   UNL     1      -3.310  17.329  25.254  0.00  0.00    +0.000 C 
ATOM     25  N   UNL     1      -4.762  17.228  25.439  0.00  0.00    +0.000 NA
ATOM     26  C   UNL     1      -5.337  18.535  25.759  0.00  0.00    +0.000 C 
ATOM     27  C   UNL     1      -5.405  16.651  24.253  0.00  0.00    +0.000 C 
ATOM     28  C   UNL     1      -4.860  15.258  23.964  0.00  0.00    +0.000 C 
ENDBRANCH  21  22
ENDBRANCH  15  21
ENDBRANCH   5  11
BRANCH   1  32
ATOM     29  C   UNL     1       5.969   4.160  14.920  0.00  0.00    +0.000 A 
ATOM     30  C   UNL     1       5.857   5.549  14.846  0.00  0.00    +0.000 A 
ATOM     31  C   UNL     1       5.112   6.261  15.803  0.00  0.00    +0.000 A 
ATOM     32  C   UNL     1       4.455   5.575  16.832  0.00  0.00    +0.000 A 
ATOM     33  C   UNL     1       4.555   4.179  16.873  0.00  0.00    +0.000 A 
ATOM     34  C   UNL     1       5.304   3.473  15.931  0.00  0.00    +0.000 A 
BRANCH  29  36
ATOM     35  C   UNL     1       6.260   3.798  12.615  0.00  0.00    +0.000 C 
ATOM     36  O   UNL     1       6.715   3.560  13.945  0.00  0.00    +0.000 OA
ENDBRANCH  29  36
ENDBRANCH   1  32
TORSDOF 5
ENDMDL
MODEL 2
REMARK VINA RESULT:      -7.9      1.358      1.914
REMARK  Name = 
REMARK  7 active torsions:
REMARK  status: ('A' for Active; 'I' for Inactive)
REMARK    1  A    between atoms: C_1  and  O_2
REMARK    2  A    between atoms: O_2  and  C_3
REMARK    3  A    between atoms: C_6  and  C_7
REMARK    4  A    between atoms: C_11  and  C_12
REMARK    5  A    between atoms: C_16  and  O_17
REMARK    6  A    between atoms: O_17  and  C_18
REMARK    7  A    between atoms: N_21  and  C_22
REMARK                            x       y       z     vdW  Elec       q    Type
REMARK                         _______ _______ _______ _____ _____    ______ ____
ROOT
ATOM      1  C   UNL     1       3.617   6.229  17.808  0.00  0.00    +0.000 A 
ATOM      2  N   UNL     1       3.148   7.459  17.737  0.00  0.00    +0.000 NA
ATOM      3  C   UNL     1       2.407   7.658  18.867  0.00  0.00    +0.000 A 
ATOM      4  C   UNL     1       1.745   8.821  19.293  0.00  0.00    +0.000 A 
ATOM      5  C   UNL     1       1.086   8.813  20.527  0.00  0.00    +0.000 A 
ATOM      6  C   UNL     1       1.071   7.622  21.282  0.00  0.00    +0.000 A 
ATOM      7  C   UNL     1       1.697   6.438  20.854  0.00  0.00    +0.000 A 
ATOM      8  C   UNL     1       2.373   6.505  19.639  0.00  0.00    +0.000 A 
ATOM      9  N   UNL     1       3.116   5.597  18.925  0.00  0.00    +0.000 N 
ATOM     10  H   UNL     1       3.271   4.630  19.176  0.00  0.00    +0.000 HD
ENDROOT
BRANCH   5  11
ATOM     11  C   UNL     1       0.414  10.001  21.080  0.00  0.00    +0.000 A 
ATOM     12  N   UNL     1      -0.457   9.965  22.071  0.00  0.00    +0.000 NA
ATOM     13  C   UNL     1      -0.873  11.253  22.270  0.00  0.00    +0.000 A 
ATOM     14  C   UNL     1      -1.798  11.748  23.194  0.00  0.00    +0.000 A 
ATOM     15  C   UNL     1      -2.086  13.117  23.210  0.00  0.00    +0.000 A 
ATOM     16  C   UNL     1      -1.470  13.973  22.293  0.00  0.00    +0.000 A 
ATOM     17  C   UNL     1      -0.524  13.494  21.364  0.00  0.00    +0.000 A 
ATOM     18  C   UNL     1      -0.249  12.121  21.388  0.00  0.00    +0.000 A 
ATOM     19  N   UNL     1       0.589  11.307  20.661  0.00  0.00    +0.000 N 
ATOM     20  H   UNL     1       1.220  11.611  19.935  0.00  0.00    +0.000 HD
BRANCH  15  21
ATOM     21  O   UNL     1      -3.019  13.468  24.142  0.00  0.00    +0.000 OA
BRANCH  21  22
ATOM     22  C   UNL     1      -4.409  13.501  23.795  0.00  0.00    +0.000 C 
ATOM     23  C   UNL     1      -4.654  12.940  22.392  0.00  0.00    +0.000 C 
ATOM     24  C   UNL     1      -6.073  13.229  21.910  0.00  0.00    +0.000 C 
ATOM     25  N   UNL     1      -6.350  14.670  21.935  0.00  0.00    +0.000 NA
ATOM     26  C   UNL     1      -7.677  14.953  21.385  0.00  0.00    +0.000 C 
ATOM     27  C   UNL     1      -6.224  15.207  23.294  0.00  0.00    +0.000 C 
ATOM     28  C   UNL     1      -4.819  14.979  23.839  0.00  0.00    +0.000 C 
ENDBRANCH  21  22
ENDBRANCH  15  21
ENDBRANCH   5  11
BRANCH   1  32
ATOM     29  C   UNL     1       6.070   4.376  14.834  0.00  0.00    +0.000 A 
ATOM     30  C   UNL     1       6.027   5.769  14.909  0.00  0.00    +0.000 A 
ATOM     31  C   UNL     1       5.262   6.410  15.899  0.00  0.00    +0.000 A 
ATOM     32  C   UNL     1       4.515   5.651  16.808  0.00  0.00    +0.000 A 
ATOM     33  C   UNL     1       4.548   4.255  16.699  0.00  0.00    +0.000 A 
ATOM     34  C   UNL     1       5.317   3.618  15.725  0.00  0.00    +0.000 A 
BRANCH  29  36
ATOM     35  C   UNL     1       6.128   3.462  12.668  0.00  0.00    +0.000 C 
ATOM     36  O   UNL     1       6.844   3.847  13.838  0.00  0.00    +0.000 OA
ENDBRANCH  29  36
ENDBRANCH   1  32
TORSDOF 5
ENDMDL
MODEL 3
REMARK VINA RESULT:      -7.8      1.917      2.461
REMARK  Name = 
REMARK  7 active torsions:
REMARK  status: ('A' for Active; 'I' for Inactive)
REMARK    1  A    between atoms: C_1  and  O_2
REMARK    2  A    between atoms: O_2  and  C_3
REMARK    3  A    between atoms: C_6  and  C_7
REMARK    4  A    between atoms: C_11  and  C_12
REMARK    5  A    between atoms: C_16  and  O_17
REMARK    6  A    between atoms: O_17  and  C_18
REMARK    7  A    between atoms: N_21  and  C_22
REMARK                            x       y       z     vdW  Elec       q    Type
REMARK                         _______ _______ _______ _____ _____    ______ ____
ROOT
ATOM      1  C   UNL     1       3.054   6.872  18.408  0.00  0.00    +0.000 A 
ATOM      2  N   UNL     1       2.562   8.049  18.075  0.00  0.00    +0.000 NA
ATOM      3  C   UNL     1       1.848   8.490  19.153  0.00  0.00    +0.000 A 
ATOM      4  C   UNL     1       1.179   9.713  19.325  0.00  0.00    +0.000 A 
ATOM      5  C   UNL     1       0.553   9.978  20.549  0.00  0.00    +0.000 A 
ATOM      6  C   UNL     1       0.581   8.988  21.553  0.00  0.00    +0.000 A 
ATOM      7  C   UNL     1       1.214   7.745  21.385  0.00  0.00    +0.000 A 
ATOM      8  C   UNL     1       1.856   7.542  20.166  0.00  0.00    +0.000 A 
ATOM      9  N   UNL     1       2.595   6.504  19.654  0.00  0.00    +0.000 N 
ATOM     10  H   UNL     1       2.774   5.621  20.112  0.00  0.00    +0.000 HD
ENDROOT
BRANCH   5  11
ATOM     11  C   UNL     1      -0.123  11.252  20.839  0.00  0.00    +0.000 A 
ATOM     12  N   UNL     1       0.389  12.209  21.591  0.00  0.00    +0.000 NA
ATOM     13  C   UNL     1      -0.547  13.205  21.644  0.00  0.00    +0.000 A 
ATOM     14  C   UNL     1      -0.496  14.428  22.320  0.00  0.00    +0.000 A 
ATOM     15  C   UNL     1      -1.588  15.299  22.246  0.00  0.00    +0.000 A 
ATOM     16  C   UNL     1      -2.726  14.934  21.523  0.00  0.00    +0.000 A 
ATOM     17  C   UNL     1      -2.791  13.711  20.823  0.00  0.00    +0.000 A 
ATOM     18  C   UNL     1      -1.672  12.873  20.907  0.00  0.00    +0.000 A 
ATOM     19  N   UNL     1      -1.368  11.639  20.378  0.00  0.00    +0.000 N 
ATOM     20  H   UNL     1      -1.959  11.102  19.762  0.00  0.00    +0.000 HD
BRANCH  15  21
ATOM     21  O   UNL     1      -1.421  16.447  22.965  0.00  0.00    +0.000 OA
BRANCH  21  22
ATOM     22  C   UNL     1      -0.685  16.428  24.194  0.00  0.00    +0.000 C 
ATOM     23  C   UNL     1      -1.522  15.864  25.345  0.00  0.00    +0.000 C 
ATOM     24  C   UNL     1      -0.852  16.100  26.696  0.00  0.00    +0.000 C 
ATOM     25  N   UNL     1      -0.595  17.528  26.910  0.00  0.00    +0.000 NA
ATOM     26  C   UNL     1      -0.039  17.762  28.243  0.00  0.00    +0.000 C 
ATOM     27  C   UNL     1       0.293  18.064  25.873  0.00  0.00    +0.000 C 
ATOM     28  C   UNL     1      -0.320  17.889  24.489  0.00  0.00    +0.000 C 
ENDBRANCH  21  22
ENDBRANCH  15  21
ENDBRANCH   5  11
BRANCH   1  32
ATOM     29  C   UNL     1       5.435   4.456  15.802  0.00  0.00    +0.000 A 
ATOM     30  C   UNL     1       5.623   5.839  15.809  0.00  0.00    +0.000 A 
ATOM     31  C   UNL     1       4.885   6.659  16.681  0.00  0.00    +0.000 A 
ATOM     32  C   UNL     1       3.934   6.092  17.538  0.00  0.00    +0.000 A 
ATOM     33  C   UNL     1       3.739   4.706  17.496  0.00  0.00    +0.000 A 
ATOM     34  C   UNL     1       4.479   3.891  16.641  0.00  0.00    +0.000 A 
BRANCH  29  36
ATOM     35  C   UNL     1       5.809   3.869  13.556  0.00  0.00    +0.000 C 
ATOM     36  O   UNL     1       6.201   3.746  14.920  0.00  0.00    +0.000 OA
ENDBRANCH  29  36
ENDBRANCH   1  32
TORSDOF 5
ENDMDL
MODEL 4
REMARK VINA RESULT:      -7.8      1.950      2.544
REMARK  Name = 
REMARK  7 active torsions:
REMARK  status: ('A' for Active; 'I' for Inactive)
REMARK    1  A    between atoms: C_1  and  O_2
REMARK    2  A    between atoms: O_2  and  C_3
REMARK    3  A    between atoms: C_6  and  C_7
REMARK    4  A    between atoms: C_11  and  C_12
REMARK    5  A    between atoms: C_16  and  O_17
REMARK    6  A    between atoms: O_17  and  C_18
REMARK    7  A    between atoms: N_21  and  C_22
REMARK                            x       y       z     vdW  Elec       q    Type
REMARK                         _______ _______ _______ _____ _____    ______ ____
ROOT
ATOM      1  C   UNL     1       2.938   6.945  18.515  0.00  0.00    +0.000 A 
ATOM      2  N   UNL     1       2.463   8.143  18.235  0.00  0.00    +0.000 NA
ATOM      3  C   UNL     1       1.782   8.561  19.343  0.00  0.00    +0.000 A 
ATOM      4  C   UNL     1       1.143   9.789  19.572  0.00  0.00    +0.000 A 
ATOM      5  C   UNL     1       0.550  10.023  20.818  0.00  0.00    +0.000 A 
ATOM      6  C   UNL     1       0.580   8.999  21.788  0.00  0.00    +0.000 A 
ATOM      7  C   UNL     1       1.184   7.751  21.562  0.00  0.00    +0.000 A 
ATOM      8  C   UNL     1       1.793   7.578  20.323  0.00  0.00    +0.000 A 
ATOM      9  N   UNL     1       2.499   6.543  19.758  0.00  0.00    +0.000 N 
ATOM     10  H   UNL     1       2.670   5.642  20.181  0.00  0.00    +0.000 HD
ENDROOT
BRANCH   5  11
ATOM     11  C   UNL     1      -0.094  11.300  21.168  0.00  0.00    +0.000 A 
ATOM     12  N   UNL     1      -0.375  11.675  22.402  0.00  0.00    +0.000 NA
ATOM     13  C   UNL     1      -0.989  12.894  22.309  0.00  0.00    +0.000 A 
ATOM     14  C   UNL     1      -1.492  13.708  23.327  0.00  0.00    +0.000 A 
ATOM     15  C   UNL     1      -2.102  14.923  22.996  0.00  0.00    +0.000 A 
ATOM     16  C   UNL     1      -2.227  15.302  21.657  0.00  0.00    +0.000 A 
ATOM     17  C   UNL     1      -1.714  14.500  20.617  0.00  0.00    +0.000 A 
ATOM     18  C   UNL     1      -1.095  13.299  20.987  0.00  0.00    +0.000 A 
ATOM     19  N   UNL     1      -0.491  12.284  20.281  0.00  0.00    +0.000 N 
ATOM     20  H   UNL     1      -0.366  12.258  19.280  0.00  0.00    +0.000 HD
BRANCH  15  21
ATOM     21  O   UNL     1      -2.569  15.613  24.078  0.00  0.00    +0.000 OA
BRANCH  21  22
ATOM     22  C   UNL     1      -1.692  16.469  24.821  0.00  0.00    +0.000 C 
ATOM     23  C   UNL     1      -0.399  16.756  24.052  0.00  0.00    +0.000 C 
ATOM     24  C   UNL     1       0.646  17.424  24.941  0.00  0.00    +0.000 C 
ATOM     25  N   UNL     1       0.931  16.604  26.123  0.00  0.00    +0.000 NA
ATOM     26  C   UNL     1       2.000  17.200  26.925  0.00  0.00    +0.000 C 
ATOM     27  C   UNL     1      -0.278  16.406  26.930  0.00  0.00    +0.000 C 
ATOM     28  C   UNL     1      -1.366  15.715  26.117  0.00  0.00    +0.000 C 
ENDBRANCH  21  22
ENDBRANCH  15  21
ENDBRANCH   5  11
BRANCH   1  32
ATOM     29  C   UNL     1       5.215   4.563  15.789  0.00  0.00    +0.000 A 
ATOM     30  C   UNL     1       5.359   5.951  15.764  0.00  0.00    +0.000 A 
ATOM     31  C   UNL     1       4.655   6.761  16.672  0.00  0.00    +0.000 A 
ATOM     32  C   UNL     1       3.782   6.179  17.599  0.00  0.00    +0.000 A 
ATOM     33  C   UNL     1       3.629   4.788  17.590  0.00  0.00    +0.000 A 
ATOM     34  C   UNL     1       4.336   3.982  16.698  0.00  0.00    +0.000 A 
BRANCH  29  36
ATOM     35  C   UNL     1       6.941   4.623  14.193  0.00  0.00    +0.000 C 
ATOM     36  O   UNL     1       5.943   3.862  14.867  0.00  0.00    +0.000 OA
ENDBRANCH  29  36
ENDBRANCH   1  32
TORSDOF 5
ENDMDL
MODEL 5
REMARK VINA RESULT:      -7.5      1.672      2.077
REMARK  Name = 
REMARK  7 active torsions:
REMARK  status: ('A' for Active; 'I' for Inactive)
REMARK    1  A    between atoms: C_1  and  O_2
REMARK    2  A    between atoms: O_2  and  C_3
REMARK    3  A    between atoms: C_6  and  C_7
REMARK    4  A    between atoms: C_11  and  C_12
REMARK    5  A    between atoms: C_16  and  O_17
REMARK    6  A    between atoms: O_17  and  C_18
REMARK    7  A    between atoms: N_21  and  C_22
REMARK                            x       y       z     vdW  Elec       q    Type
REMARK                         _______ _______ _______ _____ _____    ______ ____
ROOT
ATOM      1  C   UNL     1       3.698   6.346  17.674  0.00  0.00    +0.000 A 
ATOM      2  N   UNL     1       3.145   7.525  17.461  0.00  0.00    +0.000 NA
ATOM      3  C   UNL     1       2.396   7.808  18.567  0.00  0.00    +0.000 A 
ATOM      4  C   UNL     1       1.658   8.967  18.857  0.00  0.00    +0.000 A 
ATOM      5  C   UNL     1       1.004   9.064  20.090  0.00  0.00    +0.000 A 
ATOM      6  C   UNL     1       1.074   7.974  20.984  0.00  0.00    +0.000 A 
ATOM      7  C   UNL     1       1.778   6.793  20.695  0.00  0.00    +0.000 A 
ATOM      8  C   UNL     1       2.443   6.758  19.472  0.00  0.00    +0.000 A 
ATOM      9  N   UNL     1       3.245   5.822  18.864  0.00  0.00    +0.000 N 
ATOM     10  H   UNL     1       3.467   4.905  19.228  0.00  0.00    +0.000 HD
ENDROOT
BRANCH   5  11
ATOM     11  C   UNL     1       0.255  10.261  20.504  0.00  0.00    +0.000 A 
ATOM     12  N   UNL     1      -0.020  10.567  21.758  0.00  0.00    +0.000 NA
ATOM     13  C   UNL     1      -0.750  11.724  21.726  0.00  0.00    +0.000 A 
ATOM     14  C   UNL     1      -1.294  12.453  22.787  0.00  0.00    +0.000 A 
ATOM     15  C   UNL     1      -2.026  13.615  22.518  0.00  0.00    +0.000 A 
ATOM     16  C   UNL     1      -2.229  14.023  21.197  0.00  0.00    +0.000 A 
ATOM     17  C   UNL     1      -1.677  13.308  20.115  0.00  0.00    +0.000 A 
ATOM     18  C   UNL     1      -0.936  12.160  20.424  0.00  0.00    +0.000 A 
ATOM     19  N   UNL     1      -0.262  11.231  19.665  0.00  0.00    +0.000 N 
ATOM     20  H   UNL     1      -0.168  11.250  18.661  0.00  0.00    +0.000 HD
BRANCH  15  21
ATOM     21  O   UNL     1      -2.520  14.221  23.637  0.00  0.00    +0.000 OA
BRANCH  21  22
ATOM     22  C   UNL     1      -3.903  14.080  23.983  0.00  0.00    +0.000 C 
ATOM     23  C   UNL     1      -4.227  12.656  24.443  0.00  0.00    +0.000 C 
ATOM     24  C   UNL     1      -5.732  12.426  24.541  0.00  0.00    +0.000 C 
ATOM     25  N   UNL     1      -6.389  12.706  23.259  0.00  0.00    +0.000 NA
ATOM     26  C   UNL     1      -7.817  12.395  23.329  0.00  0.00    +0.000 C 
ATOM     27  C   UNL     1      -6.178  14.099  22.853  0.00  0.00    +0.000 C 
ATOM     28  C   UNL     1      -4.691  14.403  22.707  0.00  0.00    +0.000 C 
ENDBRANCH  21  22
ENDBRANCH  15  21
ENDBRANCH   5  11
BRANCH   1  32
ATOM     29  C   UNL     1       6.232   4.401  14.830  0.00  0.00    +0.000 A 
ATOM     30  C   UNL     1       6.520   5.711  15.213  0.00  0.00    +0.000 A 
ATOM     31  C   UNL     1       5.730   6.367  16.174  0.00  0.00    +0.000 A 
ATOM     32  C   UNL     1       4.629   5.713  16.741  0.00  0.00    +0.000 A 
ATOM     33  C   UNL     1       4.339   4.409  16.323  0.00  0.00    +0.000 A 
ATOM     34  C   UNL     1       5.129   3.753  15.378  0.00  0.00    +0.000 A 
BRANCH  29  36
ATOM     35  C   UNL     1       6.440   3.588  12.633  0.00  0.00    +0.000 C 
ATOM     36  O   UNL     1       7.058   3.850  13.890  0.00  0.00    +0.000 OA
ENDBRANCH  29  36
ENDBRANCH   1  32
TORSDOF 5
ENDMDL
MODEL 6
REMARK VINA RESULT:      -7.4      2.197      3.325
REMARK  Name = 
REMARK  7 active torsions:
REMARK  status: ('A' for Active; 'I' for Inactive)
REMARK    1  A    between atoms: C_1  and  O_2
REMARK    2  A    between atoms: O_2  and  C_3
REMARK    3  A    between atoms: C_6  and  C_7
REMARK    4  A    between atoms: C_11  and  C_12
REMARK    5  A    between atoms: C_16  and  O_17
REMARK    6  A    between atoms: O_17  and  C_18
REMARK    7  A    between atoms: N_21  and  C_22
REMARK                            x       y       z     vdW  Elec       q    Type
REMARK                         _______ _______ _______ _____ _____    ______ ____
ROOT
ATOM      1  C   UNL     1       4.882   4.963  16.311  0.00  0.00    +0.000 A 
ATOM      2  N   UNL     1       4.081   6.010  16.373  0.00  0.00    +0.000 NA
ATOM      3  C   UNL     1       3.620   6.070  17.657  0.00  0.00    +0.000 A 
ATOM      4  C   UNL     1       2.784   7.031  18.248  0.00  0.00    +0.000 A 
ATOM      5  C   UNL     1       2.482   6.923  19.610  0.00  0.00    +0.000 A 
ATOM      6  C   UNL     1       2.995   5.826  20.334  0.00  0.00    +0.000 A 
ATOM      7  C   UNL     1       3.803   4.835  19.750  0.00  0.00    +0.000 A 
ATOM      8  C   UNL     1       4.107   5.006  18.403  0.00  0.00    +0.000 A 
ATOM      9  N   UNL     1       4.875   4.293  17.514  0.00  0.00    +0.000 N 
ATOM     10  H   UNL     1       5.355   3.425  17.709  0.00  0.00    +0.000 HD
ENDROOT
BRANCH   5  11
ATOM     11  C   UNL     1       1.662   7.913  20.326  0.00  0.00    +0.000 A 
ATOM     12  N   UNL     1       1.158   9.000  19.771  0.00  0.00    +0.000 NA
ATOM     13  C   UNL     1       0.492   9.670  20.760  0.00  0.00    +0.000 A 
ATOM     14  C   UNL     1      -0.203  10.881  20.692  0.00  0.00    +0.000 A 
ATOM     15  C   UNL     1      -0.804  11.393  21.847  0.00  0.00    +0.000 A 
ATOM     16  C   UNL     1      -0.687  10.709  23.059  0.00  0.00    +0.000 A 
ATOM     17  C   UNL     1      -0.003   9.479  23.144  0.00  0.00    +0.000 A 
ATOM     18  C   UNL     1       0.572   8.989  21.965  0.00  0.00    +0.000 A 
ATOM     19  N   UNL     1       1.295   7.859  21.658  0.00  0.00    +0.000 N 
ATOM     20  H   UNL     1       1.526   7.117  22.301  0.00  0.00    +0.000 HD
BRANCH  15  21
ATOM     21  O   UNL     1      -1.431  12.590  21.651  0.00  0.00    +0.000 OA
BRANCH  21  22
ATOM     22  C   UNL     1      -2.845  12.705  21.854  0.00  0.00    +0.000 C 
ATOM     23  C   UNL     1      -3.603  12.760  20.525  0.00  0.00    +0.000 C 
ATOM     24  C   UNL     1      -5.062  13.163  20.725  0.00  0.00    +0.000 C 
ATOM     25  N   UNL     1      -5.158  14.453  21.417  0.00  0.00    +0.000 NA
ATOM     26  C   UNL     1      -6.552  14.882  21.525  0.00  0.00    +0.000 C 
ATOM     27  C   UNL     1      -4.527  14.390  22.739  0.00  0.00    +0.000 C 
ATOM     28  C   UNL     1      -3.054  14.017  22.622  0.00  0.00    +0.000 C 
ENDBRANCH  21  22
ENDBRANCH  15  21
ENDBRANCH   5  11
BRANCH   1  32
ATOM     29  C   UNL     1       6.866   3.923  12.667  0.00  0.00    +0.000 A 
ATOM     30  C   UNL     1       7.551   4.671  13.625  0.00  0.00    +0.000 A 
ATOM     31  C   UNL     1       6.942   4.998  14.850  0.00  0.00    +0.000 A 
ATOM     32  C   UNL     1       5.628   4.591  15.110  0.00  0.00    +0.000 A 
ATOM     33  C   UNL     1       4.946   3.866  14.125  0.00  0.00    +0.000 A 
ATOM     34  C   UNL     1       5.553   3.530  12.914  0.00  0.00    +0.000 A 
BRANCH  29  36
ATOM     35  C   UNL     1       7.610   2.275  11.163  0.00  0.00    +0.000 C 
ATOM     36  O   UNL     1       7.543   3.656  11.510  0.00  0.00    +0.000 OA
ENDBRANCH  29  36
ENDBRANCH   1  32
TORSDOF 5
ENDMDL
MODEL 7
REMARK VINA RESULT:      -7.4      1.670      2.133
REMARK  Name = 
REMARK  7 active torsions:
REMARK  status: ('A' for Active; 'I' for Inactive)
REMARK    1  A    between atoms: C_1  and  O_2
REMARK    2  A    between atoms: O_2  and  C_3
REMARK    3  A    between atoms: C_6  and  C_7
REMARK    4  A    between atoms: C_11  and  C_12
REMARK    5  A    between atoms: C_16  and  O_17
REMARK    6  A    between atoms: O_17  and  C_18
REMARK    7  A    between atoms: N_21  and  C_22
REMARK                            x       y       z     vdW  Elec       q    Type
REMARK                         _______ _______ _______ _____ _____    ______ ____
ROOT
ATOM      1  C   UNL     1       3.268   6.676  18.124  0.00  0.00    +0.000 A 
ATOM      2  N   UNL     1       2.780   7.876  17.878  0.00  0.00    +0.000 NA
ATOM      3  C   UNL     1       2.041   8.226  18.972  0.00  0.00    +0.000 A 
ATOM      4  C   UNL     1       1.364   9.430  19.228  0.00  0.00    +0.000 A 
ATOM      5  C   UNL     1       0.710   9.592  20.454  0.00  0.00    +0.000 A 
ATOM      6  C   UNL     1       0.717   8.523  21.375  0.00  0.00    +0.000 A 
ATOM      7  C   UNL     1       1.358   7.299  21.120  0.00  0.00    +0.000 A 
ATOM      8  C   UNL     1       2.028   7.198  19.903  0.00  0.00    +0.000 A 
ATOM      9  N   UNL     1       2.782   6.206  19.324  0.00  0.00    +0.000 N 
ATOM     10  H   UNL     1       2.953   5.289  19.712  0.00  0.00    +0.000 HD
ENDROOT
BRANCH   5  11
ATOM     11  C   UNL     1       0.023  10.838  20.833  0.00  0.00    +0.000 A 
ATOM     12  N   UNL     1      -0.464  11.708  19.969  0.00  0.00    +0.000 NA
ATOM     13  C   UNL     1      -0.992  12.734  20.703  0.00  0.00    +0.000 A 
ATOM     14  C   UNL     1      -1.615  13.905  20.263  0.00  0.00    +0.000 A 
ATOM     15  C   UNL     1      -2.071  14.835  21.204  0.00  0.00    +0.000 A 
ATOM     16  C   UNL     1      -1.880  14.602  22.568  0.00  0.00    +0.000 A 
ATOM     17  C   UNL     1      -1.266  13.420  23.031  0.00  0.00    +0.000 A 
ATOM     18  C   UNL     1      -0.838  12.505  22.062  0.00  0.00    +0.000 A 
ATOM     19  N   UNL     1      -0.217  11.278  22.122  0.00  0.00    +0.000 N 
ATOM     20  H   UNL     1       0.029  10.785  22.966  0.00  0.00    +0.000 HD
BRANCH  15  21
ATOM     21  O   UNL     1      -2.640  15.943  20.645  0.00  0.00    +0.000 OA
BRANCH  21  22
ATOM     22  C   UNL     1      -4.045  16.185  20.792  0.00  0.00    +0.000 C 
ATOM     23  C   UNL     1      -4.353  16.951  22.082  0.00  0.00    +0.000 C 
ATOM     24  C   UNL     1      -5.849  16.964  22.384  0.00  0.00    +0.000 C 
ATOM     25  N   UNL     1      -6.377  15.599  22.469  0.00  0.00    +0.000 NA
ATOM     26  C   UNL     1      -7.790  15.611  22.851  0.00  0.00    +0.000 C 
ATOM     27  C   UNL     1      -6.186  14.880  21.204  0.00  0.00    +0.000 C 
ATOM     28  C   UNL     1      -4.707  14.801  20.844  0.00  0.00    +0.000 C 
ENDBRANCH  21  22
ENDBRANCH  15  21
ENDBRANCH   5  11
BRANCH   1  32
ATOM     29  C   UNL     1       5.737   4.443  15.438  0.00  0.00    +0.000 A 
ATOM     30  C   UNL     1       5.656   5.828  15.295  0.00  0.00    +0.000 A 
ATOM     31  C   UNL     1       4.884   6.597  16.184  0.00  0.00    +0.000 A 
ATOM     32  C   UNL     1       4.170   5.971  17.213  0.00  0.00    +0.000 A 
ATOM     33  C   UNL     1       4.241   4.578  17.324  0.00  0.00    +0.000 A 
ATOM     34  C   UNL     1       5.016   3.815  16.450  0.00  0.00    +0.000 A 
BRANCH  29  36
ATOM     35  C   UNL     1       5.989   3.765  13.200  0.00  0.00    +0.000 C 
ATOM     36  O   UNL     1       6.514   3.784  14.526  0.00  0.00    +0.000 OA
ENDBRANCH  29  36
ENDBRANCH   1  32
TORSDOF 5
ENDMDL
MODEL 8
REMARK VINA RESULT:      -7.4      2.375      3.195
REMARK  Name = 
REMARK  7 active torsions:
REMARK  status: ('A' for Active; 'I' for Inactive)
REMARK    1  A    between atoms: C_1  and  O_2
REMARK    2  A    between atoms: O_2  and  C_3
REMARK    3  A    between atoms: C_6  and  C_7
REMARK    4  A    between atoms: C_11  and  C_12
REMARK    5  A    between atoms: C_16  and  O_17
REMARK    6  A    between atoms: O_17  and  C_18
REMARK    7  A    between atoms: N_21  and  C_22
REMARK                            x       y       z     vdW  Elec       q    Type
REMARK                         _______ _______ _______ _____ _____    ______ ____
ROOT
ATOM      1  C   UNL     1       4.571   5.276  16.673  0.00  0.00    +0.000 A 
ATOM      2  N   UNL     1       3.854   6.382  16.714  0.00  0.00    +0.000 NA
ATOM      3  C   UNL     1       3.293   6.437  17.958  0.00  0.00    +0.000 A 
ATOM      4  C   UNL     1       2.491   7.444  18.519  0.00  0.00    +0.000 A 
ATOM      5  C   UNL     1       2.070   7.314  19.847  0.00  0.00    +0.000 A 
ATOM      6  C   UNL     1       2.431   6.154  20.564  0.00  0.00    +0.000 A 
ATOM      7  C   UNL     1       3.202   5.120  20.007  0.00  0.00    +0.000 A 
ATOM      8  C   UNL     1       3.630   5.311  18.696  0.00  0.00    +0.000 A 
ATOM      9  N   UNL     1       4.410   4.567  17.844  0.00  0.00    +0.000 N 
ATOM     10  H   UNL     1       4.801   3.656  18.041  0.00  0.00    +0.000 HD
ENDROOT
BRANCH   5  11
ATOM     11  C   UNL     1       1.274   8.344  20.535  0.00  0.00    +0.000 A 
ATOM     12  N   UNL     1       1.015   9.538  20.035  0.00  0.00    +0.000 NA
ATOM     13  C   UNL     1       0.283  10.205  20.978  0.00  0.00    +0.000 A 
ATOM     14  C   UNL     1      -0.228  11.506  20.941  0.00  0.00    +0.000 A 
ATOM     15  C   UNL     1      -0.944  11.993  22.040  0.00  0.00    +0.000 A 
ATOM     16  C   UNL     1      -1.122  11.193  23.170  0.00  0.00    +0.000 A 
ATOM     17  C   UNL     1      -0.625   9.874  23.221  0.00  0.00    +0.000 A 
ATOM     18  C   UNL     1       0.072   9.414  22.097  0.00  0.00    +0.000 A 
ATOM     19  N   UNL     1       0.685   8.223  21.780  0.00  0.00    +0.000 N 
ATOM     20  H   UNL     1       0.707   7.401  22.363  0.00  0.00    +0.000 HD
BRANCH  15  21
ATOM     21  O   UNL     1      -1.371  13.281  21.886  0.00  0.00    +0.000 OA
BRANCH  21  22
ATOM     22  C   UNL     1      -2.770  13.569  21.773  0.00  0.00    +0.000 C 
ATOM     23  C   UNL     1      -3.549  13.072  22.994  0.00  0.00    +0.000 C 
ATOM     24  C   UNL     1      -5.055  13.120  22.758  0.00  0.00    +0.000 C 
ATOM     25  N   UNL     1      -5.424  12.341  21.571  0.00  0.00    +0.000 NA
ATOM     26  C   UNL     1      -6.877  12.311  21.400  0.00  0.00    +0.000 C 
ATOM     27  C   UNL     1      -4.768  12.868  20.370  0.00  0.00    +0.000 C 
ATOM     28  C   UNL     1      -3.252  12.830  20.518  0.00  0.00    +0.000 C 
ENDBRANCH  21  22
ENDBRANCH  15  21
ENDBRANCH   5  11
BRANCH   1  32
ATOM     29  C   UNL     1       6.741   4.132  13.170  0.00  0.00    +0.000 A 
ATOM     30  C   UNL     1       7.289   5.085  14.028  0.00  0.00    +0.000 A 
ATOM     31  C   UNL     1       6.621   5.456  15.208  0.00  0.00    +0.000 A 
ATOM     32  C   UNL     1       5.382   4.884  15.521  0.00  0.00    +0.000 A 
ATOM     33  C   UNL     1       4.834   3.950  14.633  0.00  0.00    +0.000 A 
ATOM     34  C   UNL     1       5.502   3.572  13.469  0.00  0.00    +0.000 A 
BRANCH  29  36
ATOM     35  C   UNL     1       7.097   2.623  11.401  0.00  0.00    +0.000 C 
ATOM     36  O   UNL     1       7.467   3.838  12.049  0.00  0.00    +0.000 OA
ENDBRANCH  29  36
ENDBRANCH   1  32
TORSDOF 5
ENDMDL
MODEL 9
REMARK VINA RESULT:      -7.3      1.988     13.139
REMARK  Name = 
REMARK  7 active torsions:
REMARK  status: ('A' for Active; 'I' for Inactive)
REMARK    1  A    between atoms: C_1  and  O_2
REMARK    2  A    between atoms: O_2  and  C_3
REMARK    3  A    between atoms: C_6  and  C_7
REMARK    4  A    between atoms: C_11  and  C_12
REMARK    5  A    between atoms: C_16  and  O_17
REMARK    6  A    between atoms: O_17  and  C_18
REMARK    7  A    between atoms: N_21  and  C_22
REMARK                            x       y       z     vdW  Elec       q    Type
REMARK                         _______ _______ _______ _____ _____    ______ ____
ROOT
ATOM      1  C   UNL     1      -1.321  12.646  21.885  0.00  0.00    +0.000 A 
ATOM      2  N   UNL     1      -1.000  11.403  22.191  0.00  0.00    +0.000 NA
ATOM      3  C   UNL     1      -0.298  10.911  21.127  0.00  0.00    +0.000 A 
ATOM      4  C   UNL     1       0.313   9.655  20.981  0.00  0.00    +0.000 A 
ATOM      5  C   UNL     1       1.035   9.384  19.813  0.00  0.00    +0.000 A 
ATOM      6  C   UNL     1       1.088  10.368  18.803  0.00  0.00    +0.000 A 
ATOM      7  C   UNL     1       0.452  11.616  18.918  0.00  0.00    +0.000 A 
ATOM      8  C   UNL     1      -0.222  11.855  20.112  0.00  0.00    +0.000 A 
ATOM      9  N   UNL     1      -0.915  12.936  20.601  0.00  0.00    +0.000 N 
ATOM     10  H   UNL     1      -1.095  13.798  20.105  0.00  0.00    +0.000 HD
ENDROOT
BRANCH   5  11
ATOM     11  C   UNL     1       1.755   8.119  19.596  0.00  0.00    +0.000 A 
ATOM     12  N   UNL     1       2.389   7.808  18.481  0.00  0.00    +0.000 NA
ATOM     13  C   UNL     1       2.897   6.551  18.658  0.00  0.00    +0.000 A 
ATOM     14  C   UNL     1       3.639   5.766  17.771  0.00  0.00    +0.000 A 
ATOM     15  C   UNL     1       4.048   4.486  18.164  0.00  0.00    +0.000 A 
ATOM     16  C   UNL     1       3.694   3.994  19.423  0.00  0.00    +0.000 A 
ATOM     17  C   UNL     1       2.958   4.777  20.336  0.00  0.00    +0.000 A 
ATOM     18  C   UNL     1       2.581   6.058  19.915  0.00  0.00    +0.000 A 
ATOM     19  N   UNL     1       1.880   7.085  20.506  0.00  0.00    +0.000 N 
ATOM     20  H   UNL     1       1.511   7.080  21.444  0.00  0.00    +0.000 HD
BRANCH  15  21
ATOM     21  O   UNL     1       4.745   3.816  17.201  0.00  0.00    +0.000 OA
BRANCH  21  22
ATOM     22  C   UNL     1       5.186   4.500  16.021  0.00  0.00    +0.000 C 
ATOM     23  C   UNL     1       5.547   3.519  14.902  0.00  0.00    +0.000 C 
ATOM     24  C   UNL     1       6.276   4.217  13.757  0.00  0.00    +0.000 C 
ATOM     25  N   UNL     1       7.481   4.897  14.242  0.00  0.00    +0.000 NA
ATOM     26  C   UNL     1       8.228   5.486  13.130  0.00  0.00    +0.000 C 
ATOM     27  C   UNL     1       7.145   5.917  15.241  0.00  0.00    +0.000 C 
ATOM     28  C   UNL     1       6.433   5.292  16.435  0.00  0.00    +0.000 C 
ENDBRANCH  21  22
ENDBRANCH  15  21
ENDBRANCH   5  11
BRANCH   1  32
ATOM     29  C   UNL     1      -3.408  15.426  24.377  0.00  0.00    +0.000 A 
ATOM     30  C   UNL     1      -3.754  14.075  24.427  0.00  0.00    +0.000 A 
ATOM     31  C   UNL     1      -3.062  13.129  23.650  0.00  0.00    +0.000 A 
ATOM     32  C   UNL     1      -2.030  13.541  22.798  0.00  0.00    +0.000 A 
ATOM     33  C   UNL     1      -1.717  14.904  22.740  0.00  0.00    +0.000 A 
ATOM     34  C   UNL     1      -2.394  15.842  23.520  0.00  0.00    +0.000 A 
BRANCH  29  36
ATOM     35  C   UNL     1      -3.681  17.617  25.186  0.00  0.00    +0.000 C 
ATOM     36  O   UNL     1      -4.138  16.267  25.170  0.00  0.00    +0.000 OA
ENDBRANCH  29  36
ENDBRANCH   1  32
TORSDOF 5
ENDMDL
