MODEL 1
REMARK VINA RESULT:      -6.6      0.000      0.000
REMARK  Name = 
REMARK  6 active torsions:
REMARK  status: ('A' for Active; 'I' for Inactive)
REMARK    1  A    between atoms: C_1  and  O_2
REMARK    2  A    between atoms: O_2  and  C_3
REMARK    3  A    between atoms: C_3  and  C_5
REMARK    4  A    between atoms: C_5  and  C_6
REMARK    5  A    between atoms: C_13  and  S_14
REMARK    6  A    between atoms: N_15  and  C_16
REMARK                            x       y       z     vdW  Elec       q    Type
REMARK                         _______ _______ _______ _____ _____    ______ ____
ROOT
ATOM      1  C   UNL     1       5.812   4.904  18.122  0.00  0.00    +0.000 C 
ATOM      2  C   UNL     1       6.891   4.275  17.173  0.00  0.00    +0.000 C 
ATOM      3  O   UNL     1       8.097   4.403  17.384  0.00  0.00    +0.000 OA
ATOM      4  N   UNL     1       6.494   3.531  16.096  0.00  0.00    +0.000 N 
ATOM      5  C   UNL     1       5.111   3.464  15.702  0.00  0.00    +0.000 C 
ATOM      6  C   UNL     1       4.229   3.389  16.943  0.00  0.00    +0.000 C 
ATOM      7  N   UNL     1       4.376   4.635  17.715  0.00  0.00    +0.000 N 
ATOM      8  C   UNL     1       3.298   5.403  18.166  0.00  0.00    +0.000 C 
ATOM      9  N   UNL     1       3.478   6.518  18.816  0.00  0.00    +0.000 NA
ATOM     10  H   UNL     1       7.228   3.307  15.437  0.00  0.00    +0.000 HD
ENDROOT
BRANCH   9  11
ATOM     11  C   UNL     1       2.481   7.410  19.257  0.00  0.00    +0.000 A 
ATOM     12  C   UNL     1       1.987   7.276  20.562  0.00  0.00    +0.000 A 
ATOM     13  C   UNL     1       1.042   8.175  21.069  0.00  0.00    +0.000 A 
ATOM     14  C   UNL     1       0.575   9.205  20.263  0.00  0.00    +0.000 A 
ATOM     15  F   UNL     1      -0.349  10.053  20.734  0.00  0.00    +0.000 F 
ATOM     16  C   UNL     1       1.074   9.382  18.982  0.00  0.00    +0.000 A 
ATOM     17  C   UNL     1       2.057   8.513  18.504  0.00  0.00    +0.000 A 
ENDBRANCH   9  11
BRANCH   8  18
ATOM     18  S   UNL     1       1.657   4.809  17.806  0.00  0.00    +0.000 S 
ATOM     19  H   UNL     1       2.012   3.622  17.313  0.00  0.00    +0.000 HD
ENDBRANCH   8  18
BRANCH   1  20
ATOM     20  C   UNL     1       6.244   6.362  18.316  0.00  0.00    +0.000 C 
BRANCH  20  21
ATOM     21  C   UNL     1       6.444   7.082  17.006  0.00  0.00    +0.000 C 
ATOM     22  O   UNL     1       5.617   7.144  16.097  0.00  0.00    +0.000 OA
BRANCH  21  24
ATOM     23  C   UNL     1       7.882   8.745  17.772  0.00  0.00    +0.000 C 
ATOM     24  O   UNL     1       7.698   7.597  16.945  0.00  0.00    +0.000 OA
ENDBRANCH  21  24
ENDBRANCH  20  21
ENDBRANCH   1  20
TORSDOF 5
ENDMDL
MODEL 2
REMARK VINA RESULT:      -6.5      0.881      1.046
REMARK  Name = 
REMARK  6 active torsions:
REMARK  status: ('A' for Active; 'I' for Inactive)
REMARK    1  A    between atoms: C_1  and  O_2
REMARK    2  A    between atoms: O_2  and  C_3
REMARK    3  A    between atoms: C_3  and  C_5
REMARK    4  A    between atoms: C_5  and  C_6
REMARK    5  A    between atoms: C_13  and  S_14
REMARK    6  A    between atoms: N_15  and  C_16
REMARK                            x       y       z     vdW  Elec       q    Type
REMARK                         _______ _______ _______ _____ _____    ______ ____
ROOT
ATOM      1  C   UNL     1       5.796   5.160  17.488  0.00  0.00    +0.000 C 
ATOM      2  C   UNL     1       6.731   4.355  16.520  0.00  0.00    +0.000 C 
ATOM      3  O   UNL     1       7.935   4.595  16.429  0.00  0.00    +0.000 OA
ATOM      4  N   UNL     1       6.214   3.331  15.776  0.00  0.00    +0.000 N 
ATOM      5  C   UNL     1       4.796   3.092  15.716  0.00  0.00    +0.000 C 
ATOM      6  C   UNL     1       4.182   3.308  17.094  0.00  0.00    +0.000 C 
ATOM      7  N   UNL     1       4.345   4.721  17.478  0.00  0.00    +0.000 N 
ATOM      8  C   UNL     1       3.300   5.527  17.941  0.00  0.00    +0.000 C 
ATOM      9  N   UNL     1       3.485   6.783  18.236  0.00  0.00    +0.000 NA
ATOM     10  H   UNL     1       6.826   2.975  15.053  0.00  0.00    +0.000 HD
ENDROOT
BRANCH   9  11
ATOM     11  C   UNL     1       2.504   7.710  18.640  0.00  0.00    +0.000 A 
ATOM     12  C   UNL     1       2.090   7.710  19.979  0.00  0.00    +0.000 A 
ATOM     13  C   UNL     1       1.164   8.651  20.445  0.00  0.00    +0.000 A 
ATOM     14  C   UNL     1       0.637   9.587  19.566  0.00  0.00    +0.000 A 
ATOM     15  F   UNL     1      -0.268  10.473  20.001  0.00  0.00    +0.000 F 
ATOM     16  C   UNL     1       1.058   9.632  18.246  0.00  0.00    +0.000 A 
ATOM     17  C   UNL     1       2.022   8.725  17.803  0.00  0.00    +0.000 A 
ENDBRANCH   9  11
BRANCH   8  18
ATOM     18  S   UNL     1       1.692   4.777  18.101  0.00  0.00    +0.000 S 
ATOM     19  H   UNL     1       1.133   5.344  17.031  0.00  0.00    +0.000 HD
ENDBRANCH   8  18
BRANCH   1  20
ATOM     20  C   UNL     1       6.103   6.637  17.212  0.00  0.00    +0.000 C 
BRANCH  20  21
ATOM     21  C   UNL     1       7.392   7.086  17.854  0.00  0.00    +0.000 C 
ATOM     22  O   UNL     1       7.881   6.604  18.876  0.00  0.00    +0.000 OA
BRANCH  21  24
ATOM     23  C   UNL     1       8.260   9.240  18.027  0.00  0.00    +0.000 C 
ATOM     24  O   UNL     1       7.901   8.148  17.181  0.00  0.00    +0.000 OA
ENDBRANCH  21  24
ENDBRANCH  20  21
ENDBRANCH   1  20
TORSDOF 5
ENDMDL
MODEL 3
REMARK VINA RESULT:      -6.4      0.083      1.028
REMARK  Name = 
REMARK  6 active torsions:
REMARK  status: ('A' for Active; 'I' for Inactive)
REMARK    1  A    between atoms: C_1  and  O_2
REMARK    2  A    between atoms: O_2  and  C_3
REMARK    3  A    between atoms: C_3  and  C_5
REMARK    4  A    between atoms: C_5  and  C_6
REMARK    5  A    between atoms: C_13  and  S_14
REMARK    6  A    between atoms: N_15  and  C_16
REMARK                            x       y       z     vdW  Elec       q    Type
REMARK                         _______ _______ _______ _____ _____    ______ ____
ROOT
ATOM      1  C   UNL     1       5.836   4.901  18.124  0.00  0.00    +0.000 C 
ATOM      2  C   UNL     1       6.891   4.270  17.150  0.00  0.00    +0.000 C 
ATOM      3  O   UNL     1       8.102   4.379  17.343  0.00  0.00    +0.000 OA
ATOM      4  N   UNL     1       6.466   3.549  16.068  0.00  0.00    +0.000 N 
ATOM      5  C   UNL     1       5.077   3.508  15.694  0.00  0.00    +0.000 C 
ATOM      6  C   UNL     1       4.213   3.427  16.947  0.00  0.00    +0.000 C 
ATOM      7  N   UNL     1       4.390   4.659  17.736  0.00  0.00    +0.000 N 
ATOM      8  C   UNL     1       3.330   5.435  18.215  0.00  0.00    +0.000 C 
ATOM      9  N   UNL     1       3.537   6.537  18.880  0.00  0.00    +0.000 NA
ATOM     10  H   UNL     1       7.187   3.324  15.394  0.00  0.00    +0.000 HD
ENDROOT
BRANCH   9  11
ATOM     11  C   UNL     1       2.560   7.437  19.349  0.00  0.00    +0.000 A 
ATOM     12  C   UNL     1       2.117   8.455  18.494  0.00  0.00    +0.000 A 
ATOM     13  C   UNL     1       1.103   9.336  18.890  0.00  0.00    +0.000 A 
ATOM     14  C   UNL     1       0.539   9.209  20.152  0.00  0.00    +0.000 A 
ATOM     15  F   UNL     1      -0.412  10.065  20.545  0.00  0.00    +0.000 F 
ATOM     16  C   UNL     1       0.933   8.188  21.002  0.00  0.00    +0.000 A 
ATOM     17  C   UNL     1       1.906   7.281  20.578  0.00  0.00    +0.000 A 
ENDBRANCH   9  11
BRANCH   8  18
ATOM     18  S   UNL     1       1.676   4.870  17.872  0.00  0.00    +0.000 S 
ATOM     19  H   UNL     1       1.447   4.291  19.051  0.00  0.00    +0.000 HD
ENDBRANCH   8  18
BRANCH   1  20
ATOM     20  C   UNL     1       6.293   6.349  18.334  0.00  0.00    +0.000 C 
BRANCH  20  21
ATOM     21  C   UNL     1       6.472   7.090  17.032  0.00  0.00    +0.000 C 
ATOM     22  O   UNL     1       5.636   7.156  16.132  0.00  0.00    +0.000 OA
BRANCH  21  24
ATOM     23  C   UNL     1       7.895   8.770  17.791  0.00  0.00    +0.000 C 
ATOM     24  O   UNL     1       7.721   7.617  16.967  0.00  0.00    +0.000 OA
ENDBRANCH  21  24
ENDBRANCH  20  21
ENDBRANCH   1  20
TORSDOF 5
ENDMDL
MODEL 4
REMARK VINA RESULT:      -6.4      0.970      1.509
REMARK  Name = 
REMARK  6 active torsions:
REMARK  status: ('A' for Active; 'I' for Inactive)
REMARK    1  A    between atoms: C_1  and  O_2
REMARK    2  A    between atoms: O_2  and  C_3
REMARK    3  A    between atoms: C_3  and  C_5
REMARK    4  A    between atoms: C_5  and  C_6
REMARK    5  A    between atoms: C_13  and  S_14
REMARK    6  A    between atoms: N_15  and  C_16
REMARK                            x       y       z     vdW  Elec       q    Type
REMARK                         _______ _______ _______ _____ _____    ______ ____
ROOT
ATOM      1  C   UNL     1       5.871   5.239  17.328  0.00  0.00    +0.000 C 
ATOM      2  C   UNL     1       6.734   4.406  16.317  0.00  0.00    +0.000 C 
ATOM      3  O   UNL     1       7.921   4.659  16.113  0.00  0.00    +0.000 OA
ATOM      4  N   UNL     1       6.173   3.345  15.663  0.00  0.00    +0.000 N 
ATOM      5  C   UNL     1       4.759   3.084  15.735  0.00  0.00    +0.000 C 
ATOM      6  C   UNL     1       4.261   3.350  17.151  0.00  0.00    +0.000 C 
ATOM      7  N   UNL     1       4.432   4.780  17.461  0.00  0.00    +0.000 N 
ATOM      8  C   UNL     1       3.416   5.590  17.978  0.00  0.00    +0.000 C 
ATOM      9  N   UNL     1       3.604   6.860  18.204  0.00  0.00    +0.000 NA
ATOM     10  H   UNL     1       6.727   2.967  14.906  0.00  0.00    +0.000 HD
ENDROOT
BRANCH   9  11
ATOM     11  C   UNL     1       2.645   7.790  18.653  0.00  0.00    +0.000 A 
ATOM     12  C   UNL     1       2.122   8.712  17.735  0.00  0.00    +0.000 A 
ATOM     13  C   UNL     1       1.122   9.615  18.115  0.00  0.00    +0.000 A 
ATOM     14  C   UNL     1       0.653   9.608  19.422  0.00  0.00    +0.000 A 
ATOM     15  F   UNL     1      -0.285  10.487  19.797  0.00  0.00    +0.000 F 
ATOM     16  C   UNL     1       1.127   8.682  20.338  0.00  0.00    +0.000 A 
ATOM     17  C   UNL     1       2.085   7.749  19.936  0.00  0.00    +0.000 A 
ENDBRANCH   9  11
BRANCH   8  18
ATOM     18  S   UNL     1       1.841   4.826  18.307  0.00  0.00    +0.000 S 
ATOM     19  H   UNL     1       2.231   4.068  19.331  0.00  0.00    +0.000 HD
ENDBRANCH   8  18
BRANCH   1  20
ATOM     20  C   UNL     1       6.128   6.707  16.966  0.00  0.00    +0.000 C 
BRANCH  20  21
ATOM     21  C   UNL     1       7.291   7.292  17.729  0.00  0.00    +0.000 C 
ATOM     22  O   UNL     1       7.907   6.723  18.629  0.00  0.00    +0.000 OA
BRANCH  21  24
ATOM     23  C   UNL     1       8.417   9.281  18.170  0.00  0.00    +0.000 C 
ATOM     24  O   UNL     1       7.516   8.568  17.325  0.00  0.00    +0.000 OA
ENDBRANCH  21  24
ENDBRANCH  20  21
ENDBRANCH   1  20
TORSDOF 5
ENDMDL
MODEL 5
REMARK VINA RESULT:      -6.2      0.993      1.610
REMARK  Name = 
REMARK  6 active torsions:
REMARK  status: ('A' for Active; 'I' for Inactive)
REMARK    1  A    between atoms: C_1  and  O_2
REMARK    2  A    between atoms: O_2  and  C_3
REMARK    3  A    between atoms: C_3  and  C_5
REMARK    4  A    between atoms: C_5  and  C_6
REMARK    5  A    between atoms: C_13  and  S_14
REMARK    6  A    between atoms: N_15  and  C_16
REMARK                            x       y       z     vdW  Elec       q    Type
REMARK                         _______ _______ _______ _____ _____    ______ ____
ROOT
ATOM      1  C   UNL     1       5.828   4.782  17.884  0.00  0.00    +0.000 C 
ATOM      2  C   UNL     1       6.837   4.192  16.838  0.00  0.00    +0.000 C 
ATOM      3  O   UNL     1       8.056   4.278  16.990  0.00  0.00    +0.000 OA
ATOM      4  N   UNL     1       6.363   3.532  15.738  0.00  0.00    +0.000 N 
ATOM      5  C   UNL     1       4.960   3.525  15.417  0.00  0.00    +0.000 C 
ATOM      6  C   UNL     1       4.143   3.388  16.696  0.00  0.00    +0.000 C 
ATOM      7  N   UNL     1       4.366   4.576  17.539  0.00  0.00    +0.000 N 
ATOM      8  C   UNL     1       3.334   5.337  18.098  0.00  0.00    +0.000 C 
ATOM      9  N   UNL     1       3.580   6.401  18.810  0.00  0.00    +0.000 NA
ATOM     10  H   UNL     1       7.055   3.335  15.026  0.00  0.00    +0.000 HD
ENDROOT
BRANCH   9  11
ATOM     11  C   UNL     1       2.632   7.285  19.362  0.00  0.00    +0.000 A 
ATOM     12  C   UNL     1       2.189   8.366  18.587  0.00  0.00    +0.000 A 
ATOM     13  C   UNL     1       1.204   9.237  19.066  0.00  0.00    +0.000 A 
ATOM     14  C   UNL     1       0.667   9.037  20.331  0.00  0.00    +0.000 A 
ATOM     15  F   UNL     1      -0.257   9.882  20.804  0.00  0.00    +0.000 F 
ATOM     16  C   UNL     1       1.061   7.954  21.102  0.00  0.00    +0.000 A 
ATOM     17  C   UNL     1       2.005   7.060  20.595  0.00  0.00    +0.000 A 
ENDBRANCH   9  11
BRANCH   8  18
ATOM     18  S   UNL     1       1.662   4.807  17.791  0.00  0.00    +0.000 S 
ATOM     19  H   UNL     1       1.795   3.558  18.237  0.00  0.00    +0.000 HD
ENDBRANCH   8  18
BRANCH   1  20
ATOM     20  C   UNL     1       6.310   6.213  18.149  0.00  0.00    +0.000 C 
BRANCH  20  21
ATOM     21  C   UNL     1       7.489   6.257  19.090  0.00  0.00    +0.000 C 
ATOM     22  O   UNL     1       7.628   5.551  20.087  0.00  0.00    +0.000 OA
BRANCH  21  24
ATOM     23  C   UNL     1       7.842   8.061  17.660  0.00  0.00    +0.000 C 
ATOM     24  O   UNL     1       8.345   7.241  18.714  0.00  0.00    +0.000 OA
ENDBRANCH  21  24
ENDBRANCH  20  21
ENDBRANCH   1  20
TORSDOF 5
ENDMDL
MODEL 6
REMARK VINA RESULT:      -6.1      4.259      6.844
REMARK  Name = 
REMARK  6 active torsions:
REMARK  status: ('A' for Active; 'I' for Inactive)
REMARK    1  A    between atoms: C_1  and  O_2
REMARK    2  A    between atoms: O_2  and  C_3
REMARK    3  A    between atoms: C_3  and  C_5
REMARK    4  A    between atoms: C_5  and  C_6
REMARK    5  A    between atoms: C_13  and  S_14
REMARK    6  A    between atoms: N_15  and  C_16
REMARK                            x       y       z     vdW  Elec       q    Type
REMARK                         _______ _______ _______ _____ _____    ______ ____
ROOT
ATOM      1  C   UNL     1       3.789   3.656  20.349  0.00  0.00    +0.000 C 
ATOM      2  C   UNL     1       2.636   3.301  21.351  0.00  0.00    +0.000 C 
ATOM      3  O   UNL     1       2.703   2.327  22.101  0.00  0.00    +0.000 OA
ATOM      4  N   UNL     1       1.533   4.106  21.428  0.00  0.00    +0.000 N 
ATOM      5  C   UNL     1       1.317   5.169  20.481  0.00  0.00    +0.000 C 
ATOM      6  C   UNL     1       2.641   5.857  20.172  0.00  0.00    +0.000 C 
ATOM      7  N   UNL     1       3.541   4.895  19.511  0.00  0.00    +0.000 N 
ATOM      8  C   UNL     1       4.222   5.161  18.319  0.00  0.00    +0.000 C 
ATOM      9  N   UNL     1       4.981   4.265  17.753  0.00  0.00    +0.000 NA
ATOM     10  H   UNL     1       0.761   3.726  21.959  0.00  0.00    +0.000 HD
ENDROOT
BRANCH   9  11
ATOM     11  C   UNL     1       5.658   4.386  16.523  0.00  0.00    +0.000 A 
ATOM     12  C   UNL     1       4.983   4.032  15.346  0.00  0.00    +0.000 A 
ATOM     13  C   UNL     1       5.589   4.192  14.095  0.00  0.00    +0.000 A 
ATOM     14  C   UNL     1       6.880   4.695  14.018  0.00  0.00    +0.000 A 
ATOM     15  F   UNL     1       7.474   4.826  12.824  0.00  0.00    +0.000 F 
ATOM     16  C   UNL     1       7.555   5.088  15.163  0.00  0.00    +0.000 A 
ATOM     17  C   UNL     1       6.923   4.975  16.403  0.00  0.00    +0.000 A 
ENDBRANCH   9  11
BRANCH   8  18
ATOM     18  S   UNL     1       4.005   6.770  17.588  0.00  0.00    +0.000 S 
ATOM     19  H   UNL     1       3.039   7.197  18.402  0.00  0.00    +0.000 HD
ENDBRANCH   8  18
BRANCH   1  20
ATOM     20  C   UNL     1       4.111   2.346  19.620  0.00  0.00    +0.000 C 
BRANCH  20  21
ATOM     21  C   UNL     1       3.018   1.937  18.663  0.00  0.00    +0.000 C 
ATOM     22  O   UNL     1       3.152   1.809  17.447  0.00  0.00    +0.000 OA
BRANCH  21  24
ATOM     23  C   UNL     1       0.708   2.215  18.575  0.00  0.00    +0.000 C 
ATOM     24  O   UNL     1       1.845   1.799  19.331  0.00  0.00    +0.000 OA
ENDBRANCH  21  24
ENDBRANCH  20  21
ENDBRANCH   1  20
TORSDOF 5
ENDMDL
MODEL 7
REMARK VINA RESULT:      -6.1      4.261      6.848
REMARK  Name = 
REMARK  6 active torsions:
REMARK  status: ('A' for Active; 'I' for Inactive)
REMARK    1  A    between atoms: C_1  and  O_2
REMARK    2  A    between atoms: O_2  and  C_3
REMARK    3  A    between atoms: C_3  and  C_5
REMARK    4  A    between atoms: C_5  and  C_6
REMARK    5  A    between atoms: C_13  and  S_14
REMARK    6  A    between atoms: N_15  and  C_16
REMARK                            x       y       z     vdW  Elec       q    Type
REMARK                         _______ _______ _______ _____ _____    ______ ____
ROOT
ATOM      1  C   UNL     1       3.887   3.677  20.196  0.00  0.00    +0.000 C 
ATOM      2  C   UNL     1       2.779   3.324  21.249  0.00  0.00    +0.000 C 
ATOM      3  O   UNL     1       2.858   2.329  21.969  0.00  0.00    +0.000 OA
ATOM      4  N   UNL     1       1.705   4.157  21.406  0.00  0.00    +0.000 N 
ATOM      5  C   UNL     1       1.468   5.251  20.501  0.00  0.00    +0.000 C 
ATOM      6  C   UNL     1       2.793   5.911  20.139  0.00  0.00    +0.000 C 
ATOM      7  N   UNL     1       3.629   4.944  19.405  0.00  0.00    +0.000 N 
ATOM      8  C   UNL     1       4.253   5.224  18.185  0.00  0.00    +0.000 C 
ATOM      9  N   UNL     1       4.956   4.324  17.556  0.00  0.00    +0.000 NA
ATOM     10  H   UNL     1       0.952   3.783  21.968  0.00  0.00    +0.000 HD
ENDROOT
BRANCH   9  11
ATOM     11  C   UNL     1       5.569   4.460  16.295  0.00  0.00    +0.000 A 
ATOM     12  C   UNL     1       6.880   4.954  16.235  0.00  0.00    +0.000 A 
ATOM     13  C   UNL     1       7.556   5.050  15.013  0.00  0.00    +0.000 A 
ATOM     14  C   UNL     1       6.914   4.666  13.842  0.00  0.00    +0.000 A 
ATOM     15  F   UNL     1       7.547   4.780  12.668  0.00  0.00    +0.000 F 
ATOM     16  C   UNL     1       5.632   4.140  13.879  0.00  0.00    +0.000 A 
ATOM     17  C   UNL     1       4.986   3.997  15.108  0.00  0.00    +0.000 A 
ENDBRANCH   9  11
BRANCH   8  18
ATOM     18  S   UNL     1       4.043   6.858  17.509  0.00  0.00    +0.000 S 
ATOM     19  H   UNL     1       2.721   6.935  17.660  0.00  0.00    +0.000 HD
ENDBRANCH   8  18
BRANCH   1  20
ATOM     20  C   UNL     1       4.132   2.379  19.417  0.00  0.00    +0.000 C 
BRANCH  20  21
ATOM     21  C   UNL     1       2.967   2.010  18.532  0.00  0.00    +0.000 C 
ATOM     22  O   UNL     1       2.989   1.989  17.302  0.00  0.00    +0.000 OA
BRANCH  21  24
ATOM     23  C   UNL     1       0.648   2.179  18.666  0.00  0.00    +0.000 C 
ATOM     24  O   UNL     1       1.866   1.772  19.289  0.00  0.00    +0.000 OA
ENDBRANCH  21  24
ENDBRANCH  20  21
ENDBRANCH   1  20
TORSDOF 5
ENDMDL
MODEL 8
REMARK VINA RESULT:      -6.1      3.179      4.326
REMARK  Name = 
REMARK  6 active torsions:
REMARK  status: ('A' for Active; 'I' for Inactive)
REMARK    1  A    between atoms: C_1  and  O_2
REMARK    2  A    between atoms: O_2  and  C_3
REMARK    3  A    between atoms: C_3  and  C_5
REMARK    4  A    between atoms: C_5  and  C_6
REMARK    5  A    between atoms: C_13  and  S_14
REMARK    6  A    between atoms: N_15  and  C_16
REMARK                            x       y       z     vdW  Elec       q    Type
REMARK                         _______ _______ _______ _____ _____    ______ ____
ROOT
ATOM      1  C   UNL     1       3.302   4.417  19.312  0.00  0.00    +0.000 C 
ATOM      2  C   UNL     1       4.460   3.364  19.214  0.00  0.00    +0.000 C 
ATOM      3  O   UNL     1       4.390   2.266  19.765  0.00  0.00    +0.000 OA
ATOM      4  N   UNL     1       5.571   3.649  18.470  0.00  0.00    +0.000 N 
ATOM      5  C   UNL     1       5.791   4.963  17.925  0.00  0.00    +0.000 C 
ATOM      6  C   UNL     1       4.471   5.535  17.421  0.00  0.00    +0.000 C 
ATOM      7  N   UNL     1       3.555   5.710  18.563  0.00  0.00    +0.000 N 
ATOM      8  C   UNL     1       2.865   6.897  18.831  0.00  0.00    +0.000 C 
ATOM      9  N   UNL     1       2.092   7.016  19.874  0.00  0.00    +0.000 NA
ATOM     10  H   UNL     1       6.345   3.008  18.592  0.00  0.00    +0.000 HD
ENDROOT
BRANCH   9  11
ATOM     11  C   UNL     1       1.406   8.174  20.289  0.00  0.00    +0.000 A 
ATOM     12  C   UNL     1       1.266   8.417  21.662  0.00  0.00    +0.000 A 
ATOM     13  C   UNL     1       0.647   9.584  22.126  0.00  0.00    +0.000 A 
ATOM     14  C   UNL     1       0.152  10.506  21.214  0.00  0.00    +0.000 A 
ATOM     15  F   UNL     1      -0.464  11.612  21.652  0.00  0.00    +0.000 F 
ATOM     16  C   UNL     1       0.311  10.307  19.851  0.00  0.00    +0.000 A 
ATOM     17  C   UNL     1       0.977   9.167  19.399  0.00  0.00    +0.000 A 
ENDBRANCH   9  11
BRANCH   8  18
ATOM     18  S   UNL     1       3.093   8.254  17.701  0.00  0.00    +0.000 S 
ATOM     19  H   UNL     1       1.862   8.759  17.793  0.00  0.00    +0.000 HD
ENDBRANCH   8  18
BRANCH   1  20
ATOM     20  C   UNL     1       2.960   4.504  20.805  0.00  0.00    +0.000 C 
BRANCH  20  21
ATOM     21  C   UNL     1       1.800   3.616  21.182  0.00  0.00    +0.000 C 
ATOM     22  O   UNL     1       1.788   2.828  22.127  0.00  0.00    +0.000 OA
BRANCH  21  24
ATOM     23  C   UNL     1       0.628   2.634  19.426  0.00  0.00    +0.000 C 
ATOM     24  O   UNL     1       0.793   3.762  20.284  0.00  0.00    +0.000 OA
ENDBRANCH  21  24
ENDBRANCH  20  21
ENDBRANCH   1  20
TORSDOF 5
ENDMDL
MODEL 9
REMARK VINA RESULT:      -6.0      3.181      4.442
REMARK  Name = 
REMARK  6 active torsions:
REMARK  status: ('A' for Active; 'I' for Inactive)
REMARK    1  A    between atoms: C_1  and  O_2
REMARK    2  A    between atoms: O_2  and  C_3
REMARK    3  A    between atoms: C_3  and  C_5
REMARK    4  A    between atoms: C_5  and  C_6
REMARK    5  A    between atoms: C_13  and  S_14
REMARK    6  A    between atoms: N_15  and  C_16
REMARK                            x       y       z     vdW  Elec       q    Type
REMARK                         _______ _______ _______ _____ _____    ______ ____
ROOT
ATOM      1  C   UNL     1       3.302   4.415  19.330  0.00  0.00    +0.000 C 
ATOM      2  C   UNL     1       4.453   3.353  19.234  0.00  0.00    +0.000 C 
ATOM      3  O   UNL     1       4.377   2.258  19.790  0.00  0.00    +0.000 OA
ATOM      4  N   UNL     1       5.565   3.627  18.486  0.00  0.00    +0.000 N 
ATOM      5  C   UNL     1       5.792   4.938  17.934  0.00  0.00    +0.000 C 
ATOM      6  C   UNL     1       4.474   5.516  17.431  0.00  0.00    +0.000 C 
ATOM      7  N   UNL     1       3.563   5.703  18.574  0.00  0.00    +0.000 N 
ATOM      8  C   UNL     1       2.881   6.895  18.839  0.00  0.00    +0.000 C 
ATOM      9  N   UNL     1       2.111   7.024  19.882  0.00  0.00    +0.000 NA
ATOM     10  H   UNL     1       6.334   2.982  18.609  0.00  0.00    +0.000 HD
ENDROOT
BRANCH   9  11
ATOM     11  C   UNL     1       1.434   8.189  20.294  0.00  0.00    +0.000 A 
ATOM     12  C   UNL     1       0.872   9.021  19.315  0.00  0.00    +0.000 A 
ATOM     13  C   UNL     1       0.135  10.156  19.674  0.00  0.00    +0.000 A 
ATOM     14  C   UNL     1      -0.029  10.471  21.016  0.00  0.00    +0.000 A 
ATOM     15  F   UNL     1      -0.710  11.570  21.364  0.00  0.00    +0.000 F 
ATOM     16  C   UNL     1       0.485   9.644  22.003  0.00  0.00    +0.000 A 
ATOM     17  C   UNL     1       1.171   8.485  21.637  0.00  0.00    +0.000 A 
ENDBRANCH   9  11
BRANCH   8  18
ATOM     18  S   UNL     1       3.115   8.246  17.701  0.00  0.00    +0.000 S 
ATOM     19  H   UNL     1       3.829   9.028  18.512  0.00  0.00    +0.000 HD
ENDBRANCH   8  18
BRANCH   1  20
ATOM     20  C   UNL     1       2.964   4.511  20.823  0.00  0.00    +0.000 C 
BRANCH  20  21
ATOM     21  C   UNL     1       1.805   3.627  21.208  0.00  0.00    +0.000 C 
ATOM     22  O   UNL     1       1.797   2.839  22.154  0.00  0.00    +0.000 OA
BRANCH  21  24
ATOM     23  C   UNL     1       0.601   2.636  19.479  0.00  0.00    +0.000 C 
ATOM     24  O   UNL     1       0.792   3.775  20.317  0.00  0.00    +0.000 OA
ENDBRANCH  21  24
ENDBRANCH  20  21
ENDBRANCH   1  20
TORSDOF 5
ENDMDL
