MODEL 1
REMARK VINA RESULT:      -7.4      0.000      0.000
REMARK  Name = 
REMARK  7 active torsions:
REMARK  status: ('A' for Active; 'I' for Inactive)
REMARK    1  A    between atoms: C_1  and  O_2
REMARK    2  A    between atoms: O_2  and  C_3
REMARK    3  A    between atoms: C_6  and  O_7
REMARK    4  A    between atoms: O_7  and  C_8
REMARK    5  A    between atoms: C_9  and  C_10
REMARK    6  A    between atoms: C_10  and  C_12
REMARK    7  A    between atoms: C_13  and  C_14
REMARK                            x       y       z     vdW  Elec       q    Type
REMARK                         _______ _______ _______ _____ _____    ______ ____
ROOT
ATOM      1  C   UNL     1       2.361   4.582  20.645  0.00  0.00    +0.000 C 
ATOM      2  O   UNL     1       2.328   3.758  21.564  0.00  0.00    +0.000 OA
ENDROOT
BRANCH   1   7
ATOM      3  C   UNL     1       5.372   4.253  18.404  0.00  0.00    +0.000 A 
ATOM      4  C   UNL     1       4.836   3.793  17.211  0.00  0.00    +0.000 A 
ATOM      5  C   UNL     1       3.467   3.555  17.097  0.00  0.00    +0.000 A 
ATOM      6  C   UNL     1       2.591   3.799  18.168  0.00  0.00    +0.000 A 
ATOM      7  C   UNL     1       3.123   4.243  19.395  0.00  0.00    +0.000 A 
ATOM      8  C   UNL     1       4.522   4.461  19.488  0.00  0.00    +0.000 A 
BRANCH   3  10
ATOM      9  C   UNL     1       7.324   4.618  17.093  0.00  0.00    +0.000 C 
ATOM     10  O   UNL     1       6.720   4.469  18.371  0.00  0.00    +0.000 OA
ENDBRANCH   3  10
BRANCH   6  11
ATOM     11  O   UNL     1       1.242   3.594  18.040  0.00  0.00    +0.000 OA
ATOM     12  C   UNL     1       0.725   2.395  18.619  0.00  0.00    +0.000 C 
ENDBRANCH   6  11
ENDBRANCH   1   7
BRANCH   1  13
ATOM     13  C   UNL     1       1.609   5.852  20.800  0.00  0.00    +0.000 C 
ATOM     14  C   UNL     1       2.042   6.936  20.129  0.00  0.00    +0.000 C 
BRANCH  14  15
ATOM     15  C   UNL     1       1.480   8.270  20.362  0.00  0.00    +0.000 A 
ATOM     16  C   UNL     1       1.112   8.569  21.682  0.00  0.00    +0.000 A 
ATOM     17  C   UNL     1       0.547   9.808  21.997  0.00  0.00    +0.000 A 
ATOM     18  C   UNL     1       0.354  10.752  20.997  0.00  0.00    +0.000 A 
ATOM     19 CL   UNL     1      -0.348  12.273  21.389  0.00  0.00    +0.000 Cl
ATOM     20  C   UNL     1       0.720  10.476  19.680  0.00  0.00    +0.000 A 
ATOM     21  C   UNL     1       1.282   9.235  19.364  0.00  0.00    +0.000 A 
ATOM     22 CL   UNL     1       1.720   8.941  17.716  0.00  0.00    +0.000 Cl
ENDBRANCH  14  15
ENDBRANCH   1  13
TORSDOF 5
ENDMDL
MODEL 2
REMARK VINA RESULT:      -7.2      2.258      3.757
REMARK  Name = 
REMARK  7 active torsions:
REMARK  status: ('A' for Active; 'I' for Inactive)
REMARK    1  A    between atoms: C_1  and  O_2
REMARK    2  A    between atoms: O_2  and  C_3
REMARK    3  A    between atoms: C_6  and  O_7
REMARK    4  A    between atoms: O_7  and  C_8
REMARK    5  A    between atoms: C_9  and  C_10
REMARK    6  A    between atoms: C_10  and  C_12
REMARK    7  A    between atoms: C_13  and  C_14
REMARK                            x       y       z     vdW  Elec       q    Type
REMARK                         _______ _______ _______ _____ _____    ______ ____
ROOT
ATOM      1  C   UNL     1       3.875   4.147  18.237  0.00  0.00    +0.000 C 
ATOM      2  O   UNL     1       3.703   3.042  18.759  0.00  0.00    +0.000 OA
ENDROOT
BRANCH   1   7
ATOM      3  C   UNL     1       5.652   4.270  14.917  0.00  0.00    +0.000 A 
ATOM      4  C   UNL     1       6.968   4.531  15.265  0.00  0.00    +0.000 A 
ATOM      5  C   UNL     1       7.325   4.694  16.604  0.00  0.00    +0.000 A 
ATOM      6  C   UNL     1       6.377   4.572  17.633  0.00  0.00    +0.000 A 
ATOM      7  C   UNL     1       5.031   4.332  17.294  0.00  0.00    +0.000 A 
ATOM      8  C   UNL     1       4.692   4.187  15.923  0.00  0.00    +0.000 A 
BRANCH   3  10
ATOM      9  C   UNL     1       6.561   3.712  12.790  0.00  0.00    +0.000 C 
ATOM     10  O   UNL     1       5.445   4.106  13.577  0.00  0.00    +0.000 OA
ENDBRANCH   3  10
BRANCH   6  11
ATOM     11  O   UNL     1       6.738   4.702  18.948  0.00  0.00    +0.000 OA
ATOM     12  C   UNL     1       7.674   5.738  19.250  0.00  0.00    +0.000 C 
ENDBRANCH   6  11
ENDBRANCH   1   7
BRANCH   1  13
ATOM     13  C   UNL     1       2.906   5.233  18.531  0.00  0.00    +0.000 C 
ATOM     14  C   UNL     1       3.246   6.496  18.212  0.00  0.00    +0.000 C 
BRANCH  14  15
ATOM     15  C   UNL     1       2.440   7.646  18.630  0.00  0.00    +0.000 A 
ATOM     16  C   UNL     1       2.371   8.720  17.730  0.00  0.00    +0.000 A 
ATOM     17  C   UNL     1       1.644   9.869  18.051  0.00  0.00    +0.000 A 
ATOM     18  C   UNL     1       0.979   9.947  19.268  0.00  0.00    +0.000 A 
ATOM     19 CL   UNL     1       0.090  11.367  19.660  0.00  0.00    +0.000 Cl
ATOM     20  C   UNL     1       1.029   8.888  20.173  0.00  0.00    +0.000 A 
ATOM     21  C   UNL     1       1.760   7.739  19.853  0.00  0.00    +0.000 A 
ATOM     22 CL   UNL     1       1.791   6.452  21.009  0.00  0.00    +0.000 Cl
ENDBRANCH  14  15
ENDBRANCH   1  13
TORSDOF 5
ENDMDL
MODEL 3
REMARK VINA RESULT:      -7.1      1.847      3.186
REMARK  Name = 
REMARK  7 active torsions:
REMARK  status: ('A' for Active; 'I' for Inactive)
REMARK    1  A    between atoms: C_1  and  O_2
REMARK    2  A    between atoms: O_2  and  C_3
REMARK    3  A    between atoms: C_6  and  O_7
REMARK    4  A    between atoms: O_7  and  C_8
REMARK    5  A    between atoms: C_9  and  C_10
REMARK    6  A    between atoms: C_10  and  C_12
REMARK    7  A    between atoms: C_13  and  C_14
REMARK                            x       y       z     vdW  Elec       q    Type
REMARK                         _______ _______ _______ _____ _____    ______ ____
ROOT
ATOM      1  C   UNL     1       3.697   4.069  18.733  0.00  0.00    +0.000 C 
ATOM      2  O   UNL     1       3.588   2.939  19.218  0.00  0.00    +0.000 OA
ENDROOT
BRANCH   1   7
ATOM      3  C   UNL     1       5.423   4.329  15.394  0.00  0.00    +0.000 A 
ATOM      4  C   UNL     1       6.718   4.692  15.728  0.00  0.00    +0.000 A 
ATOM      5  C   UNL     1       7.076   4.882  17.062  0.00  0.00    +0.000 A 
ATOM      6  C   UNL     1       6.151   4.687  18.102  0.00  0.00    +0.000 A 
ATOM      7  C   UNL     1       4.824   4.343  17.777  0.00  0.00    +0.000 A 
ATOM      8  C   UNL     1       4.483   4.172  16.411  0.00  0.00    +0.000 A 
BRANCH   3  10
ATOM      9  C   UNL     1       6.346   3.828  13.259  0.00  0.00    +0.000 C 
ATOM     10  O   UNL     1       5.214   4.150  14.056  0.00  0.00    +0.000 OA
ENDBRANCH   3  10
BRANCH   6  11
ATOM     11  O   UNL     1       6.516   4.844  19.413  0.00  0.00    +0.000 OA
ATOM     12  C   UNL     1       7.694   5.616  19.656  0.00  0.00    +0.000 C 
ENDBRANCH   6  11
ENDBRANCH   1   7
BRANCH   1  13
ATOM     13  C   UNL     1       2.681   5.094  19.081  0.00  0.00    +0.000 C 
ATOM     14  C   UNL     1       3.057   6.387  19.092  0.00  0.00    +0.000 C 
BRANCH  14  15
ATOM     15  C   UNL     1       2.181   7.446  19.600  0.00  0.00    +0.000 A 
ATOM     16  C   UNL     1       1.658   7.258  20.888  0.00  0.00    +0.000 A 
ATOM     17  C   UNL     1       0.795   8.204  21.448  0.00  0.00    +0.000 A 
ATOM     18  C   UNL     1       0.458   9.342  20.727  0.00  0.00    +0.000 A 
ATOM     19 CL   UNL     1      -0.610  10.500  21.419  0.00  0.00    +0.000 Cl
ATOM     20  C   UNL     1       0.973   9.551  19.448  0.00  0.00    +0.000 A 
ATOM     21  C   UNL     1       1.834   8.602  18.886  0.00  0.00    +0.000 A 
ATOM     22 CL   UNL     1       2.447   8.907  17.297  0.00  0.00    +0.000 Cl
ENDBRANCH  14  15
ENDBRANCH   1  13
TORSDOF 5
ENDMDL
MODEL 4
REMARK VINA RESULT:      -6.9      1.592      2.477
REMARK  Name = 
REMARK  7 active torsions:
REMARK  status: ('A' for Active; 'I' for Inactive)
REMARK    1  A    between atoms: C_1  and  O_2
REMARK    2  A    between atoms: O_2  and  C_3
REMARK    3  A    between atoms: C_6  and  O_7
REMARK    4  A    between atoms: O_7  and  C_8
REMARK    5  A    between atoms: C_9  and  C_10
REMARK    6  A    between atoms: C_10  and  C_12
REMARK    7  A    between atoms: C_13  and  C_14
REMARK                            x       y       z     vdW  Elec       q    Type
REMARK                         _______ _______ _______ _____ _____    ______ ____
ROOT
ATOM      1  C   UNL     1       2.646   4.822  17.744  0.00  0.00    +0.000 C 
ATOM      2  O   UNL     1       2.019   3.851  17.312  0.00  0.00    +0.000 OA
ENDROOT
BRANCH   1   7
ATOM      3  C   UNL     1       6.074   5.299  16.253  0.00  0.00    +0.000 A 
ATOM      4  C   UNL     1       6.922   4.814  17.236  0.00  0.00    +0.000 A 
ATOM      5  C   UNL     1       6.407   4.325  18.436  0.00  0.00    +0.000 A 
ATOM      6  C   UNL     1       5.023   4.283  18.674  0.00  0.00    +0.000 A 
ATOM      7  C   UNL     1       4.148   4.795  17.695  0.00  0.00    +0.000 A 
ATOM      8  C   UNL     1       4.701   5.302  16.491  0.00  0.00    +0.000 A 
BRANCH   3  10
ATOM      9  C   UNL     1       6.876   4.771  14.076  0.00  0.00    +0.000 C 
ATOM     10  O   UNL     1       6.707   5.721  15.120  0.00  0.00    +0.000 OA
ENDBRANCH   3  10
BRANCH   6  11
ATOM     11  O   UNL     1       4.520   3.773  19.842  0.00  0.00    +0.000 OA
ATOM     12  C   UNL     1       4.336   2.357  19.889  0.00  0.00    +0.000 C 
ENDBRANCH   6  11
ENDBRANCH   1   7
BRANCH   1  13
ATOM     13  C   UNL     1       1.887   5.992  18.252  0.00  0.00    +0.000 C 
ATOM     14  C   UNL     1       2.515   6.851  19.078  0.00  0.00    +0.000 C 
BRANCH  14  15
ATOM     15  C   UNL     1       1.798   7.924  19.773  0.00  0.00    +0.000 A 
ATOM     16  C   UNL     1       1.402   7.658  21.092  0.00  0.00    +0.000 A 
ATOM     17  C   UNL     1       0.694   8.613  21.826  0.00  0.00    +0.000 A 
ATOM     18  C   UNL     1       0.385   9.837  21.248  0.00  0.00    +0.000 A 
ATOM     19 CL   UNL     1      -0.492  11.007  22.155  0.00  0.00    +0.000 Cl
ATOM     20  C   UNL     1       0.776  10.124  19.941  0.00  0.00    +0.000 A 
ATOM     21  C   UNL     1       1.481   9.166  19.204  0.00  0.00    +0.000 A 
ATOM     22 CL   UNL     1       1.944   9.570  17.587  0.00  0.00    +0.000 Cl
ENDBRANCH  14  15
ENDBRANCH   1  13
TORSDOF 5
ENDMDL
MODEL 5
REMARK VINA RESULT:      -6.9      1.526      1.993
REMARK  Name = 
REMARK  7 active torsions:
REMARK  status: ('A' for Active; 'I' for Inactive)
REMARK    1  A    between atoms: C_1  and  O_2
REMARK    2  A    between atoms: O_2  and  C_3
REMARK    3  A    between atoms: C_6  and  O_7
REMARK    4  A    between atoms: O_7  and  C_8
REMARK    5  A    between atoms: C_9  and  C_10
REMARK    6  A    between atoms: C_10  and  C_12
REMARK    7  A    between atoms: C_13  and  C_14
REMARK                            x       y       z     vdW  Elec       q    Type
REMARK                         _______ _______ _______ _____ _____    ______ ____
ROOT
ATOM      1  C   UNL     1       2.313   5.916  19.995  0.00  0.00    +0.000 C 
ATOM      2  O   UNL     1       1.904   5.323  20.997  0.00  0.00    +0.000 OA
ENDROOT
BRANCH   1   7
ATOM      3  C   UNL     1       5.229   4.908  17.831  0.00  0.00    +0.000 A 
ATOM      4  C   UNL     1       4.693   3.936  17.002  0.00  0.00    +0.000 A 
ATOM      5  C   UNL     1       3.356   3.559  17.127  0.00  0.00    +0.000 A 
ATOM      6  C   UNL     1       2.511   4.165  18.071  0.00  0.00    +0.000 A 
ATOM      7  C   UNL     1       3.047   5.137  18.939  0.00  0.00    +0.000 A 
ATOM      8  C   UNL     1       4.414   5.490  18.801  0.00  0.00    +0.000 A 
BRANCH   3  10
ATOM      9  C   UNL     1       7.125   4.631  16.421  0.00  0.00    +0.000 C 
ATOM     10  O   UNL     1       6.539   5.201  17.584  0.00  0.00    +0.000 OA
ENDBRANCH   3  10
BRANCH   6  11
ATOM     11  O   UNL     1       1.190   3.813  18.169  0.00  0.00    +0.000 OA
ATOM     12  C   UNL     1       0.914   2.544  18.765  0.00  0.00    +0.000 C 
ENDBRANCH   6  11
ENDBRANCH   1   7
BRANCH   1  13
ATOM     13  C   UNL     1       2.021   7.365  19.856  0.00  0.00    +0.000 C 
ATOM     14  C   UNL     1       1.328   7.973  20.838  0.00  0.00    +0.000 C 
BRANCH  14  15
ATOM     15  C   UNL     1       0.835   9.347  20.703  0.00  0.00    +0.000 A 
ATOM     16  C   UNL     1       0.956   9.932  19.434  0.00  0.00    +0.000 A 
ATOM     17  C   UNL     1       0.533  11.245  19.216  0.00  0.00    +0.000 A 
ATOM     18  C   UNL     1      -0.017  11.976  20.261  0.00  0.00    +0.000 A 
ATOM     19 CL   UNL     1      -0.530  13.595  19.988  0.00  0.00    +0.000 Cl
ATOM     20  C   UNL     1      -0.153  11.410  21.529  0.00  0.00    +0.000 A 
ATOM     21  C   UNL     1       0.274  10.096  21.748  0.00  0.00    +0.000 A 
ATOM     22 CL   UNL     1       0.084   9.439  23.337  0.00  0.00    +0.000 Cl
ENDBRANCH  14  15
ENDBRANCH   1  13
TORSDOF 5
ENDMDL
MODEL 6
REMARK VINA RESULT:      -6.9      3.896      7.908
REMARK  Name = 
REMARK  7 active torsions:
REMARK  status: ('A' for Active; 'I' for Inactive)
REMARK    1  A    between atoms: C_1  and  O_2
REMARK    2  A    between atoms: O_2  and  C_3
REMARK    3  A    between atoms: C_6  and  O_7
REMARK    4  A    between atoms: O_7  and  C_8
REMARK    5  A    between atoms: C_9  and  C_10
REMARK    6  A    between atoms: C_10  and  C_12
REMARK    7  A    between atoms: C_13  and  C_14
REMARK                            x       y       z     vdW  Elec       q    Type
REMARK                         _______ _______ _______ _____ _____    ______ ____
ROOT
ATOM      1  C   UNL     1       1.640   9.656  18.216  0.00  0.00    +0.000 C 
ATOM      2  O   UNL     1       2.391  10.277  17.459  0.00  0.00    +0.000 OA
ENDROOT
BRANCH   1   7
ATOM      3  C   UNL     1      -0.072  11.711  20.870  0.00  0.00    +0.000 A 
ATOM      4  C   UNL     1      -1.382  11.785  20.424  0.00  0.00    +0.000 A 
ATOM      5  C   UNL     1      -1.756  11.176  19.226  0.00  0.00    +0.000 A 
ATOM      6  C   UNL     1      -0.832  10.453  18.454  0.00  0.00    +0.000 A 
ATOM      7  C   UNL     1       0.510  10.391  18.880  0.00  0.00    +0.000 A 
ATOM      8  C   UNL     1       0.866  11.033  20.094  0.00  0.00    +0.000 A 
BRANCH   3  10
ATOM      9  C   UNL     1      -0.760  13.344  22.457  0.00  0.00    +0.000 C 
ATOM     10  O   UNL     1       0.152  12.326  22.067  0.00  0.00    +0.000 OA
ENDBRANCH   3  10
BRANCH   6  11
ATOM     11  O   UNL     1      -1.212   9.831  17.294  0.00  0.00    +0.000 OA
ATOM     12  C   UNL     1      -2.361  10.364  16.634  0.00  0.00    +0.000 C 
ENDBRANCH   6  11
ENDBRANCH   1   7
BRANCH   1  13
ATOM     13  C   UNL     1       1.860   8.199  18.401  0.00  0.00    +0.000 C 
ATOM     14  C   UNL     1       2.955   7.644  17.848  0.00  0.00    +0.000 C 
BRANCH  14  15
ATOM     15  C   UNL     1       3.159   6.193  17.818  0.00  0.00    +0.000 A 
ATOM     16  C   UNL     1       2.210   5.415  18.498  0.00  0.00    +0.000 A 
ATOM     17  C   UNL     1       2.334   4.025  18.543  0.00  0.00    +0.000 A 
ATOM     18  C   UNL     1       3.401   3.406  17.906  0.00  0.00    +0.000 A 
ATOM     19 CL   UNL     1       3.552   1.694  17.971  0.00  0.00    +0.000 Cl
ATOM     20  C   UNL     1       4.352   4.160  17.219  0.00  0.00    +0.000 A 
ATOM     21  C   UNL     1       4.230   5.553  17.177  0.00  0.00    +0.000 A 
ATOM     22 CL   UNL     1       5.434   6.444  16.311  0.00  0.00    +0.000 Cl
ENDBRANCH  14  15
ENDBRANCH   1  13
TORSDOF 5
ENDMDL
MODEL 7
REMARK VINA RESULT:      -6.9      4.031      8.072
REMARK  Name = 
REMARK  7 active torsions:
REMARK  status: ('A' for Active; 'I' for Inactive)
REMARK    1  A    between atoms: C_1  and  O_2
REMARK    2  A    between atoms: O_2  and  C_3
REMARK    3  A    between atoms: C_6  and  O_7
REMARK    4  A    between atoms: O_7  and  C_8
REMARK    5  A    between atoms: C_9  and  C_10
REMARK    6  A    between atoms: C_10  and  C_12
REMARK    7  A    between atoms: C_13  and  C_14
REMARK                            x       y       z     vdW  Elec       q    Type
REMARK                         _______ _______ _______ _____ _____    ______ ____
ROOT
ATOM      1  C   UNL     1       1.440   9.637  18.176  0.00  0.00    +0.000 C 
ATOM      2  O   UNL     1       2.343  10.342  17.717  0.00  0.00    +0.000 OA
ENDROOT
BRANCH   1   7
ATOM      3  C   UNL     1      -2.190  10.406  17.520  0.00  0.00    +0.000 A 
ATOM      4  C   UNL     1      -2.519  11.292  18.534  0.00  0.00    +0.000 A 
ATOM      5  C   UNL     1      -1.569  11.663  19.484  0.00  0.00    +0.000 A 
ATOM      6  C   UNL     1      -0.252  11.176  19.430  0.00  0.00    +0.000 A 
ATOM      7  C   UNL     1       0.092  10.255  18.421  0.00  0.00    +0.000 A 
ATOM      8  C   UNL     1      -0.900   9.882  17.477  0.00  0.00    +0.000 A 
BRANCH   3  10
ATOM      9  C   UNL     1      -2.951  10.393  15.266  0.00  0.00    +0.000 C 
ATOM     10  O   UNL     1      -3.205  10.150  16.643  0.00  0.00    +0.000 OA
ENDBRANCH   3  10
BRANCH   6  11
ATOM     11  O   UNL     1       0.687  11.568  20.348  0.00  0.00    +0.000 OA
ATOM     12  C   UNL     1       0.271  12.545  21.303  0.00  0.00    +0.000 C 
ENDBRANCH   6  11
ENDBRANCH   1   7
BRANCH   1  13
ATOM     13  C   UNL     1       1.714   8.199  18.423  0.00  0.00    +0.000 C 
ATOM     14  C   UNL     1       2.805   7.651  17.856  0.00  0.00    +0.000 C 
BRANCH  14  15
ATOM     15  C   UNL     1       3.055   6.207  17.890  0.00  0.00    +0.000 A 
ATOM     16  C   UNL     1       2.164   5.437  18.652  0.00  0.00    +0.000 A 
ATOM     17  C   UNL     1       2.335   4.055  18.761  0.00  0.00    +0.000 A 
ATOM     18  C   UNL     1       3.392   3.437  18.105  0.00  0.00    +0.000 A 
ATOM     19 CL   UNL     1       3.601   1.735  18.247  0.00  0.00    +0.000 Cl
ATOM     20  C   UNL     1       4.284   4.183  17.336  0.00  0.00    +0.000 A 
ATOM     21  C   UNL     1       4.115   5.568  17.230  0.00  0.00    +0.000 A 
ATOM     22 CL   UNL     1       5.248   6.449  16.264  0.00  0.00    +0.000 Cl
ENDBRANCH  14  15
ENDBRANCH   1  13
TORSDOF 5
ENDMDL
MODEL 8
REMARK VINA RESULT:      -6.8      1.103      1.209
REMARK  Name = 
REMARK  7 active torsions:
REMARK  status: ('A' for Active; 'I' for Inactive)
REMARK    1  A    between atoms: C_1  and  O_2
REMARK    2  A    between atoms: O_2  and  C_3
REMARK    3  A    between atoms: C_6  and  O_7
REMARK    4  A    between atoms: O_7  and  C_8
REMARK    5  A    between atoms: C_9  and  C_10
REMARK    6  A    between atoms: C_10  and  C_12
REMARK    7  A    between atoms: C_13  and  C_14
REMARK                            x       y       z     vdW  Elec       q    Type
REMARK                         _______ _______ _______ _____ _____    ______ ____
ROOT
ATOM      1  C   UNL     1       3.237   4.259  20.041  0.00  0.00    +0.000 C 
ATOM      2  O   UNL     1       3.202   3.250  20.751  0.00  0.00    +0.000 OA
ENDROOT
BRANCH   1   7
ATOM      3  C   UNL     1       6.362   4.834  18.015  0.00  0.00    +0.000 A 
ATOM      4  C   UNL     1       5.988   4.460  16.734  0.00  0.00    +0.000 A 
ATOM      5  C   UNL     1       4.699   3.988  16.483  0.00  0.00    +0.000 A 
ATOM      6  C   UNL     1       3.740   3.904  17.506  0.00  0.00    +0.000 A 
ATOM      7  C   UNL     1       4.112   4.256  18.819  0.00  0.00    +0.000 A 
ATOM      8  C   UNL     1       5.434   4.717  19.048  0.00  0.00    +0.000 A 
BRANCH   3  10
ATOM      9  C   UNL     1       7.993   5.977  19.315  0.00  0.00    +0.000 C 
ATOM     10  O   UNL     1       7.640   5.301  18.116  0.00  0.00    +0.000 OA
ENDBRANCH   3  10
BRANCH   6  11
ATOM     11  O   UNL     1       2.466   3.470  17.248  0.00  0.00    +0.000 OA
ATOM     12  C   UNL     1       2.161   2.131  17.641  0.00  0.00    +0.000 C 
ENDBRANCH   6  11
ENDBRANCH   1   7
BRANCH   1  13
ATOM     13  C   UNL     1       2.377   5.415  20.401  0.00  0.00    +0.000 C 
ATOM     14  C   UNL     1       2.423   6.512  19.623  0.00  0.00    +0.000 C 
BRANCH  14  15
ATOM     15  C   UNL     1       1.756   7.761  20.001  0.00  0.00    +0.000 A 
ATOM     16  C   UNL     1       1.251   7.828  21.308  0.00  0.00    +0.000 A 
ATOM     17  C   UNL     1       0.580   8.970  21.752  0.00  0.00    +0.000 A 
ATOM     18  C   UNL     1       0.417  10.050  20.895  0.00  0.00    +0.000 A 
ATOM     19 CL   UNL     1      -0.415  11.452  21.445  0.00  0.00    +0.000 Cl
ATOM     20  C   UNL     1       0.918  10.008  19.594  0.00  0.00    +0.000 A 
ATOM     21  C   UNL     1       1.587   8.862  19.149  0.00  0.00    +0.000 A 
ATOM     22 CL   UNL     1       2.190   8.858  17.528  0.00  0.00    +0.000 Cl
ENDBRANCH  14  15
ENDBRANCH   1  13
TORSDOF 5
ENDMDL
MODEL 9
REMARK VINA RESULT:      -6.7      3.796      8.229
REMARK  Name = 
REMARK  7 active torsions:
REMARK  status: ('A' for Active; 'I' for Inactive)
REMARK    1  A    between atoms: C_1  and  O_2
REMARK    2  A    between atoms: O_2  and  C_3
REMARK    3  A    between atoms: C_6  and  O_7
REMARK    4  A    between atoms: O_7  and  C_8
REMARK    5  A    between atoms: C_9  and  C_10
REMARK    6  A    between atoms: C_10  and  C_12
REMARK    7  A    between atoms: C_13  and  C_14
REMARK                            x       y       z     vdW  Elec       q    Type
REMARK                         _______ _______ _______ _____ _____    ______ ____
ROOT
ATOM      1  C   UNL     1       0.669   9.448  22.181  0.00  0.00    +0.000 C 
ATOM      2  O   UNL     1       1.523   9.618  23.056  0.00  0.00    +0.000 OA
ENDROOT
BRANCH   1   7
ATOM      3  C   UNL     1      -2.191  11.791  22.908  0.00  0.00    +0.000 A 
ATOM      4  C   UNL     1      -2.345  12.489  21.720  0.00  0.00    +0.000 A 
ATOM      5  C   UNL     1      -1.507  12.231  20.635  0.00  0.00    +0.000 A 
ATOM      6  C   UNL     1      -0.507  11.246  20.702  0.00  0.00    +0.000 A 
ATOM      7  C   UNL     1      -0.321  10.546  21.911  0.00  0.00    +0.000 A 
ATOM      8  C   UNL     1      -1.177  10.840  23.004  0.00  0.00    +0.000 A 
BRANCH   3  10
ATOM      9  C   UNL     1      -4.104  13.059  23.533  0.00  0.00    +0.000 C 
ATOM     10  O   UNL     1      -3.093  12.122  23.878  0.00  0.00    +0.000 OA
ENDBRANCH   3  10
BRANCH   6  11
ATOM     11  O   UNL     1       0.293  10.975  19.624  0.00  0.00    +0.000 OA
ATOM     12  C   UNL     1      -0.327  10.300  18.527  0.00  0.00    +0.000 C 
ENDBRANCH   6  11
ENDBRANCH   1   7
BRANCH   1  13
ATOM     13  C   UNL     1       0.687   8.183  21.404  0.00  0.00    +0.000 C 
ATOM     14  C   UNL     1       1.878   7.696  21.006  0.00  0.00    +0.000 C 
BRANCH  14  15
ATOM     15  C   UNL     1       1.983   6.562  20.083  0.00  0.00    +0.000 A 
ATOM     16  C   UNL     1       1.679   5.298  20.609  0.00  0.00    +0.000 A 
ATOM     17  C   UNL     1       1.773   4.156  19.810  0.00  0.00    +0.000 A 
ATOM     18  C   UNL     1       2.163   4.273  18.483  0.00  0.00    +0.000 A 
ATOM     19 CL   UNL     1       2.282   2.862  17.505  0.00  0.00    +0.000 Cl
ATOM     20  C   UNL     1       2.462   5.521  17.938  0.00  0.00    +0.000 A 
ATOM     21  C   UNL     1       2.372   6.664  18.739  0.00  0.00    +0.000 A 
ATOM     22 CL   UNL     1       2.753   8.190  18.017  0.00  0.00    +0.000 Cl
ENDBRANCH  14  15
ENDBRANCH   1  13
TORSDOF 5
ENDMDL
