MODEL 1
REMARK VINA RESULT:      -7.2      0.000      0.000
REMARK  Name = 
REMARK  7 active torsions:
REMARK  status: ('A' for Active; 'I' for Inactive)
REMARK    1  A    between atoms: C_4  and  SE_5
REMARK    2  A    between atoms: SE_5  and  C_6
REMARK    3  A    between atoms: N_12  and  C_13
REMARK    4  A    between atoms: C_13  and  O_14
REMARK    5  A    between atoms: O_14  and  C_15
REMARK    6  A    between atoms: C_15  and  C_16
REMARK    7  A    between atoms: C_16  and  O_17
REMARK                            x       y       z     vdW  Elec       q    Type
REMARK                         _______ _______ _______ _____ _____    ______ ____
ROOT
ATOM      1  O   UNL     1       7.305   5.422  20.274  0.00  0.00    +0.000 OA
ATOM      2  C   UNL     1       6.904   5.310  19.128  0.00  0.00    +0.000 A 
ATOM      3  C   UNL     1       5.761   4.568  18.857  0.00  0.00    +0.000 A 
ATOM      4  C   UNL     1       5.310   4.450  17.539  0.00  0.00    +0.000 A 
ATOM      5  N   UNL     1       5.997   5.072  16.517  0.00  0.00    +0.000 N 
ATOM      6  C   UNL     1       7.133   5.815  16.814  0.00  0.00    +0.000 A 
ATOM      7  O   UNL     1       7.758   6.384  15.933  0.00  0.00    +0.000 OA
ATOM      8  N   UNL     1       7.570   5.930  18.108  0.00  0.00    +0.000 N 
ATOM      9  H   UNL     1       8.425   6.494  18.317  0.00  0.00    +0.000 HD
ENDROOT
BRANCH   4  10
ATOM     10 SE   UNL     1       3.647   3.475  17.267  0.00  0.00    +0.000 Se
BRANCH  10  11
ATOM     11  C   UNL     1       2.879   3.560  19.041  0.00  0.00    +0.000 A 
ATOM     12  C   UNL     1       1.935   4.533  19.406  0.00  0.00    +0.000 A 
ATOM     13  C   UNL     1       1.367   4.514  20.689  0.00  0.00    +0.000 A 
ATOM     14  C   UNL     1       1.733   3.522  21.605  0.00  0.00    +0.000 A 
ATOM     15  C   UNL     1       2.665   2.547  21.241  0.00  0.00    +0.000 A 
ATOM     16  C   UNL     1       3.234   2.565  19.963  0.00  0.00    +0.000 A 
ENDBRANCH  10  11
ENDBRANCH   4  10
BRANCH   5  17
ATOM     17  C   UNL     1       5.556   4.927  15.111  0.00  0.00    +0.000 C 
BRANCH  17  18
ATOM     18  O   UNL     1       6.038   3.721  14.545  0.00  0.00    +0.000 OA
BRANCH  18  19
ATOM     19  C   UNL     1       6.579   4.020  13.269  0.00  0.00    +0.000 C 
BRANCH  19  20
ATOM     20  C   UNL     1       5.894   3.189  12.188  0.00  0.00    +0.000 C 
BRANCH  20  21
ATOM     21  O   UNL     1       6.741   2.170  11.731  0.00  0.00    +0.000 OA
ATOM     22  H   UNL     1       7.201   2.525  10.926  0.00  0.00    +0.000 HD
ENDBRANCH  20  21
ENDBRANCH  19  20
ENDBRANCH  18  19
ENDBRANCH  17  18
ENDBRANCH   5  17
TORSDOF 7
ENDMDL
MODEL 2
REMARK VINA RESULT:      -7.2      0.612      1.243
REMARK  Name = 
REMARK  7 active torsions:
REMARK  status: ('A' for Active; 'I' for Inactive)
REMARK    1  A    between atoms: C_4  and  SE_5
REMARK    2  A    between atoms: SE_5  and  C_6
REMARK    3  A    between atoms: N_12  and  C_13
REMARK    4  A    between atoms: C_13  and  O_14
REMARK    5  A    between atoms: O_14  and  C_15
REMARK    6  A    between atoms: C_15  and  C_16
REMARK    7  A    between atoms: C_16  and  O_17
REMARK                            x       y       z     vdW  Elec       q    Type
REMARK                         _______ _______ _______ _____ _____    ______ ____
ROOT
ATOM      1  O   UNL     1       7.142   5.469  20.095  0.00  0.00    +0.000 OA
ATOM      2  C   UNL     1       6.755   5.282  18.954  0.00  0.00    +0.000 A 
ATOM      3  C   UNL     1       5.590   4.563  18.720  0.00  0.00    +0.000 A 
ATOM      4  C   UNL     1       5.156   4.359  17.406  0.00  0.00    +0.000 A 
ATOM      5  N   UNL     1       5.882   4.874  16.352  0.00  0.00    +0.000 N 
ATOM      6  C   UNL     1       7.040   5.597  16.612  0.00  0.00    +0.000 A 
ATOM      7  O   UNL     1       7.699   6.073  15.702  0.00  0.00    +0.000 OA
ATOM      8  N   UNL     1       7.460   5.797  17.901  0.00  0.00    +0.000 N 
ATOM      9  H   UNL     1       8.331   6.345  18.082  0.00  0.00    +0.000 HD
ENDROOT
BRANCH   4  10
ATOM     10 SE   UNL     1       3.462   3.424  17.179  0.00  0.00    +0.000 Se
BRANCH  10  11
ATOM     11  C   UNL     1       2.789   3.444  18.993  0.00  0.00    +0.000 A 
ATOM     12  C   UNL     1       3.138   2.463  19.935  0.00  0.00    +0.000 A 
ATOM     13  C   UNL     1       2.667   2.557  21.254  0.00  0.00    +0.000 A 
ATOM     14  C   UNL     1       1.856   3.632  21.636  0.00  0.00    +0.000 A 
ATOM     15  C   UNL     1       1.516   4.614  20.702  0.00  0.00    +0.000 A 
ATOM     16  C   UNL     1       1.982   4.521  19.386  0.00  0.00    +0.000 A 
ENDBRANCH  10  11
ENDBRANCH   4  10
BRANCH   5  17
ATOM     17  C   UNL     1       5.458   4.636  14.954  0.00  0.00    +0.000 C 
BRANCH  17  18
ATOM     18  O   UNL     1       6.195   3.577  14.368  0.00  0.00    +0.000 OA
BRANCH  18  19
ATOM     19  C   UNL     1       6.463   3.921  13.019  0.00  0.00    +0.000 C 
BRANCH  19  20
ATOM     20  C   UNL     1       5.801   2.925  12.071  0.00  0.00    +0.000 C 
BRANCH  20  21
ATOM     21  O   UNL     1       4.526   3.369  11.694  0.00  0.00    +0.000 OA
ATOM     22  H   UNL     1       4.424   4.283  12.068  0.00  0.00    +0.000 HD
ENDBRANCH  20  21
ENDBRANCH  19  20
ENDBRANCH  18  19
ENDBRANCH  17  18
ENDBRANCH   5  17
TORSDOF 7
ENDMDL
MODEL 3
REMARK VINA RESULT:      -7.0      0.817      1.455
REMARK  Name = 
REMARK  7 active torsions:
REMARK  status: ('A' for Active; 'I' for Inactive)
REMARK    1  A    between atoms: C_4  and  SE_5
REMARK    2  A    between atoms: SE_5  and  C_6
REMARK    3  A    between atoms: N_12  and  C_13
REMARK    4  A    between atoms: C_13  and  O_14
REMARK    5  A    between atoms: O_14  and  C_15
REMARK    6  A    between atoms: C_15  and  C_16
REMARK    7  A    between atoms: C_16  and  O_17
REMARK                            x       y       z     vdW  Elec       q    Type
REMARK                         _______ _______ _______ _____ _____    ______ ____
ROOT
ATOM      1  O   UNL     1       7.144   5.520  20.054  0.00  0.00    +0.000 OA
ATOM      2  C   UNL     1       6.753   5.310  18.919  0.00  0.00    +0.000 A 
ATOM      3  C   UNL     1       5.592   4.577  18.704  0.00  0.00    +0.000 A 
ATOM      4  C   UNL     1       5.152   4.347  17.397  0.00  0.00    +0.000 A 
ATOM      5  N   UNL     1       5.868   4.849  16.330  0.00  0.00    +0.000 N 
ATOM      6  C   UNL     1       7.022   5.585  16.571  0.00  0.00    +0.000 A 
ATOM      7  O   UNL     1       7.673   6.050  15.648  0.00  0.00    +0.000 OA
ATOM      8  N   UNL     1       7.447   5.810  17.854  0.00  0.00    +0.000 N 
ATOM      9  H   UNL     1       8.316   6.368  18.020  0.00  0.00    +0.000 HD
ENDROOT
BRANCH   4  10
ATOM     10 SE   UNL     1       3.464   3.396  17.196  0.00  0.00    +0.000 Se
BRANCH  10  11
ATOM     11  C   UNL     1       2.819   3.409  19.020  0.00  0.00    +0.000 A 
ATOM     12  C   UNL     1       3.286   2.507  19.989  0.00  0.00    +0.000 A 
ATOM     13  C   UNL     1       2.827   2.598  21.312  0.00  0.00    +0.000 A 
ATOM     14  C   UNL     1       1.909   3.591  21.671  0.00  0.00    +0.000 A 
ATOM     15  C   UNL     1       1.450   4.495  20.710  0.00  0.00    +0.000 A 
ATOM     16  C   UNL     1       1.905   4.405  19.390  0.00  0.00    +0.000 A 
ENDBRANCH  10  11
ENDBRANCH   4  10
BRANCH   5  17
ATOM     17  C   UNL     1       5.438   4.583  14.938  0.00  0.00    +0.000 C 
BRANCH  17  18
ATOM     18  O   UNL     1       6.327   3.690  14.289  0.00  0.00    +0.000 OA
BRANCH  18  19
ATOM     19  C   UNL     1       6.159   3.842  12.890  0.00  0.00    +0.000 C 
BRANCH  19  20
ATOM     20  C   UNL     1       7.465   4.293  12.240  0.00  0.00    +0.000 C 
BRANCH  20  21
ATOM     21  O   UNL     1       7.882   5.525  12.764  0.00  0.00    +0.000 OA
ATOM     22  H   UNL     1       8.868   5.558  12.655  0.00  0.00    +0.000 HD
ENDBRANCH  20  21
ENDBRANCH  19  20
ENDBRANCH  18  19
ENDBRANCH  17  18
ENDBRANCH   5  17
TORSDOF 7
ENDMDL
MODEL 4
REMARK VINA RESULT:      -6.9      2.377      3.101
REMARK  Name = 
REMARK  7 active torsions:
REMARK  status: ('A' for Active; 'I' for Inactive)
REMARK    1  A    between atoms: C_4  and  SE_5
REMARK    2  A    between atoms: SE_5  and  C_6
REMARK    3  A    between atoms: N_12  and  C_13
REMARK    4  A    between atoms: C_13  and  O_14
REMARK    5  A    between atoms: O_14  and  C_15
REMARK    6  A    between atoms: C_15  and  C_16
REMARK    7  A    between atoms: C_16  and  O_17
REMARK                            x       y       z     vdW  Elec       q    Type
REMARK                         _______ _______ _______ _____ _____    ______ ____
ROOT
ATOM      1  O   UNL     1       8.026   5.256  20.501  0.00  0.00    +0.000 OA
ATOM      2  C   UNL     1       7.344   5.616  19.557  0.00  0.00    +0.000 A 
ATOM      3  C   UNL     1       6.040   5.158  19.423  0.00  0.00    +0.000 A 
ATOM      4  C   UNL     1       5.267   5.582  18.337  0.00  0.00    +0.000 A 
ATOM      5  N   UNL     1       5.800   6.452  17.409  0.00  0.00    +0.000 N 
ATOM      6  C   UNL     1       7.105   6.902  17.570  0.00  0.00    +0.000 A 
ATOM      7  O   UNL     1       7.603   7.679  16.770  0.00  0.00    +0.000 OA
ATOM      8  N   UNL     1       7.858   6.486  18.637  0.00  0.00    +0.000 N 
ATOM      9  H   UNL     1       8.837   6.834  18.746  0.00  0.00    +0.000 HD
ENDROOT
BRANCH   4  10
ATOM     10 SE   UNL     1       3.420   4.967  18.285  0.00  0.00    +0.000 Se
BRANCH  10  11
ATOM     11  C   UNL     1       2.504   6.499  19.032  0.00  0.00    +0.000 A 
ATOM     12  C   UNL     1       2.013   6.513  20.347  0.00  0.00    +0.000 A 
ATOM     13  C   UNL     1       1.408   7.672  20.858  0.00  0.00    +0.000 A 
ATOM     14  C   UNL     1       1.300   8.818  20.062  0.00  0.00    +0.000 A 
ATOM     15  C   UNL     1       1.797   8.808  18.757  0.00  0.00    +0.000 A 
ATOM     16  C   UNL     1       2.398   7.653  18.245  0.00  0.00    +0.000 A 
ENDBRANCH  10  11
ENDBRANCH   4  10
BRANCH   5  17
ATOM     17  C   UNL     1       5.010   6.882  16.233  0.00  0.00    +0.000 C 
BRANCH  17  18
ATOM     18  O   UNL     1       5.633   6.484  15.024  0.00  0.00    +0.000 OA
BRANCH  18  19
ATOM     19  C   UNL     1       5.515   5.076  14.911  0.00  0.00    +0.000 C 
BRANCH  19  20
ATOM     20  C   UNL     1       6.892   4.432  14.773  0.00  0.00    +0.000 C 
BRANCH  20  21
ATOM     21  O   UNL     1       7.887   5.410  14.633  0.00  0.00    +0.000 OA
ATOM     22  H   UNL     1       7.905   5.918  15.486  0.00  0.00    +0.000 HD
ENDBRANCH  20  21
ENDBRANCH  19  20
ENDBRANCH  18  19
ENDBRANCH  17  18
ENDBRANCH   5  17
TORSDOF 7
ENDMDL
MODEL 5
REMARK VINA RESULT:      -6.8      1.343      1.483
REMARK  Name = 
REMARK  7 active torsions:
REMARK  status: ('A' for Active; 'I' for Inactive)
REMARK    1  A    between atoms: C_4  and  SE_5
REMARK    2  A    between atoms: SE_5  and  C_6
REMARK    3  A    between atoms: N_12  and  C_13
REMARK    4  A    between atoms: C_13  and  O_14
REMARK    5  A    between atoms: O_14  and  C_15
REMARK    6  A    between atoms: C_15  and  C_16
REMARK    7  A    between atoms: C_16  and  O_17
REMARK                            x       y       z     vdW  Elec       q    Type
REMARK                         _______ _______ _______ _____ _____    ______ ____
ROOT
ATOM      1  O   UNL     1       7.673   5.531  20.628  0.00  0.00    +0.000 OA
ATOM      2  C   UNL     1       7.154   5.314  19.547  0.00  0.00    +0.000 A 
ATOM      3  C   UNL     1       5.814   5.617  19.342  0.00  0.00    +0.000 A 
ATOM      4  C   UNL     1       5.232   5.367  18.096  0.00  0.00    +0.000 A 
ATOM      5  N   UNL     1       5.988   4.825  17.077  0.00  0.00    +0.000 N 
ATOM      6  C   UNL     1       7.329   4.538  17.304  0.00  0.00    +0.000 A 
ATOM      7  O   UNL     1       8.027   4.066  16.421  0.00  0.00    +0.000 OA
ATOM      8  N   UNL     1       7.896   4.787  18.526  0.00  0.00    +0.000 N 
ATOM      9  H   UNL     1       8.906   4.569  18.682  0.00  0.00    +0.000 HD
ENDROOT
BRANCH   4  10
ATOM     10 SE   UNL     1       3.376   5.914  17.871  0.00  0.00    +0.000 Se
BRANCH  10  11
ATOM     11  C   UNL     1       2.480   4.657  19.036  0.00  0.00    +0.000 A 
ATOM     12  C   UNL     1       1.783   3.541  18.545  0.00  0.00    +0.000 A 
ATOM     13  C   UNL     1       1.201   2.629  19.438  0.00  0.00    +0.000 A 
ATOM     14  C   UNL     1       1.320   2.822  20.819  0.00  0.00    +0.000 A 
ATOM     15  C   UNL     1       2.021   3.926  21.309  0.00  0.00    +0.000 A 
ATOM     16  C   UNL     1       2.601   4.838  20.421  0.00  0.00    +0.000 A 
ENDBRANCH  10  11
ENDBRANCH   4  10
BRANCH   5  17
ATOM     17  C   UNL     1       5.379   4.519  15.763  0.00  0.00    +0.000 C 
BRANCH  17  18
ATOM     18  O   UNL     1       5.721   5.499  14.798  0.00  0.00    +0.000 OA
BRANCH  18  19
ATOM     19  C   UNL     1       6.472   4.867  13.776  0.00  0.00    +0.000 C 
BRANCH  19  20
ATOM     20  C   UNL     1       5.657   3.751  13.126  0.00  0.00    +0.000 C 
BRANCH  20  21
ATOM     21  O   UNL     1       6.498   2.743  12.635  0.00  0.00    +0.000 OA
ATOM     22  H   UNL     1       6.136   2.481  11.748  0.00  0.00    +0.000 HD
ENDBRANCH  20  21
ENDBRANCH  19  20
ENDBRANCH  18  19
ENDBRANCH  17  18
ENDBRANCH   5  17
TORSDOF 7
ENDMDL
MODEL 6
REMARK VINA RESULT:      -6.7      3.420      5.183
REMARK  Name = 
REMARK  7 active torsions:
REMARK  status: ('A' for Active; 'I' for Inactive)
REMARK    1  A    between atoms: C_4  and  SE_5
REMARK    2  A    between atoms: SE_5  and  C_6
REMARK    3  A    between atoms: N_12  and  C_13
REMARK    4  A    between atoms: C_13  and  O_14
REMARK    5  A    between atoms: O_14  and  C_15
REMARK    6  A    between atoms: C_15  and  C_16
REMARK    7  A    between atoms: C_16  and  O_17
REMARK                            x       y       z     vdW  Elec       q    Type
REMARK                         _______ _______ _______ _____ _____    ______ ____
ROOT
ATOM      1  O   UNL     1       0.572   2.497  18.272  0.00  0.00    +0.000 OA
ATOM      2  C   UNL     1       1.658   2.992  18.522  0.00  0.00    +0.000 A 
ATOM      3  C   UNL     1       2.014   4.213  17.963  0.00  0.00    +0.000 A 
ATOM      4  C   UNL     1       3.261   4.771  18.260  0.00  0.00    +0.000 A 
ATOM      5  N   UNL     1       4.128   4.113  19.108  0.00  0.00    +0.000 N 
ATOM      6  C   UNL     1       3.745   2.896  19.661  0.00  0.00    +0.000 A 
ATOM      7  O   UNL     1       4.485   2.293  20.421  0.00  0.00    +0.000 OA
ATOM      8  N   UNL     1       2.521   2.354  19.368  0.00  0.00    +0.000 N 
ATOM      9  H   UNL     1       2.245   1.440  19.793  0.00  0.00    +0.000 HD
ENDROOT
BRANCH   4  10
ATOM     10 SE   UNL     1       3.634   6.530  17.511  0.00  0.00    +0.000 Se
BRANCH  10  11
ATOM     11  C   UNL     1       2.439   7.634  18.558  0.00  0.00    +0.000 A 
ATOM     12  C   UNL     1       2.156   7.366  19.906  0.00  0.00    +0.000 A 
ATOM     13  C   UNL     1       1.328   8.233  20.635  0.00  0.00    +0.000 A 
ATOM     14  C   UNL     1       0.788   9.370  20.024  0.00  0.00    +0.000 A 
ATOM     15  C   UNL     1       1.077   9.644  18.684  0.00  0.00    +0.000 A 
ATOM     16  C   UNL     1       1.901   8.779  17.955  0.00  0.00    +0.000 A 
ENDBRANCH  10  11
ENDBRANCH   4  10
BRANCH   5  17
ATOM     17  C   UNL     1       5.467   4.670  19.405  0.00  0.00    +0.000 C 
BRANCH  17  18
ATOM     18  O   UNL     1       6.390   4.362  18.375  0.00  0.00    +0.000 OA
BRANCH  18  19
ATOM     19  C   UNL     1       7.070   5.555  18.023  0.00  0.00    +0.000 C 
BRANCH  19  20
ATOM     20  C   UNL     1       7.244   5.646  16.509  0.00  0.00    +0.000 C 
BRANCH  20  21
ATOM     21  O   UNL     1       7.691   4.425  15.986  0.00  0.00    +0.000 OA
ATOM     22  H   UNL     1       6.881   3.875  15.821  0.00  0.00    +0.000 HD
ENDBRANCH  20  21
ENDBRANCH  19  20
ENDBRANCH  18  19
ENDBRANCH  17  18
ENDBRANCH   5  17
TORSDOF 7
ENDMDL
MODEL 7
REMARK VINA RESULT:      -6.6      4.264      6.598
REMARK  Name = 
REMARK  7 active torsions:
REMARK  status: ('A' for Active; 'I' for Inactive)
REMARK    1  A    between atoms: C_4  and  SE_5
REMARK    2  A    between atoms: SE_5  and  C_6
REMARK    3  A    between atoms: N_12  and  C_13
REMARK    4  A    between atoms: C_13  and  O_14
REMARK    5  A    between atoms: O_14  and  C_15
REMARK    6  A    between atoms: C_15  and  C_16
REMARK    7  A    between atoms: C_16  and  O_17
REMARK                            x       y       z     vdW  Elec       q    Type
REMARK                         _______ _______ _______ _____ _____    ______ ____
ROOT
ATOM      1  O   UNL     1       1.932  10.065  17.556  0.00  0.00    +0.000 OA
ATOM      2  C   UNL     1       2.023   9.033  18.199  0.00  0.00    +0.000 A 
ATOM      3  C   UNL     1       2.673   7.929  17.660  0.00  0.00    +0.000 A 
ATOM      4  C   UNL     1       2.774   6.754  18.410  0.00  0.00    +0.000 A 
ATOM      5  N   UNL     1       2.234   6.695  19.678  0.00  0.00    +0.000 N 
ATOM      6  C   UNL     1       1.595   7.815  20.197  0.00  0.00    +0.000 A 
ATOM      7  O   UNL     1       1.114   7.797  21.320  0.00  0.00    +0.000 OA
ATOM      8  N   UNL     1       1.501   8.966  19.460  0.00  0.00    +0.000 N 
ATOM      9  H   UNL     1       1.020   9.801  19.865  0.00  0.00    +0.000 HD
ENDROOT
BRANCH   4  10
ATOM     10 SE   UNL     1       3.787   5.292  17.614  0.00  0.00    +0.000 Se
BRANCH  10  11
ATOM     11  C   UNL     1       5.599   5.869  17.967  0.00  0.00    +0.000 A 
ATOM     12  C   UNL     1       6.229   6.872  17.213  0.00  0.00    +0.000 A 
ATOM     13  C   UNL     1       7.525   7.293  17.550  0.00  0.00    +0.000 A 
ATOM     14  C   UNL     1       8.189   6.722  18.641  0.00  0.00    +0.000 A 
ATOM     15  C   UNL     1       7.560   5.731  19.398  0.00  0.00    +0.000 A 
ATOM     16  C   UNL     1       6.269   5.308  19.063  0.00  0.00    +0.000 A 
ENDBRANCH  10  11
ENDBRANCH   4  10
BRANCH   5  17
ATOM     17  C   UNL     1       2.298   5.446  20.471  0.00  0.00    +0.000 C 
BRANCH  17  18
ATOM     18  O   UNL     1       1.101   4.699  20.348  0.00  0.00    +0.000 OA
BRANCH  18  19
ATOM     19  C   UNL     1       1.405   3.337  20.594  0.00  0.00    +0.000 C 
BRANCH  19  20
ATOM     20  C   UNL     1       2.148   2.731  19.407  0.00  0.00    +0.000 C 
BRANCH  20  21
ATOM     21  O   UNL     1       1.589   1.497  19.047  0.00  0.00    +0.000 OA
ATOM     22  H   UNL     1       0.640   1.521  19.339  0.00  0.00    +0.000 HD
ENDBRANCH  20  21
ENDBRANCH  19  20
ENDBRANCH  18  19
ENDBRANCH  17  18
ENDBRANCH   5  17
TORSDOF 7
ENDMDL
MODEL 8
REMARK VINA RESULT:      -6.6      3.212      4.917
REMARK  Name = 
REMARK  7 active torsions:
REMARK  status: ('A' for Active; 'I' for Inactive)
REMARK    1  A    between atoms: C_4  and  SE_5
REMARK    2  A    between atoms: SE_5  and  C_6
REMARK    3  A    between atoms: N_12  and  C_13
REMARK    4  A    between atoms: C_13  and  O_14
REMARK    5  A    between atoms: O_14  and  C_15
REMARK    6  A    between atoms: C_15  and  C_16
REMARK    7  A    between atoms: C_16  and  O_17
REMARK                            x       y       z     vdW  Elec       q    Type
REMARK                         _______ _______ _______ _____ _____    ______ ____
ROOT
ATOM      1  O   UNL     1       1.029   2.424  18.038  0.00  0.00    +0.000 OA
ATOM      2  C   UNL     1       2.047   3.032  18.322  0.00  0.00    +0.000 A 
ATOM      3  C   UNL     1       2.249   4.320  17.843  0.00  0.00    +0.000 A 
ATOM      4  C   UNL     1       3.419   5.007  18.180  0.00  0.00    +0.000 A 
ATOM      5  N   UNL     1       4.364   4.407  18.986  0.00  0.00    +0.000 N 
ATOM      6  C   UNL     1       4.135   3.120  19.459  0.00  0.00    +0.000 A 
ATOM      7  O   UNL     1       4.948   2.565  20.182  0.00  0.00    +0.000 OA
ATOM      8  N   UNL     1       2.986   2.452  19.129  0.00  0.00    +0.000 N 
ATOM      9  H   UNL     1       2.826   1.485  19.494  0.00  0.00    +0.000 HD
ENDROOT
BRANCH   4  10
ATOM     10 SE   UNL     1       3.570   6.842  17.545  0.00  0.00    +0.000 Se
BRANCH  10  11
ATOM     11  C   UNL     1       2.403   7.756  18.788  0.00  0.00    +0.000 A 
ATOM     12  C   UNL     1       1.745   8.952  18.462  0.00  0.00    +0.000 A 
ATOM     13  C   UNL     1       0.864   9.542  19.381  0.00  0.00    +0.000 A 
ATOM     14  C   UNL     1       0.633   8.937  20.621  0.00  0.00    +0.000 A 
ATOM     15  C   UNL     1       1.280   7.742  20.944  0.00  0.00    +0.000 A 
ATOM     16  C   UNL     1       2.160   7.153  20.030  0.00  0.00    +0.000 A 
ENDBRANCH  10  11
ENDBRANCH   4  10
BRANCH   5  17
ATOM     17  C   UNL     1       5.626   5.105  19.322  0.00  0.00    +0.000 C 
BRANCH  17  18
ATOM     18  O   UNL     1       6.738   4.471  18.716  0.00  0.00    +0.000 OA
BRANCH  18  19
ATOM     19  C   UNL     1       6.650   4.672  17.315  0.00  0.00    +0.000 C 
BRANCH  19  20
ATOM     20  C   UNL     1       7.227   6.032  16.932  0.00  0.00    +0.000 C 
BRANCH  20  21
ATOM     21  O   UNL     1       7.724   6.010  15.622  0.00  0.00    +0.000 OA
ATOM     22  H   UNL     1       8.252   6.844  15.506  0.00  0.00    +0.000 HD
ENDBRANCH  20  21
ENDBRANCH  19  20
ENDBRANCH  18  19
ENDBRANCH  17  18
ENDBRANCH   5  17
TORSDOF 7
ENDMDL
MODEL 9
REMARK VINA RESULT:      -6.6      2.106      4.588
REMARK  Name = 
REMARK  7 active torsions:
REMARK  status: ('A' for Active; 'I' for Inactive)
REMARK    1  A    between atoms: C_4  and  SE_5
REMARK    2  A    between atoms: SE_5  and  C_6
REMARK    3  A    between atoms: N_12  and  C_13
REMARK    4  A    between atoms: C_13  and  O_14
REMARK    5  A    between atoms: O_14  and  C_15
REMARK    6  A    between atoms: C_15  and  C_16
REMARK    7  A    between atoms: C_16  and  O_17
REMARK                            x       y       z     vdW  Elec       q    Type
REMARK                         _______ _______ _______ _____ _____    ______ ____
ROOT
ATOM      1  O   UNL     1       5.845   4.113  13.586  0.00  0.00    +0.000 OA
ATOM      2  C   UNL     1       6.039   4.538  14.711  0.00  0.00    +0.000 A 
ATOM      3  C   UNL     1       5.169   5.467  15.268  0.00  0.00    +0.000 A 
ATOM      4  C   UNL     1       5.402   5.943  16.562  0.00  0.00    +0.000 A 
ATOM      5  N   UNL     1       6.488   5.487  17.280  0.00  0.00    +0.000 N 
ATOM      6  C   UNL     1       7.340   4.551  16.704  0.00  0.00    +0.000 A 
ATOM      7  O   UNL     1       8.304   4.122  17.317  0.00  0.00    +0.000 OA
ATOM      8  N   UNL     1       7.106   4.086  15.437  0.00  0.00    +0.000 N 
ATOM      9  H   UNL     1       7.754   3.380  15.018  0.00  0.00    +0.000 HD
ENDROOT
BRANCH   4  10
ATOM     10 SE   UNL     1       4.077   7.167  17.295  0.00  0.00    +0.000 Se
BRANCH  10  11
ATOM     11  C   UNL     1       3.025   5.959  18.380  0.00  0.00    +0.000 A 
ATOM     12  C   UNL     1       2.629   6.275  19.689  0.00  0.00    +0.000 A 
ATOM     13  C   UNL     1       1.816   5.386  20.410  0.00  0.00    +0.000 A 
ATOM     14  C   UNL     1       1.392   4.188  19.825  0.00  0.00    +0.000 A 
ATOM     15  C   UNL     1       1.778   3.876  18.519  0.00  0.00    +0.000 A 
ATOM     16  C   UNL     1       2.589   4.760  17.799  0.00  0.00    +0.000 A 
ENDBRANCH  10  11
ENDBRANCH   4  10
BRANCH   5  17
ATOM     17  C   UNL     1       6.771   6.008  18.637  0.00  0.00    +0.000 C 
BRANCH  17  18
ATOM     18  O   UNL     1       7.910   6.851  18.634  0.00  0.00    +0.000 OA
BRANCH  18  19
ATOM     19  C   UNL     1       7.721   7.842  17.638  0.00  0.00    +0.000 C 
BRANCH  19  20
ATOM     20  C   UNL     1       8.286   9.182  18.101  0.00  0.00    +0.000 C 
BRANCH  20  21
ATOM     21  O   UNL     1       9.112   9.013  19.221  0.00  0.00    +0.000 OA
ATOM     22  H   UNL     1       9.995   8.718  18.878  0.00  0.00    +0.000 HD
ENDBRANCH  20  21
ENDBRANCH  19  20
ENDBRANCH  18  19
ENDBRANCH  17  18
ENDBRANCH   5  17
TORSDOF 7
ENDMDL
