MODEL 1
REMARK VINA RESULT:      -8.3      0.000      0.000
REMARK  Name = 
REMARK  11 active torsions:
REMARK  status: ('A' for Active; 'I' for Inactive)
REMARK    1  A    between atoms: C_2  and  O_3
REMARK    2  A    between atoms: C_2  and  C_4
REMARK    3  A    between atoms: C_4  and  O_5
REMARK    4  A    between atoms: O_5  and  C_6
REMARK    5  A    between atoms: C_9  and  S_10
REMARK    6  A    between atoms: S_10  and  C_11
REMARK    7  A    between atoms: C_11  and  C_12
REMARK    8  A    between atoms: C_15  and  O_16
REMARK    9  A    between atoms: O_16  and  C_17
REMARK   10  A    between atoms: C_17  and  C_18
REMARK   11  A    between atoms: C_21  and  C_22
REMARK                            x       y       z     vdW  Elec       q    Type
REMARK                         _______ _______ _______ _____ _____    ______ ____
ROOT
ATOM      1  C   UNL     1       6.486   5.008  17.703  0.00  0.00    +0.000 A 
ATOM      2  C   UNL     1       7.196   4.998  18.908  0.00  0.00    +0.000 A 
ATOM      3  C   UNL     1       7.930   6.105  19.319  0.00  0.00    +0.000 A 
ATOM      4  C   UNL     1       8.040   7.223  18.495  0.00  0.00    +0.000 A 
ATOM      5  C   UNL     1       7.344   7.254  17.287  0.00  0.00    +0.000 A 
ATOM      6  C   UNL     1       6.576   6.152  16.889  0.00  0.00    +0.000 A 
ENDROOT
BRANCH   1   7
ATOM      7  C   UNL     1       5.695   3.801  17.243  0.00  0.00    +0.000 C 
BRANCH   7   8
ATOM      8  S   UNL     1       4.083   4.242  16.473  0.00  0.00    +0.000 S 
BRANCH   8  12
ATOM      9  C   UNL     1       1.940   6.289  20.007  0.00  0.00    +0.000 A 
ATOM     10  C   UNL     1       2.596   7.027  19.014  0.00  0.00    +0.000 A 
ATOM     11  C   UNL     1       3.257   6.396  17.953  0.00  0.00    +0.000 A 
ATOM     12  C   UNL     1       3.255   5.006  17.840  0.00  0.00    +0.000 A 
ATOM     13  C   UNL     1       2.626   4.271  18.842  0.00  0.00    +0.000 A 
ATOM     14  C   UNL     1       1.960   4.900  19.919  0.00  0.00    +0.000 A 
ATOM     15  C   UNL     1       1.277   3.858  20.757  0.00  0.00    +0.000 C 
ATOM     16  C   UNL     1       2.036   2.586  20.375  0.00  0.00    +0.000 C 
ATOM     17  C   UNL     1       2.479   2.776  18.925  0.00  0.00    +0.000 C 
BRANCH   9  18
ATOM     18  O   UNL     1       1.315   7.069  20.935  0.00  0.00    +0.000 OA
BRANCH  18  19
ATOM     19  C   UNL     1       1.347   8.476  20.710  0.00  0.00    +0.000 C 
BRANCH  19  21
ATOM     20  O   UNL     1      -0.274   8.719  22.491  0.00  0.00    +0.000 OA
ATOM     21  C   UNL     1       0.668   9.184  21.867  0.00  0.00    +0.000 C 
BRANCH  21  22
ATOM     22  O   UNL     1       1.202  10.398  22.145  0.00  0.00    +0.000 OA
ATOM     23  H   UNL     1       1.211  10.945  21.329  0.00  0.00    +0.000 HD
ENDBRANCH  21  22
ENDBRANCH  19  21
ENDBRANCH  18  19
ENDBRANCH   9  18
ENDBRANCH   8  12
ENDBRANCH   7   8
ENDBRANCH   1   7
BRANCH   4  24
ATOM     24  O   UNL     1       8.820   8.312  18.780  0.00  0.00    +0.000 OA
BRANCH  24  25
ATOM     25  C   UNL     1       8.472   9.484  18.034  0.00  0.00    +0.000 C 
BRANCH  25  26
ATOM     26  C   UNL     1       9.038  10.726  18.669  0.00  0.00    +0.000 A 
ATOM     27  C   UNL     1       9.471  10.738  19.999  0.00  0.00    +0.000 A 
ATOM     28  C   UNL     1      10.001  11.902  20.556  0.00  0.00    +0.000 A 
ATOM     29  C   UNL     1      10.121  13.070  19.787  0.00  0.00    +0.000 A 
ATOM     30  C   UNL     1       9.714  13.047  18.447  0.00  0.00    +0.000 A 
ATOM     31  C   UNL     1       9.184  11.885  17.893  0.00  0.00    +0.000 A 
BRANCH  29  32
ATOM     32  C   UNL     1      10.675  14.340  20.380  0.00  0.00    +0.000 C 
ATOM     33  F   UNL     1      11.975  14.578  20.051  0.00  0.00    +0.000 F 
ATOM     34  F   UNL     1       9.981  15.444  19.982  0.00  0.00    +0.000 F 
ATOM     35  F   UNL     1      10.627  14.340  21.741  0.00  0.00    +0.000 F 
ENDBRANCH  29  32
ENDBRANCH  25  26
ENDBRANCH  24  25
ENDBRANCH   4  24
TORSDOF 11
ENDMDL
MODEL 2
REMARK VINA RESULT:      -8.2      6.016      9.541
REMARK  Name = 
REMARK  11 active torsions:
REMARK  status: ('A' for Active; 'I' for Inactive)
REMARK    1  A    between atoms: C_2  and  O_3
REMARK    2  A    between atoms: C_2  and  C_4
REMARK    3  A    between atoms: C_4  and  O_5
REMARK    4  A    between atoms: O_5  and  C_6
REMARK    5  A    between atoms: C_9  and  S_10
REMARK    6  A    between atoms: S_10  and  C_11
REMARK    7  A    between atoms: C_11  and  C_12
REMARK    8  A    between atoms: C_15  and  O_16
REMARK    9  A    between atoms: O_16  and  C_17
REMARK   10  A    between atoms: C_17  and  C_18
REMARK   11  A    between atoms: C_21  and  C_22
REMARK                            x       y       z     vdW  Elec       q    Type
REMARK                         _______ _______ _______ _____ _____    ______ ____
ROOT
ATOM      1  C   UNL     1       2.236   5.509  19.546  0.00  0.00    +0.000 A 
ATOM      2  C   UNL     1       2.368   5.987  18.238  0.00  0.00    +0.000 A 
ATOM      3  C   UNL     1       2.271   7.345  17.955  0.00  0.00    +0.000 A 
ATOM      4  C   UNL     1       1.956   8.253  18.963  0.00  0.00    +0.000 A 
ATOM      5  C   UNL     1       1.816   7.799  20.274  0.00  0.00    +0.000 A 
ATOM      6  C   UNL     1       1.949   6.434  20.565  0.00  0.00    +0.000 A 
ENDROOT
BRANCH   1   7
ATOM      7  C   UNL     1       2.328   4.030  19.858  0.00  0.00    +0.000 C 
BRANCH   7   8
ATOM      8  S   UNL     1       4.060   3.413  19.938  0.00  0.00    +0.000 S 
BRANCH   8  12
ATOM      9  C   UNL     1       5.598   4.679  15.779  0.00  0.00    +0.000 A 
ATOM     10  C   UNL     1       4.561   3.750  15.931  0.00  0.00    +0.000 A 
ATOM     11  C   UNL     1       4.112   3.361  17.199  0.00  0.00    +0.000 A 
ATOM     12  C   UNL     1       4.669   3.913  18.351  0.00  0.00    +0.000 A 
ATOM     13  C   UNL     1       5.719   4.816  18.200  0.00  0.00    +0.000 A 
ATOM     14  C   UNL     1       6.181   5.211  16.924  0.00  0.00    +0.000 A 
ATOM     15  C   UNL     1       7.223   6.281  17.084  0.00  0.00    +0.000 C 
ATOM     16  C   UNL     1       7.676   6.080  18.531  0.00  0.00    +0.000 C 
ATOM     17  C   UNL     1       6.458   5.550  19.286  0.00  0.00    +0.000 C 
BRANCH   9  18
ATOM     18  O   UNL     1       5.874   4.971  14.475  0.00  0.00    +0.000 OA
BRANCH  18  19
ATOM     19  C   UNL     1       6.758   4.083  13.796  0.00  0.00    +0.000 C 
BRANCH  19  21
ATOM     20  O   UNL     1       4.863   3.680  12.344  0.00  0.00    +0.000 OA
ATOM     21  C   UNL     1       6.024   3.434  12.638  0.00  0.00    +0.000 C 
BRANCH  21  22
ATOM     22  O   UNL     1       6.777   2.539  11.954  0.00  0.00    +0.000 OA
ATOM     23  H   UNL     1       6.190   1.875  11.531  0.00  0.00    +0.000 HD
ENDBRANCH  21  22
ENDBRANCH  19  21
ENDBRANCH  18  19
ENDBRANCH   9  18
ENDBRANCH   8  12
ENDBRANCH   7   8
ENDBRANCH   1   7
BRANCH   4  24
ATOM     24  O   UNL     1       1.747   9.590  18.753  0.00  0.00    +0.000 OA
BRANCH  24  25
ATOM     25  C   UNL     1       0.866  10.195  19.707  0.00  0.00    +0.000 C 
BRANCH  25  26
ATOM     26  C   UNL     1      -0.469  10.519  19.091  0.00  0.00    +0.000 A 
ATOM     27  C   UNL     1      -0.889   9.926  17.896  0.00  0.00    +0.000 A 
ATOM     28  C   UNL     1      -2.137  10.239  17.357  0.00  0.00    +0.000 A 
ATOM     29  C   UNL     1      -2.992  11.137  18.012  0.00  0.00    +0.000 A 
ATOM     30  C   UNL     1      -2.581  11.708  19.224  0.00  0.00    +0.000 A 
ATOM     31  C   UNL     1      -1.335  11.396  19.760  0.00  0.00    +0.000 A 
BRANCH  29  32
ATOM     32  C   UNL     1      -4.336  11.499  17.432  0.00  0.00    +0.000 C 
ATOM     33  F   UNL     1      -4.311  11.726  16.089  0.00  0.00    +0.000 F 
ATOM     34  F   UNL     1      -5.266  10.523  17.628  0.00  0.00    +0.000 F 
ATOM     35  F   UNL     1      -4.855  12.627  17.993  0.00  0.00    +0.000 F 
ENDBRANCH  29  32
ENDBRANCH  25  26
ENDBRANCH  24  25
ENDBRANCH   4  24
TORSDOF 11
ENDMDL
MODEL 3
REMARK VINA RESULT:      -7.9      6.151      9.575
REMARK  Name = 
REMARK  11 active torsions:
REMARK  status: ('A' for Active; 'I' for Inactive)
REMARK    1  A    between atoms: C_2  and  O_3
REMARK    2  A    between atoms: C_2  and  C_4
REMARK    3  A    between atoms: C_4  and  O_5
REMARK    4  A    between atoms: O_5  and  C_6
REMARK    5  A    between atoms: C_9  and  S_10
REMARK    6  A    between atoms: S_10  and  C_11
REMARK    7  A    between atoms: C_11  and  C_12
REMARK    8  A    between atoms: C_15  and  O_16
REMARK    9  A    between atoms: O_16  and  C_17
REMARK   10  A    between atoms: C_17  and  C_18
REMARK   11  A    between atoms: C_21  and  C_22
REMARK                            x       y       z     vdW  Elec       q    Type
REMARK                         _______ _______ _______ _____ _____    ______ ____
ROOT
ATOM      1  C   UNL     1       0.594  10.221  20.409  0.00  0.00    +0.000 A 
ATOM      2  C   UNL     1       1.133   9.932  19.151  0.00  0.00    +0.000 A 
ATOM      3  C   UNL     1       1.751   8.713  18.895  0.00  0.00    +0.000 A 
ATOM      4  C   UNL     1       1.919   7.782  19.917  0.00  0.00    +0.000 A 
ATOM      5  C   UNL     1       1.393   8.049  21.180  0.00  0.00    +0.000 A 
ATOM      6  C   UNL     1       0.739   9.263  21.428  0.00  0.00    +0.000 A 
ENDROOT
BRANCH   1   7
ATOM      7  C   UNL     1      -0.069  11.552  20.697  0.00  0.00    +0.000 C 
BRANCH   7   8
ATOM      8  S   UNL     1      -0.541  12.470  19.174  0.00  0.00    +0.000 S 
BRANCH   8  12
ATOM      9  C   UNL     1      -5.134  12.062  19.273  0.00  0.00    +0.000 A 
ATOM     10  C   UNL     1      -4.354  11.392  18.323  0.00  0.00    +0.000 A 
ATOM     11  C   UNL     1      -2.961  11.535  18.291  0.00  0.00    +0.000 A 
ATOM     12  C   UNL     1      -2.306  12.330  19.230  0.00  0.00    +0.000 A 
ATOM     13  C   UNL     1      -3.084  13.018  20.158  0.00  0.00    +0.000 A 
ATOM     14  C   UNL     1      -4.491  12.883  20.195  0.00  0.00    +0.000 A 
ATOM     15  C   UNL     1      -5.032  13.639  21.374  0.00  0.00    +0.000 C 
ATOM     16  C   UNL     1      -3.898  14.618  21.680  0.00  0.00    +0.000 C 
ATOM     17  C   UNL     1      -2.606  13.913  21.270  0.00  0.00    +0.000 C 
BRANCH   9  18
ATOM     18  O   UNL     1      -6.464  11.771  19.182  0.00  0.00    +0.000 OA
BRANCH  18  19
ATOM     19  C   UNL     1      -6.799  10.466  18.720  0.00  0.00    +0.000 C 
BRANCH  19  21
ATOM     20  O   UNL     1      -7.285  10.017  21.049  0.00  0.00    +0.000 OA
ATOM     21  C   UNL     1      -7.285   9.630  19.889  0.00  0.00    +0.000 C 
BRANCH  21  22
ATOM     22  O   UNL     1      -7.717   8.397  19.529  0.00  0.00    +0.000 OA
ATOM     23  H   UNL     1      -7.012   7.738  19.713  0.00  0.00    +0.000 HD
ENDBRANCH  21  22
ENDBRANCH  19  21
ENDBRANCH  18  19
ENDBRANCH   9  18
ENDBRANCH   8  12
ENDBRANCH   7   8
ENDBRANCH   1   7
BRANCH   4  24
ATOM     24  O   UNL     1       2.600   6.602  19.774  0.00  0.00    +0.000 OA
BRANCH  24  25
ATOM     25  C   UNL     1       2.155   5.806  18.670  0.00  0.00    +0.000 C 
BRANCH  25  26
ATOM     26  C   UNL     1       3.286   5.494  17.727  0.00  0.00    +0.000 A 
ATOM     27  C   UNL     1       4.130   6.496  17.239  0.00  0.00    +0.000 A 
ATOM     28  C   UNL     1       5.177   6.174  16.375  0.00  0.00    +0.000 A 
ATOM     29  C   UNL     1       5.407   4.842  15.997  0.00  0.00    +0.000 A 
ATOM     30  C   UNL     1       4.577   3.837  16.511  0.00  0.00    +0.000 A 
ATOM     31  C   UNL     1       3.532   4.160  17.372  0.00  0.00    +0.000 A 
BRANCH  29  32
ATOM     32  C   UNL     1       6.522   4.481  15.050  0.00  0.00    +0.000 C 
ATOM     33  F   UNL     1       6.306   3.324  14.363  0.00  0.00    +0.000 F 
ATOM     34  F   UNL     1       6.733   5.441  14.106  0.00  0.00    +0.000 F 
ATOM     35  F   UNL     1       7.713   4.319  15.690  0.00  0.00    +0.000 F 
ENDBRANCH  29  32
ENDBRANCH  25  26
ENDBRANCH  24  25
ENDBRANCH   4  24
TORSDOF 11
ENDMDL
MODEL 4
REMARK VINA RESULT:      -7.9      5.334      9.130
REMARK  Name = 
REMARK  11 active torsions:
REMARK  status: ('A' for Active; 'I' for Inactive)
REMARK    1  A    between atoms: C_2  and  O_3
REMARK    2  A    between atoms: C_2  and  C_4
REMARK    3  A    between atoms: C_4  and  O_5
REMARK    4  A    between atoms: O_5  and  C_6
REMARK    5  A    between atoms: C_9  and  S_10
REMARK    6  A    between atoms: S_10  and  C_11
REMARK    7  A    between atoms: C_11  and  C_12
REMARK    8  A    between atoms: C_15  and  O_16
REMARK    9  A    between atoms: O_16  and  C_17
REMARK   10  A    between atoms: C_17  and  C_18
REMARK   11  A    between atoms: C_21  and  C_22
REMARK                            x       y       z     vdW  Elec       q    Type
REMARK                         _______ _______ _______ _____ _____    ______ ____
ROOT
ATOM      1  C   UNL     1       2.164   5.503  19.522  0.00  0.00    +0.000 A 
ATOM      2  C   UNL     1       2.412   6.333  18.424  0.00  0.00    +0.000 A 
ATOM      3  C   UNL     1       2.281   7.714  18.521  0.00  0.00    +0.000 A 
ATOM      4  C   UNL     1       1.818   8.295  19.699  0.00  0.00    +0.000 A 
ATOM      5  C   UNL     1       1.560   7.487  20.806  0.00  0.00    +0.000 A 
ATOM      6  C   UNL     1       1.727   6.099  20.718  0.00  0.00    +0.000 A 
ENDROOT
BRANCH   1   7
ATOM      7  C   UNL     1       2.293   3.997  19.418  0.00  0.00    +0.000 C 
BRANCH   7   8
ATOM      8  S   UNL     1       4.020   3.402  19.640  0.00  0.00    +0.000 S 
BRANCH   8  12
ATOM      9  C   UNL     1       5.964   5.002  15.776  0.00  0.00    +0.000 A 
ATOM     10  C   UNL     1       4.897   4.095  15.745  0.00  0.00    +0.000 A 
ATOM     11  C   UNL     1       4.324   3.603  16.924  0.00  0.00    +0.000 A 
ATOM     12  C   UNL     1       4.784   4.029  18.169  0.00  0.00    +0.000 A 
ATOM     13  C   UNL     1       5.862   4.909  18.200  0.00  0.00    +0.000 A 
ATOM     14  C   UNL     1       6.450   5.408  17.015  0.00  0.00    +0.000 A 
ATOM     15  C   UNL     1       7.495   6.426  17.369  0.00  0.00    +0.000 C 
ATOM     16  C   UNL     1       7.807   6.078  18.825  0.00  0.00    +0.000 C 
ATOM     17  C   UNL     1       6.514   5.516  19.413  0.00  0.00    +0.000 C 
BRANCH   9  18
ATOM     18  O   UNL     1       6.365   5.406  14.536  0.00  0.00    +0.000 OA
BRANCH  18  19
ATOM     19  C   UNL     1       7.437   4.677  13.944  0.00  0.00    +0.000 C 
BRANCH  19  21
ATOM     20  O   UNL     1       7.723   5.684  11.762  0.00  0.00    +0.000 OA
ATOM     21  C   UNL     1       8.123   5.547  12.908  0.00  0.00    +0.000 C 
BRANCH  21  22
ATOM     22  O   UNL     1       9.239   6.161  13.372  0.00  0.00    +0.000 OA
ATOM     23  H   UNL     1       9.960   6.067  12.711  0.00  0.00    +0.000 HD
ENDBRANCH  21  22
ENDBRANCH  19  21
ENDBRANCH  18  19
ENDBRANCH   9  18
ENDBRANCH   8  12
ENDBRANCH   7   8
ENDBRANCH   1   7
BRANCH   4  24
ATOM     24  O   UNL     1       1.568   9.634  19.847  0.00  0.00    +0.000 OA
BRANCH  24  25
ATOM     25  C   UNL     1       0.293  10.045  19.342  0.00  0.00    +0.000 C 
BRANCH  25  26
ATOM     26  C   UNL     1      -0.513  10.753  20.398  0.00  0.00    +0.000 A 
ATOM     27  C   UNL     1      -0.223  10.612  21.759  0.00  0.00    +0.000 A 
ATOM     28  C   UNL     1      -0.982  11.290  22.713  0.00  0.00    +0.000 A 
ATOM     29  C   UNL     1      -2.034  12.133  22.321  0.00  0.00    +0.000 A 
ATOM     30  C   UNL     1      -2.304  12.294  20.956  0.00  0.00    +0.000 A 
ATOM     31  C   UNL     1      -1.547  11.615  20.005  0.00  0.00    +0.000 A 
BRANCH  29  32
ATOM     32  C   UNL     1      -2.874  12.857  23.341  0.00  0.00    +0.000 C 
ATOM     33  F   UNL     1      -2.146  13.561  24.252  0.00  0.00    +0.000 F 
ATOM     34  F   UNL     1      -3.726  13.754  22.770  0.00  0.00    +0.000 F 
ATOM     35  F   UNL     1      -3.657  12.008  24.064  0.00  0.00    +0.000 F 
ENDBRANCH  29  32
ENDBRANCH  25  26
ENDBRANCH  24  25
ENDBRANCH   4  24
TORSDOF 11
ENDMDL
MODEL 5
REMARK VINA RESULT:      -7.9      4.405      8.439
REMARK  Name = 
REMARK  11 active torsions:
REMARK  status: ('A' for Active; 'I' for Inactive)
REMARK    1  A    between atoms: C_2  and  O_3
REMARK    2  A    between atoms: C_2  and  C_4
REMARK    3  A    between atoms: C_4  and  O_5
REMARK    4  A    between atoms: O_5  and  C_6
REMARK    5  A    between atoms: C_9  and  S_10
REMARK    6  A    between atoms: S_10  and  C_11
REMARK    7  A    between atoms: C_11  and  C_12
REMARK    8  A    between atoms: C_15  and  O_16
REMARK    9  A    between atoms: O_16  and  C_17
REMARK   10  A    between atoms: C_17  and  C_18
REMARK   11  A    between atoms: C_21  and  C_22
REMARK                            x       y       z     vdW  Elec       q    Type
REMARK                         _______ _______ _______ _____ _____    ______ ____
ROOT
ATOM      1  C   UNL     1       2.441   4.295  18.702  0.00  0.00    +0.000 A 
ATOM      2  C   UNL     1       2.035   4.020  20.012  0.00  0.00    +0.000 A 
ATOM      3  C   UNL     1       1.602   5.033  20.860  0.00  0.00    +0.000 A 
ATOM      4  C   UNL     1       1.642   6.362  20.445  0.00  0.00    +0.000 A 
ATOM      5  C   UNL     1       2.046   6.662  19.145  0.00  0.00    +0.000 A 
ATOM      6  C   UNL     1       2.449   5.636  18.279  0.00  0.00    +0.000 A 
ENDROOT
BRANCH   1   7
ATOM      7  C   UNL     1       2.926   3.197  17.779  0.00  0.00    +0.000 C 
BRANCH   7   8
ATOM      8  S   UNL     1       4.619   2.603  18.187  0.00  0.00    +0.000 S 
BRANCH   8  12
ATOM      9  C   UNL     1       7.145   6.299  17.082  0.00  0.00    +0.000 A 
ATOM     10  C   UNL     1       6.703   6.072  18.391  0.00  0.00    +0.000 A 
ATOM     11  C   UNL     1       5.923   4.955  18.713  0.00  0.00    +0.000 A 
ATOM     12  C   UNL     1       5.588   4.016  17.739  0.00  0.00    +0.000 A 
ATOM     13  C   UNL     1       6.005   4.256  16.432  0.00  0.00    +0.000 A 
ATOM     14  C   UNL     1       6.788   5.384  16.096  0.00  0.00    +0.000 A 
ATOM     15  C   UNL     1       7.185   5.301  14.650  0.00  0.00    +0.000 C 
ATOM     16  C   UNL     1       6.145   4.333  14.083  0.00  0.00    +0.000 C 
ATOM     17  C   UNL     1       5.781   3.385  15.225  0.00  0.00    +0.000 C 
BRANCH   9  18
ATOM     18  O   UNL     1       7.928   7.410  16.962  0.00  0.00    +0.000 OA
BRANCH  18  19
ATOM     19  C   UNL     1       7.444   8.600  17.579  0.00  0.00    +0.000 C 
BRANCH  19  21
ATOM     20  O   UNL     1       9.119  10.335  17.788  0.00  0.00    +0.000 OA
ATOM     21  C   UNL     1       8.600   9.326  18.241  0.00  0.00    +0.000 C 
BRANCH  21  22
ATOM     22  O   UNL     1       9.015   8.744  19.392  0.00  0.00    +0.000 OA
ATOM     23  H   UNL     1       9.522   9.397  19.923  0.00  0.00    +0.000 HD
ENDBRANCH  21  22
ENDBRANCH  19  21
ENDBRANCH  18  19
ENDBRANCH   9  18
ENDBRANCH   8  12
ENDBRANCH   7   8
ENDBRANCH   1   7
BRANCH   4  24
ATOM     24  O   UNL     1       1.326   7.426  21.248  0.00  0.00    +0.000 OA
BRANCH  24  25
ATOM     25  C   UNL     1       1.252   8.675  20.552  0.00  0.00    +0.000 C 
BRANCH  25  26
ATOM     26  C   UNL     1       0.323   9.635  21.246  0.00  0.00    +0.000 A 
ATOM     27  C   UNL     1       0.078   9.556  22.620  0.00  0.00    +0.000 A 
ATOM     28  C   UNL     1      -0.780  10.467  23.235  0.00  0.00    +0.000 A 
ATOM     29  C   UNL     1      -1.397  11.482  22.488  0.00  0.00    +0.000 A 
ATOM     30  C   UNL     1      -1.128  11.577  21.117  0.00  0.00    +0.000 A 
ATOM     31  C   UNL     1      -0.272  10.666  20.504  0.00  0.00    +0.000 A 
BRANCH  29  32
ATOM     32  C   UNL     1      -2.342  12.462  23.136  0.00  0.00    +0.000 C 
ATOM     33  F   UNL     1      -2.986  13.271  22.249  0.00  0.00    +0.000 F 
ATOM     34  F   UNL     1      -3.319  11.844  23.856  0.00  0.00    +0.000 F 
ATOM     35  F   UNL     1      -1.707  13.295  24.007  0.00  0.00    +0.000 F 
ENDBRANCH  29  32
ENDBRANCH  25  26
ENDBRANCH  24  25
ENDBRANCH   4  24
TORSDOF 11
ENDMDL
MODEL 6
REMARK VINA RESULT:      -7.9      7.223     10.846
REMARK  Name = 
REMARK  11 active torsions:
REMARK  status: ('A' for Active; 'I' for Inactive)
REMARK    1  A    between atoms: C_2  and  O_3
REMARK    2  A    between atoms: C_2  and  C_4
REMARK    3  A    between atoms: C_4  and  O_5
REMARK    4  A    between atoms: O_5  and  C_6
REMARK    5  A    between atoms: C_9  and  S_10
REMARK    6  A    between atoms: S_10  and  C_11
REMARK    7  A    between atoms: C_11  and  C_12
REMARK    8  A    between atoms: C_15  and  O_16
REMARK    9  A    between atoms: O_16  and  C_17
REMARK   10  A    between atoms: C_17  and  C_18
REMARK   11  A    between atoms: C_21  and  C_22
REMARK                            x       y       z     vdW  Elec       q    Type
REMARK                         _______ _______ _______ _____ _____    ______ ____
ROOT
ATOM      1  C   UNL     1       0.862   8.973  20.881  0.00  0.00    +0.000 A 
ATOM      2  C   UNL     1       0.938   8.766  22.263  0.00  0.00    +0.000 A 
ATOM      3  C   UNL     1       0.223   9.563  23.150  0.00  0.00    +0.000 A 
ATOM      4  C   UNL     1      -0.523  10.642  22.682  0.00  0.00    +0.000 A 
ATOM      5  C   UNL     1      -0.610  10.870  21.309  0.00  0.00    +0.000 A 
ATOM      6  C   UNL     1       0.082  10.045  20.413  0.00  0.00    +0.000 A 
ENDROOT
BRANCH   1   7
ATOM      7  C   UNL     1       1.648   8.116  19.911  0.00  0.00    +0.000 C 
BRANCH   7   8
ATOM      8  S   UNL     1       1.792   6.361  20.447  0.00  0.00    +0.000 S 
BRANCH   8  12
ATOM      9  C   UNL     1       4.164   4.612  16.900  0.00  0.00    +0.000 A 
ATOM     10  C   UNL     1       4.228   5.971  17.232  0.00  0.00    +0.000 A 
ATOM     11  C   UNL     1       3.492   6.495  18.302  0.00  0.00    +0.000 A 
ATOM     12  C   UNL     1       2.693   5.667  19.089  0.00  0.00    +0.000 A 
ATOM     13  C   UNL     1       2.609   4.321  18.742  0.00  0.00    +0.000 A 
ATOM     14  C   UNL     1       3.345   3.784  17.661  0.00  0.00    +0.000 A 
ATOM     15  C   UNL     1       3.148   2.296  17.617  0.00  0.00    +0.000 C 
ATOM     16  C   UNL     1       1.854   2.116  18.413  0.00  0.00    +0.000 C 
ATOM     17  C   UNL     1       1.833   3.241  19.447  0.00  0.00    +0.000 C 
BRANCH   9  18
ATOM     18  O   UNL     1       4.980   4.272  15.860  0.00  0.00    +0.000 OA
BRANCH  18  19
ATOM     19  C   UNL     1       5.612   5.346  15.170  0.00  0.00    +0.000 C 
BRANCH  19  21
ATOM     20  O   UNL     1       7.732   5.264  14.003  0.00  0.00    +0.000 OA
ATOM     21  C   UNL     1       7.091   5.043  15.020  0.00  0.00    +0.000 C 
BRANCH  21  22
ATOM     22  O   UNL     1       7.645   4.492  16.128  0.00  0.00    +0.000 OA
ATOM     23  H   UNL     1       8.509   4.924  16.309  0.00  0.00    +0.000 HD
ENDBRANCH  21  22
ENDBRANCH  19  21
ENDBRANCH  18  19
ENDBRANCH   9  18
ENDBRANCH   8  12
ENDBRANCH   7   8
ENDBRANCH   1   7
BRANCH   4  24
ATOM     24  O   UNL     1      -1.176  11.532  23.493  0.00  0.00    +0.000 OA
BRANCH  24  25
ATOM     25  C   UNL     1      -1.522  12.761  22.843  0.00  0.00    +0.000 C 
BRANCH  25  26
ATOM     26  C   UNL     1      -3.015  12.917  22.726  0.00  0.00    +0.000 A 
ATOM     27  C   UNL     1      -3.860  12.738  23.825  0.00  0.00    +0.000 A 
ATOM     28  C   UNL     1      -5.238  12.900  23.687  0.00  0.00    +0.000 A 
ATOM     29  C   UNL     1      -5.794  13.259  22.449  0.00  0.00    +0.000 A 
ATOM     30  C   UNL     1      -4.942  13.466  21.356  0.00  0.00    +0.000 A 
ATOM     31  C   UNL     1      -3.567  13.302  21.495  0.00  0.00    +0.000 A 
BRANCH  29  32
ATOM     32  C   UNL     1      -7.283  13.419  22.279  0.00  0.00    +0.000 C 
ATOM     33  F   UNL     1      -7.910  12.291  21.846  0.00  0.00    +0.000 F 
ATOM     34  F   UNL     1      -7.903  13.769  23.440  0.00  0.00    +0.000 F 
ATOM     35  F   UNL     1      -7.599  14.392  21.379  0.00  0.00    +0.000 F 
ENDBRANCH  29  32
ENDBRANCH  25  26
ENDBRANCH  24  25
ENDBRANCH   4  24
TORSDOF 11
ENDMDL
MODEL 7
REMARK VINA RESULT:      -7.8      1.027      1.489
REMARK  Name = 
REMARK  11 active torsions:
REMARK  status: ('A' for Active; 'I' for Inactive)
REMARK    1  A    between atoms: C_2  and  O_3
REMARK    2  A    between atoms: C_2  and  C_4
REMARK    3  A    between atoms: C_4  and  O_5
REMARK    4  A    between atoms: O_5  and  C_6
REMARK    5  A    between atoms: C_9  and  S_10
REMARK    6  A    between atoms: S_10  and  C_11
REMARK    7  A    between atoms: C_11  and  C_12
REMARK    8  A    between atoms: C_15  and  O_16
REMARK    9  A    between atoms: O_16  and  C_17
REMARK   10  A    between atoms: C_17  and  C_18
REMARK   11  A    between atoms: C_21  and  C_22
REMARK                            x       y       z     vdW  Elec       q    Type
REMARK                         _______ _______ _______ _____ _____    ______ ____
ROOT
ATOM      1  C   UNL     1       6.163   4.630  17.731  0.00  0.00    +0.000 A 
ATOM      2  C   UNL     1       6.568   5.498  16.712  0.00  0.00    +0.000 A 
ATOM      3  C   UNL     1       7.407   6.575  16.974  0.00  0.00    +0.000 A 
ATOM      4  C   UNL     1       7.797   6.861  18.281  0.00  0.00    +0.000 A 
ATOM      5  C   UNL     1       7.401   6.012  19.314  0.00  0.00    +0.000 A 
ATOM      6  C   UNL     1       6.585   4.906  19.044  0.00  0.00    +0.000 A 
ENDROOT
BRANCH   1   7
ATOM      7  C   UNL     1       5.239   3.463  17.453  0.00  0.00    +0.000 C 
BRANCH   7   8
ATOM      8  S   UNL     1       3.657   3.965  16.658  0.00  0.00    +0.000 S 
BRANCH   8  12
ATOM      9  C   UNL     1       2.164   7.193  19.594  0.00  0.00    +0.000 A 
ATOM     10  C   UNL     1       2.675   7.522  18.332  0.00  0.00    +0.000 A 
ATOM     11  C   UNL     1       3.140   6.536  17.454  0.00  0.00    +0.000 A 
ATOM     12  C   UNL     1       3.079   5.187  17.803  0.00  0.00    +0.000 A 
ATOM     13  C   UNL     1       2.596   4.862  19.068  0.00  0.00    +0.000 A 
ATOM     14  C   UNL     1       2.128   5.851  19.962  0.00  0.00    +0.000 A 
ATOM     15  C   UNL     1       1.557   5.188  21.182  0.00  0.00    +0.000 C 
ATOM     16  C   UNL     1       2.207   3.804  21.134  0.00  0.00    +0.000 C 
ATOM     17  C   UNL     1       2.420   3.487  19.655  0.00  0.00    +0.000 C 
BRANCH   9  18
ATOM     18  O   UNL     1       1.717   8.275  20.295  0.00  0.00    +0.000 OA
BRANCH  18  19
ATOM     19  C   UNL     1       1.360   9.424  19.531  0.00  0.00    +0.000 C 
BRANCH  19  21
ATOM     20  O   UNL     1      -0.989   9.956  19.290  0.00  0.00    +0.000 OA
ATOM     21  C   UNL     1       0.009   9.934  19.995  0.00  0.00    +0.000 C 
BRANCH  21  22
ATOM     22  O   UNL     1       0.009  10.375  21.277  0.00  0.00    +0.000 OA
ATOM     23  H   UNL     1       0.740   9.942  21.771  0.00  0.00    +0.000 HD
ENDBRANCH  21  22
ENDBRANCH  19  21
ENDBRANCH  18  19
ENDBRANCH   9  18
ENDBRANCH   8  12
ENDBRANCH   7   8
ENDBRANCH   1   7
BRANCH   4  24
ATOM     24  O   UNL     1       8.539   7.955  18.638  0.00  0.00    +0.000 OA
BRANCH  24  25
ATOM     25  C   UNL     1       8.159   9.159  17.963  0.00  0.00    +0.000 C 
BRANCH  25  26
ATOM     26  C   UNL     1       8.865  10.357  18.540  0.00  0.00    +0.000 A 
ATOM     27  C   UNL     1       9.474  10.314  19.797  0.00  0.00    +0.000 A 
ATOM     28  C   UNL     1      10.130  11.438  20.299  0.00  0.00    +0.000 A 
ATOM     29  C   UNL     1      10.201  12.619  19.545  0.00  0.00    +0.000 A 
ATOM     30  C   UNL     1       9.615  12.650  18.273  0.00  0.00    +0.000 A 
ATOM     31  C   UNL     1       8.959  11.528  17.774  0.00  0.00    +0.000 A 
BRANCH  29  32
ATOM     32  C   UNL     1      10.890  13.848  20.082  0.00  0.00    +0.000 C 
ATOM     33  F   UNL     1      10.742  14.017  21.425  0.00  0.00    +0.000 F 
ATOM     34  F   UNL     1      12.234  13.832  19.853  0.00  0.00    +0.000 F 
ATOM     35  F   UNL     1      10.428  14.993  19.507  0.00  0.00    +0.000 F 
ENDBRANCH  29  32
ENDBRANCH  25  26
ENDBRANCH  24  25
ENDBRANCH   4  24
TORSDOF 11
ENDMDL
MODEL 8
REMARK VINA RESULT:      -7.8      6.372      8.932
REMARK  Name = 
REMARK  11 active torsions:
REMARK  status: ('A' for Active; 'I' for Inactive)
REMARK    1  A    between atoms: C_2  and  O_3
REMARK    2  A    between atoms: C_2  and  C_4
REMARK    3  A    between atoms: C_4  and  O_5
REMARK    4  A    between atoms: O_5  and  C_6
REMARK    5  A    between atoms: C_9  and  S_10
REMARK    6  A    between atoms: S_10  and  C_11
REMARK    7  A    between atoms: C_11  and  C_12
REMARK    8  A    between atoms: C_15  and  O_16
REMARK    9  A    between atoms: O_16  and  C_17
REMARK   10  A    between atoms: C_17  and  C_18
REMARK   11  A    between atoms: C_21  and  C_22
REMARK                            x       y       z     vdW  Elec       q    Type
REMARK                         _______ _______ _______ _____ _____    ______ ____
ROOT
ATOM      1  C   UNL     1       2.481   8.098  18.305  0.00  0.00    +0.000 A 
ATOM      2  C   UNL     1       2.262   7.145  19.305  0.00  0.00    +0.000 A 
ATOM      3  C   UNL     1       3.081   6.028  19.425  0.00  0.00    +0.000 A 
ATOM      4  C   UNL     1       4.091   5.792  18.495  0.00  0.00    +0.000 A 
ATOM      5  C   UNL     1       4.325   6.727  17.487  0.00  0.00    +0.000 A 
ATOM      6  C   UNL     1       3.522   7.871  17.388  0.00  0.00    +0.000 A 
ENDROOT
BRANCH   1   7
ATOM      7  C   UNL     1       1.585   9.311  18.162  0.00  0.00    +0.000 C 
BRANCH   7   8
ATOM      8  S   UNL     1       0.722   9.763  19.723  0.00  0.00    +0.000 S 
BRANCH   8  12
ATOM      9  C   UNL     1      -3.217  11.457  18.025  0.00  0.00    +0.000 A 
ATOM     10  C   UNL     1      -2.470  10.493  17.336  0.00  0.00    +0.000 A 
ATOM     11  C   UNL     1      -1.268   9.996  17.853  0.00  0.00    +0.000 A 
ATOM     12  C   UNL     1      -0.793  10.429  19.090  0.00  0.00    +0.000 A 
ATOM     13  C   UNL     1      -1.521  11.408  19.762  0.00  0.00    +0.000 A 
ATOM     14  C   UNL     1      -2.734  11.918  19.246  0.00  0.00    +0.000 A 
ATOM     15  C   UNL     1      -3.345  12.854  20.248  0.00  0.00    +0.000 C 
ATOM     16  C   UNL     1      -2.144  13.227  21.119  0.00  0.00    +0.000 C 
ATOM     17  C   UNL     1      -1.219  12.011  21.107  0.00  0.00    +0.000 C 
BRANCH   9  18
ATOM     18  O   UNL     1      -4.380  11.791  17.394  0.00  0.00    +0.000 OA
BRANCH  18  19
ATOM     19  C   UNL     1      -5.546  11.072  17.786  0.00  0.00    +0.000 C 
BRANCH  19  21
ATOM     20  O   UNL     1      -6.463  13.244  18.333  0.00  0.00    +0.000 OA
ATOM     21  C   UNL     1      -6.530  12.028  18.432  0.00  0.00    +0.000 C 
BRANCH  21  22
ATOM     22  O   UNL     1      -7.501  11.405  19.144  0.00  0.00    +0.000 OA
ATOM     23  H   UNL     1      -7.211  11.311  20.078  0.00  0.00    +0.000 HD
ENDBRANCH  21  22
ENDBRANCH  19  21
ENDBRANCH  18  19
ENDBRANCH   9  18
ENDBRANCH   8  12
ENDBRANCH   7   8
ENDBRANCH   1   7
BRANCH   4  24
ATOM     24  O   UNL     1       4.876   4.670  18.484  0.00  0.00    +0.000 OA
BRANCH  24  25
ATOM     25  C   UNL     1       6.184   4.885  17.942  0.00  0.00    +0.000 C 
BRANCH  25  26
ATOM     26  C   UNL     1       6.232   4.547  16.475  0.00  0.00    +0.000 A 
ATOM     27  C   UNL     1       5.297   3.688  15.890  0.00  0.00    +0.000 A 
ATOM     28  C   UNL     1       5.362   3.403  14.526  0.00  0.00    +0.000 A 
ATOM     29  C   UNL     1       6.354   3.984  13.722  0.00  0.00    +0.000 A 
ATOM     30  C   UNL     1       7.272   4.866  14.305  0.00  0.00    +0.000 A 
ATOM     31  C   UNL     1       7.208   5.149  15.667  0.00  0.00    +0.000 A 
BRANCH  29  32
ATOM     32  C   UNL     1       6.448   3.671  12.250  0.00  0.00    +0.000 C 
ATOM     33  F   UNL     1       7.010   2.459  11.982  0.00  0.00    +0.000 F 
ATOM     34  F   UNL     1       5.229   3.659  11.643  0.00  0.00    +0.000 F 
ATOM     35  F   UNL     1       7.194   4.587  11.573  0.00  0.00    +0.000 F 
ENDBRANCH  29  32
ENDBRANCH  25  26
ENDBRANCH  24  25
ENDBRANCH   4  24
TORSDOF 11
ENDMDL
MODEL 9
REMARK VINA RESULT:      -7.7      5.432      9.284
REMARK  Name = 
REMARK  11 active torsions:
REMARK  status: ('A' for Active; 'I' for Inactive)
REMARK    1  A    between atoms: C_2  and  O_3
REMARK    2  A    between atoms: C_2  and  C_4
REMARK    3  A    between atoms: C_4  and  O_5
REMARK    4  A    between atoms: O_5  and  C_6
REMARK    5  A    between atoms: C_9  and  S_10
REMARK    6  A    between atoms: S_10  and  C_11
REMARK    7  A    between atoms: C_11  and  C_12
REMARK    8  A    between atoms: C_15  and  O_16
REMARK    9  A    between atoms: O_16  and  C_17
REMARK   10  A    between atoms: C_17  and  C_18
REMARK   11  A    between atoms: C_21  and  C_22
REMARK                            x       y       z     vdW  Elec       q    Type
REMARK                         _______ _______ _______ _____ _____    ______ ____
ROOT
ATOM      1  C   UNL     1       2.239   5.318  19.306  0.00  0.00    +0.000 A 
ATOM      2  C   UNL     1       2.349   6.129  18.172  0.00  0.00    +0.000 A 
ATOM      3  C   UNL     1       2.162   7.504  18.249  0.00  0.00    +0.000 A 
ATOM      4  C   UNL     1       1.778   8.096  19.450  0.00  0.00    +0.000 A 
ATOM      5  C   UNL     1       1.659   7.308  20.594  0.00  0.00    +0.000 A 
ATOM      6  C   UNL     1       1.882   5.926  20.523  0.00  0.00    +0.000 A 
ENDROOT
BRANCH   1   7
ATOM      7  C   UNL     1       2.429   3.818  19.226  0.00  0.00    +0.000 C 
BRANCH   7   8
ATOM      8  S   UNL     1       4.177   3.296  19.472  0.00  0.00    +0.000 S 
BRANCH   8  12
ATOM      9  C   UNL     1       6.135   5.107  15.710  0.00  0.00    +0.000 A 
ATOM     10  C   UNL     1       5.124   4.141  15.624  0.00  0.00    +0.000 A 
ATOM     11  C   UNL     1       4.547   3.586  16.772  0.00  0.00    +0.000 A 
ATOM     12  C   UNL     1       4.944   4.004  18.041  0.00  0.00    +0.000 A 
ATOM     13  C   UNL     1       5.968   4.945  18.128  0.00  0.00    +0.000 A 
ATOM     14  C   UNL     1       6.559   5.508  16.974  0.00  0.00    +0.000 A 
ATOM     15  C   UNL     1       7.532   6.575  17.385  0.00  0.00    +0.000 C 
ATOM     16  C   UNL     1       7.822   6.208  18.841  0.00  0.00    +0.000 C 
ATOM     17  C   UNL     1       6.546   5.556  19.375  0.00  0.00    +0.000 C 
BRANCH   9  18
ATOM     18  O   UNL     1       6.547   5.567  14.494  0.00  0.00    +0.000 OA
BRANCH  18  19
ATOM     19  C   UNL     1       7.587   4.832  13.855  0.00  0.00    +0.000 C 
BRANCH  19  21
ATOM     20  O   UNL     1       7.200   4.836  11.465  0.00  0.00    +0.000 OA
ATOM     21  C   UNL     1       7.072   4.273  12.542  0.00  0.00    +0.000 C 
BRANCH  21  22
ATOM     22  O   UNL     1       6.441   3.080  12.673  0.00  0.00    +0.000 OA
ATOM     23  H   UNL     1       7.063   2.423  13.057  0.00  0.00    +0.000 HD
ENDBRANCH  21  22
ENDBRANCH  19  21
ENDBRANCH  18  19
ENDBRANCH   9  18
ENDBRANCH   8  12
ENDBRANCH   7   8
ENDBRANCH   1   7
BRANCH   4  24
ATOM     24  O   UNL     1       1.480   9.426  19.589  0.00  0.00    +0.000 OA
BRANCH  24  25
ATOM     25  C   UNL     1       0.606   9.933  18.575  0.00  0.00    +0.000 C 
BRANCH  25  26
ATOM     26  C   UNL     1      -0.496  10.769  19.169  0.00  0.00    +0.000 A 
ATOM     27  C   UNL     1      -1.689  11.006  18.479  0.00  0.00    +0.000 A 
ATOM     28  C   UNL     1      -2.696  11.777  19.061  0.00  0.00    +0.000 A 
ATOM     29  C   UNL     1      -2.532  12.310  20.349  0.00  0.00    +0.000 A 
ATOM     30  C   UNL     1      -1.347  12.047  21.049  0.00  0.00    +0.000 A 
ATOM     31  C   UNL     1      -0.343  11.279  20.466  0.00  0.00    +0.000 A 
BRANCH  29  32
ATOM     32  C   UNL     1      -3.603  13.160  20.983  0.00  0.00    +0.000 C 
ATOM     33  F   UNL     1      -3.175  13.863  22.068  0.00  0.00    +0.000 F 
ATOM     34  F   UNL     1      -4.115  14.082  20.119  0.00  0.00    +0.000 F 
ATOM     35  F   UNL     1      -4.665  12.421  21.411  0.00  0.00    +0.000 F 
ENDBRANCH  29  32
ENDBRANCH  25  26
ENDBRANCH  24  25
ENDBRANCH   4  24
TORSDOF 11
ENDMDL
