MODEL 1
REMARK VINA RESULT:      -8.7      0.000      0.000
REMARK  Name = 
REMARK  4 active torsions:
REMARK  status: ('A' for Active; 'I' for Inactive)
REMARK    1  A    between atoms: C_1  and  C_2
REMARK    2  A    between atoms: C_4  and  N_5
REMARK    3  A    between atoms: C_6  and  C_7
REMARK    4  A    between atoms: C_8  and  O_9
REMARK                            x       y       z     vdW  Elec       q    Type
REMARK                         _______ _______ _______ _____ _____    ______ ____
ROOT
ATOM      1  C   UNL     1       3.674   3.952  18.070  0.00  0.00    +0.000 A 
ATOM      2  C   UNL     1       3.505   2.630  18.509  0.00  0.00    +0.000 A 
ATOM      3  C   UNL     1       2.749   2.351  19.638  0.00  0.00    +0.000 A 
ATOM      4  C   UNL     1       2.142   3.392  20.337  0.00  0.00    +0.000 A 
ATOM      5  C   UNL     1       2.287   4.725  19.923  0.00  0.00    +0.000 A 
ATOM      6  C   UNL     1       1.661   5.749  20.654  0.00  0.00    +0.000 A 
ATOM      7  C   UNL     1       1.781   7.080  20.261  0.00  0.00    +0.000 A 
ATOM      8 BR   UNL     1       0.945   8.440  21.272  0.00  0.00    +0.000 Br
ATOM      9  C   UNL     1       2.510   7.411  19.132  0.00  0.00    +0.000 A 
ATOM     10  C   UNL     1       3.135   6.401  18.391  0.00  0.00    +0.000 A 
ATOM     11  C   UNL     1       3.057   5.034  18.771  0.00  0.00    +0.000 A 
ENDROOT
BRANCH   1  13
ATOM     12  N   UNL     1       5.741   4.602  16.962  0.00  0.00    +0.000 NA
ATOM     13  C   UNL     1       4.501   4.223  16.869  0.00  0.00    +0.000 C 
BRANCH  12  17
ATOM     14  C   UNL     1       6.975   4.045  12.163  0.00  0.00    +0.000 C 
ATOM     15  C   UNL     1       6.809   4.365  13.591  0.00  0.00    +0.000 A 
ATOM     16  C   UNL     1       5.948   3.955  14.583  0.00  0.00    +0.000 A 
ATOM     17  C   UNL     1       6.378   4.670  15.712  0.00  0.00    +0.000 A 
ATOM     18  N   UNL     1       7.395   5.489  15.437  0.00  0.00    +0.000 NA
ATOM     19  O   UNL     1       7.680   5.279  14.099  0.00  0.00    +0.000 OA
ENDBRANCH  12  17
ENDBRANCH   1  13
BRANCH   2  20
ATOM     20  O   UNL     1       4.069   1.552  17.881  0.00  0.00    +0.000 OA
ATOM     21  H   UNL     1       4.813   1.884  17.336  0.00  0.00    +0.000 HD
ENDBRANCH   2  20
TORSDOF 3
ENDMDL
MODEL 2
REMARK VINA RESULT:      -8.4      1.356      1.889
REMARK  Name = 
REMARK  4 active torsions:
REMARK  status: ('A' for Active; 'I' for Inactive)
REMARK    1  A    between atoms: C_1  and  C_2
REMARK    2  A    between atoms: C_4  and  N_5
REMARK    3  A    between atoms: C_6  and  C_7
REMARK    4  A    between atoms: C_8  and  O_9
REMARK                            x       y       z     vdW  Elec       q    Type
REMARK                         _______ _______ _______ _____ _____    ______ ____
ROOT
ATOM      1  C   UNL     1       3.500   5.725  18.412  0.00  0.00    +0.000 A 
ATOM      2  C   UNL     1       3.404   4.675  19.337  0.00  0.00    +0.000 A 
ATOM      3  C   UNL     1       2.633   4.809  20.483  0.00  0.00    +0.000 A 
ATOM      4  C   UNL     1       1.938   5.994  20.712  0.00  0.00    +0.000 A 
ATOM      5  C   UNL     1       2.008   7.063  19.805  0.00  0.00    +0.000 A 
ATOM      6  C   UNL     1       1.294   8.244  20.070  0.00  0.00    +0.000 A 
ATOM      7  C   UNL     1       1.338   9.317  19.184  0.00  0.00    +0.000 A 
ATOM      8 BR   UNL     1       0.384  10.901  19.572  0.00  0.00    +0.000 Br
ATOM      9  C   UNL     1       2.079   9.228  18.017  0.00  0.00    +0.000 A 
ATOM     10  C   UNL     1       2.792   8.056  17.738  0.00  0.00    +0.000 A 
ATOM     11  C   UNL     1       2.792   6.947  18.627  0.00  0.00    +0.000 A 
ENDROOT
BRANCH   1  13
ATOM     12  N   UNL     1       5.630   5.386  17.285  0.00  0.00    +0.000 NA
ATOM     13  C   UNL     1       4.345   5.560  17.204  0.00  0.00    +0.000 C 
BRANCH  12  17
ATOM     14  C   UNL     1       6.549   3.766  12.659  0.00  0.00    +0.000 C 
ATOM     15  C   UNL     1       6.499   4.362  14.006  0.00  0.00    +0.000 A 
ATOM     16  C   UNL     1       5.623   4.296  15.064  0.00  0.00    +0.000 A 
ATOM     17  C   UNL     1       6.216   5.115  16.038  0.00  0.00    +0.000 A 
ATOM     18  N   UNL     1       7.345   5.680  15.607  0.00  0.00    +0.000 NA
ATOM     19  O   UNL     1       7.534   5.185  14.328  0.00  0.00    +0.000 OA
ENDBRANCH  12  17
ENDBRANCH   1  13
BRANCH   2  20
ATOM     20  O   UNL     1       4.057   3.480  19.189  0.00  0.00    +0.000 OA
ATOM     21  H   UNL     1       3.428   2.851  18.776  0.00  0.00    +0.000 HD
ENDBRANCH   2  20
TORSDOF 3
ENDMDL
MODEL 3
REMARK VINA RESULT:      -7.7      3.946      5.344
REMARK  Name = 
REMARK  4 active torsions:
REMARK  status: ('A' for Active; 'I' for Inactive)
REMARK    1  A    between atoms: C_1  and  C_2
REMARK    2  A    between atoms: C_4  and  N_5
REMARK    3  A    between atoms: C_6  and  C_7
REMARK    4  A    between atoms: C_8  and  O_9
REMARK                            x       y       z     vdW  Elec       q    Type
REMARK                         _______ _______ _______ _____ _____    ______ ____
ROOT
ATOM      1  C   UNL     1       6.341   5.677  17.055  0.00  0.00    +0.000 A 
ATOM      2  C   UNL     1       6.660   5.135  15.801  0.00  0.00    +0.000 A 
ATOM      3  C   UNL     1       5.873   4.141  15.239  0.00  0.00    +0.000 A 
ATOM      4  C   UNL     1       4.749   3.683  15.921  0.00  0.00    +0.000 A 
ATOM      5  C   UNL     1       4.398   4.206  17.176  0.00  0.00    +0.000 A 
ATOM      6  C   UNL     1       3.257   3.718  17.834  0.00  0.00    +0.000 A 
ATOM      7  C   UNL     1       2.881   4.224  19.077  0.00  0.00    +0.000 A 
ATOM      8 BR   UNL     1       1.353   3.538  19.951  0.00  0.00    +0.000 Br
ATOM      9  C   UNL     1       3.622   5.230  19.673  0.00  0.00    +0.000 A 
ATOM     10  C   UNL     1       4.759   5.729  19.026  0.00  0.00    +0.000 A 
ATOM     11  C   UNL     1       5.190   5.224  17.769  0.00  0.00    +0.000 A 
ENDROOT
BRANCH   1  13
ATOM     12  N   UNL     1       7.401   7.868  17.046  0.00  0.00    +0.000 NA
ATOM     13  C   UNL     1       7.210   6.728  17.639  0.00  0.00    +0.000 C 
BRANCH  12  17
ATOM     14  C   UNL     1       9.524  11.952  18.965  0.00  0.00    +0.000 C 
ATOM     15  C   UNL     1       9.005  10.625  18.591  0.00  0.00    +0.000 A 
ATOM     16  C   UNL     1       8.250  10.137  17.549  0.00  0.00    +0.000 A 
ATOM     17  C   UNL     1       8.143   8.765  17.831  0.00  0.00    +0.000 A 
ATOM     18  N   UNL     1       8.743   8.434  18.976  0.00  0.00    +0.000 NA
ATOM     19  O   UNL     1       9.306   9.609  19.444  0.00  0.00    +0.000 OA
ENDBRANCH  12  17
ENDBRANCH   1  13
BRANCH   2  20
ATOM     20  O   UNL     1       7.748   5.527  15.067  0.00  0.00    +0.000 OA
ATOM     21  H   UNL     1       7.700   5.067  14.202  0.00  0.00    +0.000 HD
ENDBRANCH   2  20
TORSDOF 3
ENDMDL
MODEL 4
REMARK VINA RESULT:      -7.7      0.952      1.010
REMARK  Name = 
REMARK  4 active torsions:
REMARK  status: ('A' for Active; 'I' for Inactive)
REMARK    1  A    between atoms: C_1  and  C_2
REMARK    2  A    between atoms: C_4  and  N_5
REMARK    3  A    between atoms: C_6  and  C_7
REMARK    4  A    between atoms: C_8  and  O_9
REMARK                            x       y       z     vdW  Elec       q    Type
REMARK                         _______ _______ _______ _____ _____    ______ ____
ROOT
ATOM      1  C   UNL     1       3.567   4.036  18.128  0.00  0.00    +0.000 A 
ATOM      2  C   UNL     1       3.452   2.727  18.620  0.00  0.00    +0.000 A 
ATOM      3  C   UNL     1       2.769   2.472  19.800  0.00  0.00    +0.000 A 
ATOM      4  C   UNL     1       2.183   3.525  20.499  0.00  0.00    +0.000 A 
ATOM      5  C   UNL     1       2.277   4.847  20.034  0.00  0.00    +0.000 A 
ATOM      6  C   UNL     1       1.675   5.882  20.767  0.00  0.00    +0.000 A 
ATOM      7  C   UNL     1       1.745   7.202  20.325  0.00  0.00    +0.000 A 
ATOM      8 BR   UNL     1       0.943   8.580  21.338  0.00  0.00    +0.000 Br
ATOM      9  C   UNL     1       2.399   7.507  19.143  0.00  0.00    +0.000 A 
ATOM     10  C   UNL     1       2.999   6.484  18.401  0.00  0.00    +0.000 A 
ATOM     11  C   UNL     1       2.971   5.129  18.829  0.00  0.00    +0.000 A 
ENDROOT
BRANCH   1  13
ATOM     12  N   UNL     1       5.590   4.036  16.775  0.00  0.00    +0.000 NA
ATOM     13  C   UNL     1       4.317   4.280  16.872  0.00  0.00    +0.000 C 
BRANCH  12  17
ATOM     14  C   UNL     1       8.149   5.495  12.751  0.00  0.00    +0.000 C 
ATOM     15  C   UNL     1       7.273   4.910  13.781  0.00  0.00    +0.000 A 
ATOM     16  C   UNL     1       7.082   5.122  15.127  0.00  0.00    +0.000 A 
ATOM     17  C   UNL     1       6.072   4.208  15.467  0.00  0.00    +0.000 A 
ATOM     18  N   UNL     1       5.696   3.458  14.430  0.00  0.00    +0.000 NA
ATOM     19  O   UNL     1       6.442   3.919  13.358  0.00  0.00    +0.000 OA
ENDBRANCH  12  17
ENDBRANCH   1  13
BRANCH   2  20
ATOM     20  O   UNL     1       3.999   1.638  17.996  0.00  0.00    +0.000 OA
ATOM     21  H   UNL     1       3.259   1.103  17.635  0.00  0.00    +0.000 HD
ENDBRANCH   2  20
TORSDOF 3
ENDMDL
MODEL 5
REMARK VINA RESULT:      -7.6      2.737      4.132
REMARK  Name = 
REMARK  4 active torsions:
REMARK  status: ('A' for Active; 'I' for Inactive)
REMARK    1  A    between atoms: C_1  and  C_2
REMARK    2  A    between atoms: C_4  and  N_5
REMARK    3  A    between atoms: C_6  and  C_7
REMARK    4  A    between atoms: C_8  and  O_9
REMARK                            x       y       z     vdW  Elec       q    Type
REMARK                         _______ _______ _______ _____ _____    ______ ____
ROOT
ATOM      1  C   UNL     1       5.707   4.769  16.185  0.00  0.00    +0.000 A 
ATOM      2  C   UNL     1       6.879   5.512  16.393  0.00  0.00    +0.000 A 
ATOM      3  C   UNL     1       7.239   5.923  17.668  0.00  0.00    +0.000 A 
ATOM      4  C   UNL     1       6.434   5.587  18.754  0.00  0.00    +0.000 A 
ATOM      5  C   UNL     1       5.256   4.842  18.583  0.00  0.00    +0.000 A 
ATOM      6  C   UNL     1       4.470   4.524  19.702  0.00  0.00    +0.000 A 
ATOM      7  C   UNL     1       3.301   3.779  19.562  0.00  0.00    +0.000 A 
ATOM      8 BR   UNL     1       2.250   3.379  21.080  0.00  0.00    +0.000 Br
ATOM      9  C   UNL     1       2.907   3.328  18.313  0.00  0.00    +0.000 A 
ATOM     10  C   UNL     1       3.683   3.635  17.190  0.00  0.00    +0.000 A 
ATOM     11  C   UNL     1       4.870   4.411  17.286  0.00  0.00    +0.000 A 
ENDROOT
BRANCH   1  13
ATOM     12  N   UNL     1       6.183   3.759  14.022  0.00  0.00    +0.000 NA
ATOM     13  C   UNL     1       5.338   4.357  14.809  0.00  0.00    +0.000 C 
BRANCH  12  17
ATOM     14  C   UNL     1       3.209   3.238  10.054  0.00  0.00    +0.000 C 
ATOM     15  C   UNL     1       4.227   3.212  11.118  0.00  0.00    +0.000 A 
ATOM     16  C   UNL     1       4.390   3.861  12.320  0.00  0.00    +0.000 A 
ATOM     17  C   UNL     1       5.593   3.336  12.821  0.00  0.00    +0.000 A 
ATOM     18  N   UNL     1       6.154   2.464  11.981  0.00  0.00    +0.000 NA
ATOM     19  O   UNL     1       5.277   2.371  10.914  0.00  0.00    +0.000 OA
ENDBRANCH  12  17
ENDBRANCH   1  13
BRANCH   2  20
ATOM     20  O   UNL     1       7.722   5.885  15.381  0.00  0.00    +0.000 OA
ATOM     21  H   UNL     1       7.460   5.383  14.579  0.00  0.00    +0.000 HD
ENDBRANCH   2  20
TORSDOF 3
ENDMDL
MODEL 6
REMARK VINA RESULT:      -7.6      4.348      6.899
REMARK  Name = 
REMARK  4 active torsions:
REMARK  status: ('A' for Active; 'I' for Inactive)
REMARK    1  A    between atoms: C_1  and  C_2
REMARK    2  A    between atoms: C_4  and  N_5
REMARK    3  A    between atoms: C_6  and  C_7
REMARK    4  A    between atoms: C_8  and  O_9
REMARK                            x       y       z     vdW  Elec       q    Type
REMARK                         _______ _______ _______ _____ _____    ______ ____
ROOT
ATOM      1  C   UNL     1       2.403   5.524  18.934  0.00  0.00    +0.000 A 
ATOM      2  C   UNL     1       1.809   4.368  19.462  0.00  0.00    +0.000 A 
ATOM      3  C   UNL     1       2.183   3.111  19.009  0.00  0.00    +0.000 A 
ATOM      4  C   UNL     1       3.166   2.995  18.029  0.00  0.00    +0.000 A 
ATOM      5  C   UNL     1       3.783   4.130  17.482  0.00  0.00    +0.000 A 
ATOM      6  C   UNL     1       4.769   3.974  16.494  0.00  0.00    +0.000 A 
ATOM      7  C   UNL     1       5.404   5.083  15.939  0.00  0.00    +0.000 A 
ATOM      8 BR   UNL     1       6.714   4.847  14.598  0.00  0.00    +0.000 Br
ATOM      9  C   UNL     1       5.080   6.359  16.369  0.00  0.00    +0.000 A 
ATOM     10  C   UNL     1       4.103   6.529  17.356  0.00  0.00    +0.000 A 
ATOM     11  C   UNL     1       3.415   5.426  17.930  0.00  0.00    +0.000 A 
ENDROOT
BRANCH   1  13
ATOM     12  N   UNL     1       1.656   7.059  20.669  0.00  0.00    +0.000 NA
ATOM     13  C   UNL     1       1.972   6.856  19.425  0.00  0.00    +0.000 C 
BRANCH  12  17
ATOM     14  C   UNL     1       0.431  11.882  20.354  0.00  0.00    +0.000 C 
ATOM     15  C   UNL     1       0.831  10.505  20.691  0.00  0.00    +0.000 A 
ATOM     16  C   UNL     1       1.013   9.345  19.975  0.00  0.00    +0.000 A 
ATOM     17  C   UNL     1       1.410   8.412  20.948  0.00  0.00    +0.000 A 
ATOM     18  N   UNL     1       1.431   8.937  22.174  0.00  0.00    +0.000 NA
ATOM     19  O   UNL     1       1.085  10.267  22.007  0.00  0.00    +0.000 OA
ENDBRANCH  12  17
ENDBRANCH   1  13
BRANCH   2  20
ATOM     20  O   UNL     1       0.836   4.394  20.425  0.00  0.00    +0.000 OA
ATOM     21  H   UNL     1       0.273   5.179  20.252  0.00  0.00    +0.000 HD
ENDBRANCH   2  20
TORSDOF 3
ENDMDL
MODEL 7
REMARK VINA RESULT:      -7.3      1.444      1.664
REMARK  Name = 
REMARK  4 active torsions:
REMARK  status: ('A' for Active; 'I' for Inactive)
REMARK    1  A    between atoms: C_1  and  C_2
REMARK    2  A    between atoms: C_4  and  N_5
REMARK    3  A    between atoms: C_6  and  C_7
REMARK    4  A    between atoms: C_8  and  O_9
REMARK                            x       y       z     vdW  Elec       q    Type
REMARK                         _______ _______ _______ _____ _____    ______ ____
ROOT
ATOM      1  C   UNL     1       4.094   5.012  18.186  0.00  0.00    +0.000 A 
ATOM      2  C   UNL     1       4.036   3.890  19.027  0.00  0.00    +0.000 A 
ATOM      3  C   UNL     1       3.256   3.906  20.174  0.00  0.00    +0.000 A 
ATOM      4  C   UNL     1       2.514   5.043  20.489  0.00  0.00    +0.000 A 
ATOM      5  C   UNL     1       2.546   6.181  19.667  0.00  0.00    +0.000 A 
ATOM      6  C   UNL     1       1.786   7.309  20.017  0.00  0.00    +0.000 A 
ATOM      7  C   UNL     1       1.792   8.449  19.216  0.00  0.00    +0.000 A 
ATOM      8 BR   UNL     1       0.775   9.960  19.719  0.00  0.00    +0.000 Br
ATOM      9  C   UNL     1       2.540   8.478  18.051  0.00  0.00    +0.000 A 
ATOM     10  C   UNL     1       3.299   7.359  17.688  0.00  0.00    +0.000 A 
ATOM     11  C   UNL     1       3.338   6.186  18.489  0.00  0.00    +0.000 A 
ENDROOT
BRANCH   1  13
ATOM     12  N   UNL     1       4.869   4.006  16.109  0.00  0.00    +0.000 NA
ATOM     13  C   UNL     1       4.949   4.973  16.975  0.00  0.00    +0.000 C 
BRANCH  12  17
ATOM     14  C   UNL     1       8.367   5.611  12.938  0.00  0.00    +0.000 C 
ATOM     15  C   UNL     1       7.256   4.993  13.683  0.00  0.00    +0.000 A 
ATOM     16  C   UNL     1       6.735   5.142  14.948  0.00  0.00    +0.000 A 
ATOM     17  C   UNL     1       5.665   4.232  14.976  0.00  0.00    +0.000 A 
ATOM     18  N   UNL     1       5.556   3.543  13.838  0.00  0.00    +0.000 NA
ATOM     19  O   UNL     1       6.550   4.042  13.014  0.00  0.00    +0.000 OA
ENDBRANCH  12  17
ENDBRANCH   1  13
BRANCH   2  20
ATOM     20  O   UNL     1       4.735   2.737  18.792  0.00  0.00    +0.000 OA
ATOM     21  H   UNL     1       4.129   1.985  18.966  0.00  0.00    +0.000 HD
ENDBRANCH   2  20
TORSDOF 3
ENDMDL
MODEL 8
REMARK VINA RESULT:      -7.2      2.157      3.315
REMARK  Name = 
REMARK  4 active torsions:
REMARK  status: ('A' for Active; 'I' for Inactive)
REMARK    1  A    between atoms: C_1  and  C_2
REMARK    2  A    between atoms: C_4  and  N_5
REMARK    3  A    between atoms: C_6  and  C_7
REMARK    4  A    between atoms: C_8  and  O_9
REMARK                            x       y       z     vdW  Elec       q    Type
REMARK                         _______ _______ _______ _____ _____    ______ ____
ROOT
ATOM      1  C   UNL     1       3.425   6.438  17.932  0.00  0.00    +0.000 A 
ATOM      2  C   UNL     1       2.948   7.752  18.059  0.00  0.00    +0.000 A 
ATOM      3  C   UNL     1       2.090   8.095  19.094  0.00  0.00    +0.000 A 
ATOM      4  C   UNL     1       1.708   7.130  20.022  0.00  0.00    +0.000 A 
ATOM      5  C   UNL     1       2.170   5.808  19.927  0.00  0.00    +0.000 A 
ATOM      6  C   UNL     1       1.761   4.862  20.882  0.00  0.00    +0.000 A 
ATOM      7  C   UNL     1       2.210   3.545  20.817  0.00  0.00    +0.000 A 
ATOM      8 BR   UNL     1       1.632   2.286  22.101  0.00  0.00    +0.000 Br
ATOM      9  C   UNL     1       3.082   3.154  19.814  0.00  0.00    +0.000 A 
ATOM     10  C   UNL     1       3.501   4.088  18.859  0.00  0.00    +0.000 A 
ATOM     11  C   UNL     1       3.047   5.435  18.876  0.00  0.00    +0.000 A 
ENDROOT
BRANCH   1  13
ATOM     12  N   UNL     1       5.591   5.852  16.989  0.00  0.00    +0.000 NA
ATOM     13  C   UNL     1       4.327   6.095  16.806  0.00  0.00    +0.000 C 
BRANCH  12  17
ATOM     14  C   UNL     1       6.640   3.789  12.572  0.00  0.00    +0.000 C 
ATOM     15  C   UNL     1       6.567   4.484  13.869  0.00  0.00    +0.000 A 
ATOM     16  C   UNL     1       5.610   4.610  14.849  0.00  0.00    +0.000 A 
ATOM     17  C   UNL     1       6.231   5.417  15.817  0.00  0.00    +0.000 A 
ATOM     18  N   UNL     1       7.456   5.798  15.451  0.00  0.00    +0.000 NA
ATOM     19  O   UNL     1       7.675   5.189  14.227  0.00  0.00    +0.000 OA
ENDBRANCH  12  17
ENDBRANCH   1  13
BRANCH   2  20
ATOM     20  O   UNL     1       3.273   8.758  17.189  0.00  0.00    +0.000 OA
ATOM     21  H   UNL     1       3.390   9.577  17.716  0.00  0.00    +0.000 HD
ENDBRANCH   2  20
TORSDOF 3
ENDMDL
MODEL 9
REMARK VINA RESULT:      -7.1      4.175      7.112
REMARK  Name = 
REMARK  4 active torsions:
REMARK  status: ('A' for Active; 'I' for Inactive)
REMARK    1  A    between atoms: C_1  and  C_2
REMARK    2  A    between atoms: C_4  and  N_5
REMARK    3  A    between atoms: C_6  and  C_7
REMARK    4  A    between atoms: C_8  and  O_9
REMARK                            x       y       z     vdW  Elec       q    Type
REMARK                         _______ _______ _______ _____ _____    ______ ____
ROOT
ATOM      1  C   UNL     1       2.161   4.987  19.454  0.00  0.00    +0.000 A 
ATOM      2  C   UNL     1       1.369   3.834  19.564  0.00  0.00    +0.000 A 
ATOM      3  C   UNL     1       1.567   2.756  18.713  0.00  0.00    +0.000 A 
ATOM      4  C   UNL     1       2.568   2.815  17.747  0.00  0.00    +0.000 A 
ATOM      5  C   UNL     1       3.381   3.952  17.611  0.00  0.00    +0.000 A 
ATOM      6  C   UNL     1       4.380   3.974  16.624  0.00  0.00    +0.000 A 
ATOM      7  C   UNL     1       5.206   5.086  16.473  0.00  0.00    +0.000 A 
ATOM      8 BR   UNL     1       6.530   5.100  15.125  0.00  0.00    +0.000 Br
ATOM      9  C   UNL     1       5.062   6.180  17.308  0.00  0.00    +0.000 A 
ATOM     10  C   UNL     1       4.074   6.169  18.299  0.00  0.00    +0.000 A 
ATOM     11  C   UNL     1       3.195   5.066  18.471  0.00  0.00    +0.000 A 
ENDROOT
BRANCH   1  13
ATOM     12  N   UNL     1       1.452   7.265  19.935  0.00  0.00    +0.000 NA
ATOM     13  C   UNL     1       1.917   6.131  20.366  0.00  0.00    +0.000 C 
BRANCH  12  17
ATOM     14  C   UNL     1      -0.830  10.233  23.229  0.00  0.00    +0.000 C 
ATOM     15  C   UNL     1       0.055   9.419  22.379  0.00  0.00    +0.000 A 
ATOM     16  C   UNL     1      -0.125   8.630  21.266  0.00  0.00    +0.000 A 
ATOM     17  C   UNL     1       1.167   8.161  20.977  0.00  0.00    +0.000 A 
ATOM     18  N   UNL     1       2.070   8.588  21.862  0.00  0.00    +0.000 NA
ATOM     19  O   UNL     1       1.368   9.401  22.735  0.00  0.00    +0.000 OA
ENDBRANCH  12  17
ENDBRANCH   1  13
BRANCH   2  20
ATOM     20  O   UNL     1       0.364   3.697  20.484  0.00  0.00    +0.000 OA
ATOM     21  H   UNL     1       0.196   2.737  20.595  0.00  0.00    +0.000 HD
ENDBRANCH   2  20
TORSDOF 3
ENDMDL
