MODEL 1
REMARK VINA RESULT:     -10.9      0.000      0.000
REMARK  Name = 
REMARK  3 active torsions:
REMARK  status: ('A' for Active; 'I' for Inactive)
REMARK    1  A    between atoms: C_2  and  C_3
REMARK    2  A    between atoms: C_2  and  C_9
REMARK    3  A    between atoms: C_12  and  N_13
REMARK                            x       y       z     vdW  Elec       q    Type
REMARK                         _______ _______ _______ _____ _____    ______ ____
ROOT
ATOM      1  N   UNL     1       3.420   5.452  19.641  0.00  0.00    +0.000 N 
ATOM      2  C   UNL     1       2.827   4.396  20.307  0.00  0.00    +0.000 A 
ATOM      3  C   UNL     1       2.057   4.365  21.475  0.00  0.00    +0.000 A 
ATOM      4  C   UNL     1       1.567   3.124  21.860  0.00  0.00    +0.000 A 
ATOM      5  C   UNL     1       1.789   1.989  21.076  0.00  0.00    +0.000 A 
ATOM      6  C   UNL     1       2.492   2.063  19.858  0.00  0.00    +0.000 A 
ATOM      7  C   UNL     1       3.059   3.291  19.478  0.00  0.00    +0.000 A 
ATOM      8  C   UNL     1       3.808   3.822  18.377  0.00  0.00    +0.000 A 
ATOM      9  C   UNL     1       4.060   3.576  17.010  0.00  0.00    +0.000 A 
ATOM     10  C   UNL     1       4.893   4.480  16.297  0.00  0.00    +0.000 A 
ATOM     11  C   UNL     1       5.695   5.389  16.987  0.00  0.00    +0.000 A 
ATOM     12  C   UNL     1       5.610   5.444  18.363  0.00  0.00    +0.000 A 
ATOM     13  C   UNL     1       4.508   4.876  18.981  0.00  0.00    +0.000 A 
ATOM     14  C   UNL     1       6.874   5.649  19.080  0.00  0.00    +0.000 C 
ATOM     15  O   UNL     1       7.273   4.902  19.959  0.00  0.00    +0.000 OA
ATOM     16  C   UNL     1       7.686   6.761  18.575  0.00  0.00    +0.000 C 
ATOM     17  C   UNL     1       7.526   7.128  17.295  0.00  0.00    +0.000 C 
ATOM     18  C   UNL     1       6.634   6.355  16.375  0.00  0.00    +0.000 C 
ATOM     19  O   UNL     1       6.642   6.566  15.165  0.00  0.00    +0.000 OA
ENDROOT
BRANCH   1  23
ATOM     20  C   UNL     1       1.540   9.129  18.726  0.00  0.00    +0.000 A 
ATOM     21  C   UNL     1       1.409   8.566  19.997  0.00  0.00    +0.000 A 
ATOM     22  C   UNL     1       2.035   7.353  20.284  0.00  0.00    +0.000 A 
ATOM     23  C   UNL     1       2.790   6.689  19.301  0.00  0.00    +0.000 A 
ATOM     24  C   UNL     1       2.833   7.199  18.002  0.00  0.00    +0.000 A 
ATOM     25  C   UNL     1       2.235   8.433  17.727  0.00  0.00    +0.000 A 
BRANCH  20  27
ATOM     26  O   UNL     1       1.813  11.429  18.348  0.00  0.00    +0.000 OA
ATOM     27  C   UNL     1       1.019  10.504  18.506  0.00  0.00    +0.000 C 
BRANCH  27  28
ATOM     28  C   UNL     1      -0.434  10.773  18.413  0.00  0.00    +0.000 A 
ATOM     29  C   UNL     1      -1.216   9.980  17.568  0.00  0.00    +0.000 A 
ATOM     30  C   UNL     1      -2.592  10.205  17.480  0.00  0.00    +0.000 A 
ATOM     31  C   UNL     1      -3.189  11.225  18.233  0.00  0.00    +0.000 A 
ATOM     32  C   UNL     1      -2.400  12.025  19.061  0.00  0.00    +0.000 A 
ATOM     33  C   UNL     1      -1.025  11.811  19.147  0.00  0.00    +0.000 A 
ENDBRANCH  27  28
ENDBRANCH  20  27
ENDBRANCH   1  23
TORSDOF 3
ENDMDL
MODEL 2
REMARK VINA RESULT:     -10.2      0.369      1.245
REMARK  Name = 
REMARK  3 active torsions:
REMARK  status: ('A' for Active; 'I' for Inactive)
REMARK    1  A    between atoms: C_2  and  C_3
REMARK    2  A    between atoms: C_2  and  C_9
REMARK    3  A    between atoms: C_12  and  N_13
REMARK                            x       y       z     vdW  Elec       q    Type
REMARK                         _______ _______ _______ _____ _____    ______ ____
ROOT
ATOM      1  N   UNL     1       3.216   5.499  19.618  0.00  0.00    +0.000 N 
ATOM      2  C   UNL     1       2.581   4.421  20.205  0.00  0.00    +0.000 A 
ATOM      3  C   UNL     1       1.825   4.329  21.378  0.00  0.00    +0.000 A 
ATOM      4  C   UNL     1       1.279   3.084  21.667  0.00  0.00    +0.000 A 
ATOM      5  C   UNL     1       1.436   2.010  20.788  0.00  0.00    +0.000 A 
ATOM      6  C   UNL     1       2.126   2.153  19.568  0.00  0.00    +0.000 A 
ATOM      7  C   UNL     1       2.748   3.380  19.282  0.00  0.00    +0.000 A 
ATOM      8  C   UNL     1       3.508   3.964  18.217  0.00  0.00    +0.000 A 
ATOM      9  C   UNL     1       3.730   3.822  16.830  0.00  0.00    +0.000 A 
ATOM     10  C   UNL     1       4.598   4.742  16.181  0.00  0.00    +0.000 A 
ATOM     11  C   UNL     1       5.452   5.551  16.931  0.00  0.00    +0.000 A 
ATOM     12  C   UNL     1       5.387   5.494  18.308  0.00  0.00    +0.000 A 
ATOM     13  C   UNL     1       4.266   4.929  18.895  0.00  0.00    +0.000 A 
ATOM     14  C   UNL     1       6.668   5.578  19.018  0.00  0.00    +0.000 C 
ATOM     15  O   UNL     1       7.042   4.741  19.826  0.00  0.00    +0.000 OA
ATOM     16  C   UNL     1       7.527   6.688  18.595  0.00  0.00    +0.000 C 
ATOM     17  C   UNL     1       7.370   7.168  17.352  0.00  0.00    +0.000 C 
ATOM     18  C   UNL     1       6.429   6.519  16.386  0.00  0.00    +0.000 C 
ATOM     19  O   UNL     1       6.432   6.830  15.198  0.00  0.00    +0.000 OA
ENDROOT
BRANCH   1  23
ATOM     20  C   UNL     1       1.537   9.307  18.859  0.00  0.00    +0.000 A 
ATOM     21  C   UNL     1       2.285   8.656  17.877  0.00  0.00    +0.000 A 
ATOM     22  C   UNL     1       2.832   7.401  18.140  0.00  0.00    +0.000 A 
ATOM     23  C   UNL     1       2.643   6.789  19.393  0.00  0.00    +0.000 A 
ATOM     24  C   UNL     1       1.986   7.485  20.409  0.00  0.00    +0.000 A 
ATOM     25  C   UNL     1       1.408   8.727  20.130  0.00  0.00    +0.000 A 
BRANCH  20  27
ATOM     26  O   UNL     1       1.457  11.590  18.322  0.00  0.00    +0.000 OA
ATOM     27  C   UNL     1       0.816  10.553  18.489  0.00  0.00    +0.000 C 
BRANCH  27  28
ATOM     28  C   UNL     1      -0.646  10.560  18.258  0.00  0.00    +0.000 A 
ATOM     29  C   UNL     1      -1.440  11.459  18.977  0.00  0.00    +0.000 A 
ATOM     30  C   UNL     1      -2.819  11.495  18.760  0.00  0.00    +0.000 A 
ATOM     31  C   UNL     1      -3.410  10.630  17.829  0.00  0.00    +0.000 A 
ATOM     32  C   UNL     1      -2.615   9.721  17.129  0.00  0.00    +0.000 A 
ATOM     33  C   UNL     1      -1.238   9.675  17.346  0.00  0.00    +0.000 A 
ENDBRANCH  27  28
ENDBRANCH  20  27
ENDBRANCH   1  23
TORSDOF 3
ENDMDL
MODEL 3
REMARK VINA RESULT:     -10.1      1.405      2.178
REMARK  Name = 
REMARK  3 active torsions:
REMARK  status: ('A' for Active; 'I' for Inactive)
REMARK    1  A    between atoms: C_2  and  C_3
REMARK    2  A    between atoms: C_2  and  C_9
REMARK    3  A    between atoms: C_12  and  N_13
REMARK                            x       y       z     vdW  Elec       q    Type
REMARK                         _______ _______ _______ _____ _____    ______ ____
ROOT
ATOM      1  N   UNL     1       3.383   5.514  19.636  0.00  0.00    +0.000 N 
ATOM      2  C   UNL     1       2.827   4.450  20.320  0.00  0.00    +0.000 A 
ATOM      3  C   UNL     1       2.089   4.407  21.507  0.00  0.00    +0.000 A 
ATOM      4  C   UNL     1       1.631   3.158  21.907  0.00  0.00    +0.000 A 
ATOM      5  C   UNL     1       1.854   2.026  21.119  0.00  0.00    +0.000 A 
ATOM      6  C   UNL     1       2.522   2.110  19.882  0.00  0.00    +0.000 A 
ATOM      7  C   UNL     1       3.057   3.348  19.486  0.00  0.00    +0.000 A 
ATOM      8  C   UNL     1       3.767   3.889  18.365  0.00  0.00    +0.000 A 
ATOM      9  C   UNL     1       3.988   3.645  16.992  0.00  0.00    +0.000 A 
ATOM     10  C   UNL     1       4.785   4.563  16.256  0.00  0.00    +0.000 A 
ATOM     11  C   UNL     1       5.589   5.487  16.923  0.00  0.00    +0.000 A 
ATOM     12  C   UNL     1       5.539   5.544  18.301  0.00  0.00    +0.000 A 
ATOM     13  C   UNL     1       4.464   4.957  18.949  0.00  0.00    +0.000 A 
ATOM     14  C   UNL     1       6.817   5.772  18.984  0.00  0.00    +0.000 C 
ATOM     15  O   UNL     1       7.253   5.034  19.854  0.00  0.00    +0.000 OA
ATOM     16  C   UNL     1       7.596   6.898  18.457  0.00  0.00    +0.000 C 
ATOM     17  C   UNL     1       7.396   7.259  17.181  0.00  0.00    +0.000 C 
ATOM     18  C   UNL     1       6.494   6.468  16.286  0.00  0.00    +0.000 C 
ATOM     19  O   UNL     1       6.466   6.678  15.076  0.00  0.00    +0.000 OA
ENDROOT
BRANCH   1  23
ATOM     20  C   UNL     1       1.412   9.155  18.766  0.00  0.00    +0.000 A 
ATOM     21  C   UNL     1       1.292   8.571  20.028  0.00  0.00    +0.000 A 
ATOM     22  C   UNL     1       1.949   7.371  20.301  0.00  0.00    +0.000 A 
ATOM     23  C   UNL     1       2.723   6.739  19.311  0.00  0.00    +0.000 A 
ATOM     24  C   UNL     1       2.756   7.268  18.020  0.00  0.00    +0.000 A 
ATOM     25  C   UNL     1       2.127   8.489  17.759  0.00  0.00    +0.000 A 
BRANCH  20  27
ATOM     26  O   UNL     1      -0.274  10.641  18.092  0.00  0.00    +0.000 OA
ATOM     27  C   UNL     1       0.856  10.518  18.563  0.00  0.00    +0.000 C 
BRANCH  27  28
ATOM     28  C   UNL     1       1.607  11.727  18.969  0.00  0.00    +0.000 A 
ATOM     29  C   UNL     1       2.451  12.342  18.040  0.00  0.00    +0.000 A 
ATOM     30  C   UNL     1       3.155  13.495  18.397  0.00  0.00    +0.000 A 
ATOM     31  C   UNL     1       3.021  14.033  19.683  0.00  0.00    +0.000 A 
ATOM     32  C   UNL     1       2.192  13.403  20.613  0.00  0.00    +0.000 A 
ATOM     33  C   UNL     1       1.493  12.247  20.266  0.00  0.00    +0.000 A 
ENDBRANCH  27  28
ENDBRANCH  20  27
ENDBRANCH   1  23
TORSDOF 3
ENDMDL
MODEL 4
REMARK VINA RESULT:     -10.0      1.253      2.186
REMARK  Name = 
REMARK  3 active torsions:
REMARK  status: ('A' for Active; 'I' for Inactive)
REMARK    1  A    between atoms: C_2  and  C_3
REMARK    2  A    between atoms: C_2  and  C_9
REMARK    3  A    between atoms: C_12  and  N_13
REMARK                            x       y       z     vdW  Elec       q    Type
REMARK                         _______ _______ _______ _____ _____    ______ ____
ROOT
ATOM      1  N   UNL     1       3.347   5.433  19.683  0.00  0.00    +0.000 N 
ATOM      2  C   UNL     1       2.767   4.356  20.327  0.00  0.00    +0.000 A 
ATOM      3  C   UNL     1       2.027   4.285  21.512  0.00  0.00    +0.000 A 
ATOM      4  C   UNL     1       1.542   3.032  21.866  0.00  0.00    +0.000 A 
ATOM      5  C   UNL     1       1.741   1.926  21.037  0.00  0.00    +0.000 A 
ATOM      6  C   UNL     1       2.412   2.041  19.804  0.00  0.00    +0.000 A 
ATOM      7  C   UNL     1       2.974   3.281  19.453  0.00  0.00    +0.000 A 
ATOM      8  C   UNL     1       3.696   3.848  18.353  0.00  0.00    +0.000 A 
ATOM      9  C   UNL     1       3.912   3.650  16.972  0.00  0.00    +0.000 A 
ATOM     10  C   UNL     1       4.729   4.577  16.270  0.00  0.00    +0.000 A 
ATOM     11  C   UNL     1       5.553   5.458  16.971  0.00  0.00    +0.000 A 
ATOM     12  C   UNL     1       5.503   5.464  18.350  0.00  0.00    +0.000 A 
ATOM     13  C   UNL     1       4.415   4.877  18.976  0.00  0.00    +0.000 A 
ATOM     14  C   UNL     1       6.786   5.640  19.040  0.00  0.00    +0.000 C 
ATOM     15  O   UNL     1       7.205   4.861  19.883  0.00  0.00    +0.000 OA
ATOM     16  C   UNL     1       7.589   6.767  18.555  0.00  0.00    +0.000 C 
ATOM     17  C   UNL     1       7.398   7.179  17.293  0.00  0.00    +0.000 C 
ATOM     18  C   UNL     1       6.479   6.442  16.370  0.00  0.00    +0.000 C 
ATOM     19  O   UNL     1       6.456   6.697  15.168  0.00  0.00    +0.000 OA
ENDROOT
BRANCH   1  23
ATOM     20  C   UNL     1       1.484   9.118  18.764  0.00  0.00    +0.000 A 
ATOM     21  C   UNL     1       2.229   8.443  17.796  0.00  0.00    +0.000 A 
ATOM     22  C   UNL     1       2.837   7.228  18.113  0.00  0.00    +0.000 A 
ATOM     23  C   UNL     1       2.713   6.683  19.404  0.00  0.00    +0.000 A 
ATOM     24  C   UNL     1       2.057   7.409  20.399  0.00  0.00    +0.000 A 
ATOM     25  C   UNL     1       1.418   8.609  20.069  0.00  0.00    +0.000 A 
BRANCH  20  27
ATOM     26  O   UNL     1      -0.401  10.151  17.823  0.00  0.00    +0.000 OA
ATOM     27  C   UNL     1       0.700  10.310  18.347  0.00  0.00    +0.000 C 
BRANCH  27  28
ATOM     28  C   UNL     1       1.189  11.684  18.603  0.00  0.00    +0.000 A 
ATOM     29  C   UNL     1       0.410  12.544  19.383  0.00  0.00    +0.000 A 
ATOM     30  C   UNL     1       0.862  13.838  19.652  0.00  0.00    +0.000 A 
ATOM     31  C   UNL     1       2.089  14.278  19.139  0.00  0.00    +0.000 A 
ATOM     32  C   UNL     1       2.854  13.420  18.346  0.00  0.00    +0.000 A 
ATOM     33  C   UNL     1       2.404  12.130  18.066  0.00  0.00    +0.000 A 
ENDBRANCH  27  28
ENDBRANCH  20  27
ENDBRANCH   1  23
TORSDOF 3
ENDMDL
MODEL 5
REMARK VINA RESULT:      -9.8      0.959      1.143
REMARK  Name = 
REMARK  3 active torsions:
REMARK  status: ('A' for Active; 'I' for Inactive)
REMARK    1  A    between atoms: C_2  and  C_3
REMARK    2  A    between atoms: C_2  and  C_9
REMARK    3  A    between atoms: C_12  and  N_13
REMARK                            x       y       z     vdW  Elec       q    Type
REMARK                         _______ _______ _______ _____ _____    ______ ____
ROOT
ATOM      1  N   UNL     1       3.183   5.401  19.125  0.00  0.00    +0.000 N 
ATOM      2  C   UNL     1       2.364   4.318  19.384  0.00  0.00    +0.000 A 
ATOM      3  C   UNL     1       1.316   4.158  20.297  0.00  0.00    +0.000 A 
ATOM      4  C   UNL     1       0.657   2.935  20.275  0.00  0.00    +0.000 A 
ATOM      5  C   UNL     1       0.997   1.954  19.340  0.00  0.00    +0.000 A 
ATOM      6  C   UNL     1       1.996   2.174  18.372  0.00  0.00    +0.000 A 
ATOM      7  C   UNL     1       2.727   3.374  18.415  0.00  0.00    +0.000 A 
ATOM      8  C   UNL     1       3.772   4.010  17.668  0.00  0.00    +0.000 A 
ATOM      9  C   UNL     1       4.353   4.002  16.382  0.00  0.00    +0.000 A 
ATOM     10  C   UNL     1       5.404   4.918  16.104  0.00  0.00    +0.000 A 
ATOM     11  C   UNL     1       6.061   5.572  17.147  0.00  0.00    +0.000 A 
ATOM     12  C   UNL     1       5.624   5.371  18.440  0.00  0.00    +0.000 A 
ATOM     13  C   UNL     1       4.362   4.834  18.637  0.00  0.00    +0.000 A 
ATOM     14  C   UNL     1       6.668   5.278  19.466  0.00  0.00    +0.000 C 
ATOM     15  O   UNL     1       6.772   4.332  20.232  0.00  0.00    +0.000 OA
ATOM     16  C   UNL     1       7.659   6.358  19.425  0.00  0.00    +0.000 C 
ATOM     17  C   UNL     1       7.865   6.980  18.255  0.00  0.00    +0.000 C 
ATOM     18  C   UNL     1       7.191   6.514  17.003  0.00  0.00    +0.000 C 
ATOM     19  O   UNL     1       7.529   6.952  15.906  0.00  0.00    +0.000 OA
ENDROOT
BRANCH   1  23
ATOM     20  C   UNL     1       1.886   9.395  18.612  0.00  0.00    +0.000 A 
ATOM     21  C   UNL     1       1.589   8.701  19.786  0.00  0.00    +0.000 A 
ATOM     22  C   UNL     1       2.024   7.385  19.942  0.00  0.00    +0.000 A 
ATOM     23  C   UNL     1       2.751   6.748  18.920  0.00  0.00    +0.000 A 
ATOM     24  C   UNL     1       2.955   7.406  17.706  0.00  0.00    +0.000 A 
ATOM     25  C   UNL     1       2.550   8.737  17.567  0.00  0.00    +0.000 A 
BRANCH  20  27
ATOM     26  O   UNL     1       2.379  11.615  18.032  0.00  0.00    +0.000 OA
ATOM     27  C   UNL     1       1.571  10.846  18.550  0.00  0.00    +0.000 C 
BRANCH  27  28
ATOM     28  C   UNL     1       0.281  11.379  19.046  0.00  0.00    +0.000 A 
ATOM     29  C   UNL     1      -0.884  11.113  18.320  0.00  0.00    +0.000 A 
ATOM     30  C   UNL     1      -2.113  11.590  18.780  0.00  0.00    +0.000 A 
ATOM     31  C   UNL     1      -2.182  12.337  19.963  0.00  0.00    +0.000 A 
ATOM     32  C   UNL     1      -1.013  12.615  20.674  0.00  0.00    +0.000 A 
ATOM     33  C   UNL     1       0.219  12.149  20.215  0.00  0.00    +0.000 A 
ENDBRANCH  27  28
ENDBRANCH  20  27
ENDBRANCH   1  23
TORSDOF 3
ENDMDL
MODEL 6
REMARK VINA RESULT:      -9.3      2.840      8.393
REMARK  Name = 
REMARK  3 active torsions:
REMARK  status: ('A' for Active; 'I' for Inactive)
REMARK    1  A    between atoms: C_2  and  C_3
REMARK    2  A    between atoms: C_2  and  C_9
REMARK    3  A    between atoms: C_12  and  N_13
REMARK                            x       y       z     vdW  Elec       q    Type
REMARK                         _______ _______ _______ _____ _____    ______ ____
ROOT
ATOM      1  N   UNL     1      -0.299  11.182  18.575  0.00  0.00    +0.000 N 
ATOM      2  C   UNL     1      -1.652  11.143  18.295  0.00  0.00    +0.000 A 
ATOM      3  C   UNL     1      -2.370  10.420  17.336  0.00  0.00    +0.000 A 
ATOM      4  C   UNL     1      -3.750  10.578  17.346  0.00  0.00    +0.000 A 
ATOM      5  C   UNL     1      -4.374  11.371  18.312  0.00  0.00    +0.000 A 
ATOM      6  C   UNL     1      -3.636  12.017  19.323  0.00  0.00    +0.000 A 
ATOM      7  C   UNL     1      -2.233  11.932  19.295  0.00  0.00    +0.000 A 
ATOM      8  C   UNL     1      -1.125  12.389  20.080  0.00  0.00    +0.000 A 
ATOM      9  C   UNL     1      -0.817  12.807  21.393  0.00  0.00    +0.000 A 
ATOM     10  C   UNL     1       0.531  13.131  21.706  0.00  0.00    +0.000 A 
ATOM     11  C   UNL     1       1.458  13.346  20.685  0.00  0.00    +0.000 A 
ATOM     12  C   UNL     1       1.061  13.166  19.376  0.00  0.00    +0.000 A 
ATOM     13  C   UNL     1      -0.098  12.448  19.128  0.00  0.00    +0.000 A 
ATOM     14  C   UNL     1       1.596  14.125  18.403  0.00  0.00    +0.000 C 
ATOM     15  O   UNL     1       0.890  14.787  17.658  0.00  0.00    +0.000 OA
ATOM     16  C   UNL     1       3.048  14.318  18.473  0.00  0.00    +0.000 C 
ATOM     17  C   UNL     1       3.660  14.073  19.641  0.00  0.00    +0.000 C 
ATOM     18  C   UNL     1       2.875  13.727  20.867  0.00  0.00    +0.000 C 
ATOM     19  O   UNL     1       3.412  13.700  21.972  0.00  0.00    +0.000 OA
ENDROOT
BRANCH   1  23
ATOM     20  C   UNL     1       2.190   7.807  19.134  0.00  0.00    +0.000 A 
ATOM     21  C   UNL     1       1.416   8.296  20.188  0.00  0.00    +0.000 A 
ATOM     22  C   UNL     1       0.599   9.409  19.989  0.00  0.00    +0.000 A 
ATOM     23  C   UNL     1       0.557  10.049  18.737  0.00  0.00    +0.000 A 
ATOM     24  C   UNL     1       1.409   9.624  17.716  0.00  0.00    +0.000 A 
ATOM     25  C   UNL     1       2.199   8.487  17.907  0.00  0.00    +0.000 A 
BRANCH  20  27
ATOM     26  O   UNL     1       4.128   6.524  19.458  0.00  0.00    +0.000 OA
ATOM     27  C   UNL     1       2.905   6.518  19.322  0.00  0.00    +0.000 C 
BRANCH  27  28
ATOM     28  C   UNL     1       2.173   5.234  19.408  0.00  0.00    +0.000 A 
ATOM     29  C   UNL     1       1.873   4.547  18.229  0.00  0.00    +0.000 A 
ATOM     30  C   UNL     1       1.199   3.325  18.289  0.00  0.00    +0.000 A 
ATOM     31  C   UNL     1       0.820   2.789  19.527  0.00  0.00    +0.000 A 
ATOM     32  C   UNL     1       1.106   3.489  20.700  0.00  0.00    +0.000 A 
ATOM     33  C   UNL     1       1.771   4.714  20.646  0.00  0.00    +0.000 A 
ENDBRANCH  27  28
ENDBRANCH  20  27
ENDBRANCH   1  23
TORSDOF 3
ENDMDL
MODEL 7
REMARK VINA RESULT:      -9.2      2.058      4.821
REMARK  Name = 
REMARK  3 active torsions:
REMARK  status: ('A' for Active; 'I' for Inactive)
REMARK    1  A    between atoms: C_2  and  C_3
REMARK    2  A    between atoms: C_2  and  C_9
REMARK    3  A    between atoms: C_12  and  N_13
REMARK                            x       y       z     vdW  Elec       q    Type
REMARK                         _______ _______ _______ _____ _____    ______ ____
ROOT
ATOM      1  N   UNL     1       3.685   5.457  17.594  0.00  0.00    +0.000 N 
ATOM      2  C   UNL     1       4.790   5.496  16.765  0.00  0.00    +0.000 A 
ATOM      3  C   UNL     1       5.058   6.266  15.628  0.00  0.00    +0.000 A 
ATOM      4  C   UNL     1       6.304   6.092  15.041  0.00  0.00    +0.000 A 
ATOM      5  C   UNL     1       7.250   5.234  15.607  0.00  0.00    +0.000 A 
ATOM      6  C   UNL     1       6.990   4.538  16.803  0.00  0.00    +0.000 A 
ATOM      7  C   UNL     1       5.713   4.641  17.381  0.00  0.00    +0.000 A 
ATOM      8  C   UNL     1       5.028   4.151  18.541  0.00  0.00    +0.000 A 
ATOM      9  C   UNL     1       5.292   3.659  19.837  0.00  0.00    +0.000 A 
ATOM     10  C   UNL     1       4.195   3.332  20.679  0.00  0.00    +0.000 A 
ATOM     11  C   UNL     1       2.915   3.191  20.143  0.00  0.00    +0.000 A 
ATOM     12  C   UNL     1       2.723   3.445  18.800  0.00  0.00    +0.000 A 
ATOM     13  C   UNL     1       3.692   4.162  18.116  0.00  0.00    +0.000 A 
ATOM     14  C   UNL     1       1.790   2.553  18.102  0.00  0.00    +0.000 C 
ATOM     15  O   UNL     1       2.087   1.929  17.096  0.00  0.00    +0.000 OA
ATOM     16  C   UNL     1       0.500   2.375  18.777  0.00  0.00    +0.000 C 
ATOM     17  C   UNL     1       0.452   2.555  20.104  0.00  0.00    +0.000 C 
ATOM     18  C   UNL     1       1.697   2.817  20.894  0.00  0.00    +0.000 C 
ATOM     19  O   UNL     1       1.683   2.784  22.122  0.00  0.00    +0.000 OA
ENDROOT
BRANCH   1  23
ATOM     20  C   UNL     1       1.716   8.846  19.187  0.00  0.00    +0.000 A 
ATOM     21  C   UNL     1       2.248   8.879  17.896  0.00  0.00    +0.000 A 
ATOM     22  C   UNL     1       2.893   7.754  17.384  0.00  0.00    +0.000 A 
ATOM     23  C   UNL     1       3.022   6.589  18.161  0.00  0.00    +0.000 A 
ATOM     24  C   UNL     1       2.584   6.592  19.486  0.00  0.00    +0.000 A 
ATOM     25  C   UNL     1       1.905   7.708  19.985  0.00  0.00    +0.000 A 
BRANCH  20  27
ATOM     26  O   UNL     1       1.241  10.657  20.601  0.00  0.00    +0.000 OA
ATOM     27  C   UNL     1       0.878   9.988  19.635  0.00  0.00    +0.000 C 
BRANCH  27  28
ATOM     28  C   UNL     1      -0.353  10.374  18.909  0.00  0.00    +0.000 A 
ATOM     29  C   UNL     1      -1.103  11.457  19.377  0.00  0.00    +0.000 A 
ATOM     30  C   UNL     1      -2.257  11.850  18.696  0.00  0.00    +0.000 A 
ATOM     31  C   UNL     1      -2.668  11.159  17.548  0.00  0.00    +0.000 A 
ATOM     32  C   UNL     1      -1.926  10.067  17.096  0.00  0.00    +0.000 A 
ATOM     33  C   UNL     1      -0.777   9.664  17.777  0.00  0.00    +0.000 A 
ENDBRANCH  27  28
ENDBRANCH  20  27
ENDBRANCH   1  23
TORSDOF 3
ENDMDL
MODEL 8
REMARK VINA RESULT:      -9.0      2.414      5.106
REMARK  Name = 
REMARK  3 active torsions:
REMARK  status: ('A' for Active; 'I' for Inactive)
REMARK    1  A    between atoms: C_2  and  C_3
REMARK    2  A    between atoms: C_2  and  C_9
REMARK    3  A    between atoms: C_12  and  N_13
REMARK                            x       y       z     vdW  Elec       q    Type
REMARK                         _______ _______ _______ _____ _____    ______ ____
ROOT
ATOM      1  N   UNL     1       3.733   5.398  17.489  0.00  0.00    +0.000 N 
ATOM      2  C   UNL     1       4.821   5.392  16.637  0.00  0.00    +0.000 A 
ATOM      3  C   UNL     1       5.075   6.115  15.467  0.00  0.00    +0.000 A 
ATOM      4  C   UNL     1       6.307   5.904  14.862  0.00  0.00    +0.000 A 
ATOM      5  C   UNL     1       7.255   5.057  15.443  0.00  0.00    +0.000 A 
ATOM      6  C   UNL     1       7.010   4.409  16.669  0.00  0.00    +0.000 A 
ATOM      7  C   UNL     1       5.746   4.550  17.267  0.00  0.00    +0.000 A 
ATOM      8  C   UNL     1       5.079   4.113  18.458  0.00  0.00    +0.000 A 
ATOM      9  C   UNL     1       5.364   3.667  19.767  0.00  0.00    +0.000 A 
ATOM     10  C   UNL     1       4.280   3.386  20.642  0.00  0.00    +0.000 A 
ATOM     11  C   UNL     1       2.988   3.240  20.137  0.00  0.00    +0.000 A 
ATOM     12  C   UNL     1       2.772   3.445  18.789  0.00  0.00    +0.000 A 
ATOM     13  C   UNL     1       3.735   4.124  18.060  0.00  0.00    +0.000 A 
ATOM     14  C   UNL     1       1.815   2.539  18.145  0.00  0.00    +0.000 C 
ATOM     15  O   UNL     1       2.085   1.873  17.157  0.00  0.00    +0.000 OA
ATOM     16  C   UNL     1       0.537   2.401  18.851  0.00  0.00    +0.000 C 
ATOM     17  C   UNL     1       0.518   2.633  20.171  0.00  0.00    +0.000 C 
ATOM     18  C   UNL     1       1.781   2.910  20.925  0.00  0.00    +0.000 C 
ATOM     19  O   UNL     1       1.791   2.923  22.154  0.00  0.00    +0.000 OA
ENDROOT
BRANCH   1  23
ATOM     20  C   UNL     1       1.841   8.871  18.990  0.00  0.00    +0.000 A 
ATOM     21  C   UNL     1       2.430   8.879  17.724  0.00  0.00    +0.000 A 
ATOM     22  C   UNL     1       3.049   7.726  17.241  0.00  0.00    +0.000 A 
ATOM     23  C   UNL     1       3.094   6.558  18.025  0.00  0.00    +0.000 A 
ATOM     24  C   UNL     1       2.599   6.584  19.330  0.00  0.00    +0.000 A 
ATOM     25  C   UNL     1       1.947   7.729  19.797  0.00  0.00    +0.000 A 
BRANCH  20  27
ATOM     26  O   UNL     1       0.846  10.959  18.593  0.00  0.00    +0.000 OA
ATOM     27  C   UNL     1       1.033  10.049  19.400  0.00  0.00    +0.000 C 
BRANCH  27  28
ATOM     28  C   UNL     1       0.400  10.125  20.737  0.00  0.00    +0.000 A 
ATOM     29  C   UNL     1      -0.424  11.214  21.033  0.00  0.00    +0.000 A 
ATOM     30  C   UNL     1      -1.046  11.295  22.282  0.00  0.00    +0.000 A 
ATOM     31  C   UNL     1      -0.842  10.291  23.237  0.00  0.00    +0.000 A 
ATOM     32  C   UNL     1      -0.002   9.216  22.942  0.00  0.00    +0.000 A 
ATOM     33  C   UNL     1       0.629   9.133  21.701  0.00  0.00    +0.000 A 
ENDBRANCH  27  28
ENDBRANCH  20  27
ENDBRANCH   1  23
TORSDOF 3
ENDMDL
MODEL 9
REMARK VINA RESULT:      -8.9      2.205      4.845
REMARK  Name = 
REMARK  3 active torsions:
REMARK  status: ('A' for Active; 'I' for Inactive)
REMARK    1  A    between atoms: C_2  and  C_3
REMARK    2  A    between atoms: C_2  and  C_9
REMARK    3  A    between atoms: C_12  and  N_13
REMARK                            x       y       z     vdW  Elec       q    Type
REMARK                         _______ _______ _______ _____ _____    ______ ____
ROOT
ATOM      1  N   UNL     1       3.649   5.458  17.680  0.00  0.00    +0.000 N 
ATOM      2  C   UNL     1       4.762   5.533  16.864  0.00  0.00    +0.000 A 
ATOM      3  C   UNL     1       5.033   6.338  15.752  0.00  0.00    +0.000 A 
ATOM      4  C   UNL     1       6.287   6.193  15.173  0.00  0.00    +0.000 A 
ATOM      5  C   UNL     1       7.236   5.329  15.725  0.00  0.00    +0.000 A 
ATOM      6  C   UNL     1       6.971   4.596  16.898  0.00  0.00    +0.000 A 
ATOM      7  C   UNL     1       5.687   4.669  17.465  0.00  0.00    +0.000 A 
ATOM      8  C   UNL     1       4.996   4.140  18.603  0.00  0.00    +0.000 A 
ATOM      9  C   UNL     1       5.252   3.613  19.887  0.00  0.00    +0.000 A 
ATOM     10  C   UNL     1       4.150   3.252  20.708  0.00  0.00    +0.000 A 
ATOM     11  C   UNL     1       2.877   3.112  20.155  0.00  0.00    +0.000 A 
ATOM     12  C   UNL     1       2.696   3.403  18.818  0.00  0.00    +0.000 A 
ATOM     13  C   UNL     1       3.664   4.149  18.165  0.00  0.00    +0.000 A 
ATOM     14  C   UNL     1       1.779   2.522  18.085  0.00  0.00    +0.000 C 
ATOM     15  O   UNL     1       2.093   1.930  17.064  0.00  0.00    +0.000 OA
ATOM     16  C   UNL     1       0.485   2.311  18.741  0.00  0.00    +0.000 C 
ATOM     17  C   UNL     1       0.422   2.453  20.073  0.00  0.00    +0.000 C 
ATOM     18  C   UNL     1       1.656   2.705  20.882  0.00  0.00    +0.000 C 
ATOM     19  O   UNL     1       1.629   2.636  22.108  0.00  0.00    +0.000 OA
ENDROOT
BRANCH   1  23
ATOM     20  C   UNL     1       1.647   8.700  19.518  0.00  0.00    +0.000 A 
ATOM     21  C   UNL     1       1.896   7.527  20.232  0.00  0.00    +0.000 A 
ATOM     22  C   UNL     1       2.558   6.467  19.614  0.00  0.00    +0.000 A 
ATOM     23  C   UNL     1       2.968   6.567  18.272  0.00  0.00    +0.000 A 
ATOM     24  C   UNL     1       2.625   7.697  17.528  0.00  0.00    +0.000 A 
ATOM     25  C   UNL     1       1.994   8.773  18.161  0.00  0.00    +0.000 A 
BRANCH  20  27
ATOM     26  O   UNL     1       1.150   9.883  21.482  0.00  0.00    +0.000 OA
ATOM     27  C   UNL     1       1.107   9.874  20.253  0.00  0.00    +0.000 C 
BRANCH  27  28
ATOM     28  C   UNL     1       0.575  11.056  19.537  0.00  0.00    +0.000 A 
ATOM     29  C   UNL     1      -0.747  11.032  19.084  0.00  0.00    +0.000 A 
ATOM     30  C   UNL     1      -1.274  12.144  18.423  0.00  0.00    +0.000 A 
ATOM     31  C   UNL     1      -0.482  13.279  18.210  0.00  0.00    +0.000 A 
ATOM     32  C   UNL     1       0.844  13.289  18.648  0.00  0.00    +0.000 A 
ATOM     33  C   UNL     1       1.379  12.179  19.300  0.00  0.00    +0.000 A 
ENDBRANCH  27  28
ENDBRANCH  20  27
ENDBRANCH   1  23
TORSDOF 3
ENDMDL
