MODEL 1
REMARK VINA RESULT:      -8.2      0.000      0.000
REMARK  Name = 
REMARK  6 active torsions:
REMARK  status: ('A' for Active; 'I' for Inactive)
REMARK    1  A    between atoms: C_1  and  N_2
REMARK    2  A    between atoms: N_2  and  C_3
REMARK    3  A    between atoms: N_2  and  S_4
REMARK    4  A    between atoms: S_4  and  N_7
REMARK    5  A    between atoms: C_10  and  N_11
REMARK    6  A    between atoms: C_12  and  C_13
REMARK                            x       y       z     vdW  Elec       q    Type
REMARK                         _______ _______ _______ _____ _____    ______ ____
ROOT
ATOM      1  N   UNL     1       2.500   4.312  19.290  0.00  0.00    +0.000 N 
ATOM      2  C   UNL     1       2.096   4.135  20.614  0.00  0.00    +0.000 A 
ATOM      3  N   UNL     1       1.960   5.315  21.214  0.00  0.00    +0.000 NA
ATOM      4  C   UNL     1       2.066   6.250  20.229  0.00  0.00    +0.000 A 
ATOM      5  C   UNL     1       1.951   7.644  20.270  0.00  0.00    +0.000 A 
ATOM      6  C   UNL     1       2.038   8.330  19.059  0.00  0.00    +0.000 A 
ATOM      7  C   UNL     1       2.218   7.605  17.888  0.00  0.00    +0.000 A 
ATOM      8  N   UNL     1       2.367   6.263  17.811  0.00  0.00    +0.000 NA
ATOM      9  C   UNL     1       2.305   5.645  19.005  0.00  0.00    +0.000 A 
ENDROOT
BRANCH   1  13
ATOM     10  N   UNL     1       5.611   4.195  17.346  0.00  0.00    +0.000 NA
ATOM     11  C   UNL     1       5.522   3.662  18.711  0.00  0.00    +0.000 C 
ATOM     12  C   UNL     1       4.361   2.689  18.876  0.00  0.00    +0.000 C 
ATOM     13  C   UNL     1       3.023   3.277  18.398  0.00  0.00    +0.000 C 
ATOM     14  C   UNL     1       3.190   3.605  16.911  0.00  0.00    +0.000 C 
ATOM     15  C   UNL     1       4.394   4.476  16.565  0.00  0.00    +0.000 C 
BRANCH  10  16
ATOM     16  S   UNL     1       6.979   5.092  16.934  0.00  0.00    +0.000 S 
ATOM     17  O   UNL     1       6.755   5.720  15.648  0.00  0.00    +0.000 OA
ATOM     18  O   UNL     1       8.135   4.254  17.150  0.00  0.00    +0.000 OA
BRANCH  16  20
ATOM     19  C   UNL     1       7.896   5.912  19.261  0.00  0.00    +0.000 C 
ATOM     20  N   UNL     1       7.067   6.333  18.095  0.00  0.00    +0.000 NA
ATOM     21  C   UNL     1       7.482   7.673  17.644  0.00  0.00    +0.000 C 
ENDBRANCH  16  20
ENDBRANCH  10  16
ENDBRANCH   1  13
BRANCH   2  22
ATOM     22  C   UNL     1       1.824   2.811  21.270  0.00  0.00    +0.000 C 
ATOM     23  F   UNL     1       0.888   2.870  22.251  0.00  0.00    +0.000 F 
ATOM     24  F   UNL     1       1.382   1.886  20.376  0.00  0.00    +0.000 F 
ATOM     25  F   UNL     1       2.940   2.301  21.848  0.00  0.00    +0.000 F 
ENDBRANCH   2  22
TORSDOF 4
ENDMDL
MODEL 2
REMARK VINA RESULT:      -7.4      1.479      2.026
REMARK  Name = 
REMARK  6 active torsions:
REMARK  status: ('A' for Active; 'I' for Inactive)
REMARK    1  A    between atoms: C_1  and  N_2
REMARK    2  A    between atoms: N_2  and  C_3
REMARK    3  A    between atoms: N_2  and  S_4
REMARK    4  A    between atoms: S_4  and  N_7
REMARK    5  A    between atoms: C_10  and  N_11
REMARK    6  A    between atoms: C_12  and  C_13
REMARK                            x       y       z     vdW  Elec       q    Type
REMARK                         _______ _______ _______ _____ _____    ______ ____
ROOT
ATOM      1  N   UNL     1       3.038   4.314  19.445  0.00  0.00    +0.000 N 
ATOM      2  C   UNL     1       2.254   4.167  20.590  0.00  0.00    +0.000 A 
ATOM      3  N   UNL     1       1.824   5.354  21.007  0.00  0.00    +0.000 NA
ATOM      4  C   UNL     1       2.145   6.237  20.022  0.00  0.00    +0.000 A 
ATOM      5  C   UNL     1       1.891   7.607  19.897  0.00  0.00    +0.000 A 
ATOM      6  C   UNL     1       2.290   8.228  18.714  0.00  0.00    +0.000 A 
ATOM      7  C   UNL     1       2.901   7.464  17.728  0.00  0.00    +0.000 A 
ATOM      8  N   UNL     1       3.193   6.147  17.823  0.00  0.00    +0.000 NA
ATOM      9  C   UNL     1       2.816   5.596  18.992  0.00  0.00    +0.000 A 
ENDROOT
BRANCH   1  13
ATOM     10  N   UNL     1       5.624   4.613  16.859  0.00  0.00    +0.000 NA
ATOM     11  C   UNL     1       5.930   4.748  18.288  0.00  0.00    +0.000 C 
ATOM     12  C   UNL     1       5.405   3.573  19.105  0.00  0.00    +0.000 C 
ATOM     13  C   UNL     1       3.913   3.299  18.857  0.00  0.00    +0.000 C 
ATOM     14  C   UNL     1       3.764   2.976  17.366  0.00  0.00    +0.000 C 
ATOM     15  C   UNL     1       4.358   4.006  16.412  0.00  0.00    +0.000 C 
BRANCH  10  16
ATOM     16  S   UNL     1       6.343   5.700  15.788  0.00  0.00    +0.000 S 
ATOM     17  O   UNL     1       7.439   6.364  16.464  0.00  0.00    +0.000 OA
ATOM     18  O   UNL     1       5.289   6.470  15.170  0.00  0.00    +0.000 OA
BRANCH  16  20
ATOM     19  C   UNL     1       5.964   3.915  13.892  0.00  0.00    +0.000 C 
ATOM     20  N   UNL     1       7.016   4.738  14.557  0.00  0.00    +0.000 NA
ATOM     21  C   UNL     1       7.850   5.401  13.540  0.00  0.00    +0.000 C 
ENDBRANCH  16  20
ENDBRANCH  10  16
ENDBRANCH   1  13
BRANCH   2  22
ATOM     22  C   UNL     1       1.917   2.859  21.250  0.00  0.00    +0.000 C 
ATOM     23  F   UNL     1       0.936   2.955  22.183  0.00  0.00    +0.000 F 
ATOM     24  F   UNL     1       1.494   1.933  20.347  0.00  0.00    +0.000 F 
ATOM     25  F   UNL     1       2.989   2.329  21.887  0.00  0.00    +0.000 F 
ENDBRANCH   2  22
TORSDOF 4
ENDMDL
MODEL 3
REMARK VINA RESULT:      -7.2      0.879      1.376
REMARK  Name = 
REMARK  6 active torsions:
REMARK  status: ('A' for Active; 'I' for Inactive)
REMARK    1  A    between atoms: C_1  and  N_2
REMARK    2  A    between atoms: N_2  and  C_3
REMARK    3  A    between atoms: N_2  and  S_4
REMARK    4  A    between atoms: S_4  and  N_7
REMARK    5  A    between atoms: C_10  and  N_11
REMARK    6  A    between atoms: C_12  and  C_13
REMARK                            x       y       z     vdW  Elec       q    Type
REMARK                         _______ _______ _______ _____ _____    ______ ____
ROOT
ATOM      1  N   UNL     1       2.446   4.375  19.405  0.00  0.00    +0.000 N 
ATOM      2  C   UNL     1       1.978   4.143  20.699  0.00  0.00    +0.000 A 
ATOM      3  N   UNL     1       1.771   5.298  21.326  0.00  0.00    +0.000 NA
ATOM      4  C   UNL     1       1.897   6.267  20.378  0.00  0.00    +0.000 A 
ATOM      5  C   UNL     1       1.734   7.654  20.455  0.00  0.00    +0.000 A 
ATOM      6  C   UNL     1       1.862   8.382  19.272  0.00  0.00    +0.000 A 
ATOM      7  C   UNL     1       2.129   7.702  18.092  0.00  0.00    +0.000 A 
ATOM      8  N   UNL     1       2.326   6.368  17.981  0.00  0.00    +0.000 NA
ATOM      9  C   UNL     1       2.222   5.710  19.151  0.00  0.00    +0.000 A 
ENDROOT
BRANCH   1  13
ATOM     10  N   UNL     1       5.823   4.207  17.979  0.00  0.00    +0.000 NA
ATOM     11  C   UNL     1       5.480   3.565  19.254  0.00  0.00    +0.000 C 
ATOM     12  C   UNL     1       4.255   2.666  19.137  0.00  0.00    +0.000 C 
ATOM     13  C   UNL     1       3.050   3.386  18.511  0.00  0.00    +0.000 C 
ATOM     14  C   UNL     1       3.478   3.830  17.109  0.00  0.00    +0.000 C 
ATOM     15  C   UNL     1       4.769   4.639  17.045  0.00  0.00    +0.000 C 
BRANCH  10  16
ATOM     16  S   UNL     1       7.289   5.036  17.879  0.00  0.00    +0.000 S 
ATOM     17  O   UNL     1       8.284   4.157  17.303  0.00  0.00    +0.000 OA
ATOM     18  O   UNL     1       7.521   5.672  19.155  0.00  0.00    +0.000 OA
BRANCH  16  20
ATOM     19  C   UNL     1       7.588   7.577  17.260  0.00  0.00    +0.000 C 
ATOM     20  N   UNL     1       7.016   6.291  16.763  0.00  0.00    +0.000 NA
ATOM     21  C   UNL     1       7.421   6.072  15.364  0.00  0.00    +0.000 C 
ENDBRANCH  16  20
ENDBRANCH  10  16
ENDBRANCH   1  13
BRANCH   2  22
ATOM     22  C   UNL     1       1.716   2.790  21.299  0.00  0.00    +0.000 C 
ATOM     23  F   UNL     1       2.807   2.230  21.881  0.00  0.00    +0.000 F 
ATOM     24  F   UNL     1       0.756   2.842  22.260  0.00  0.00    +0.000 F 
ATOM     25  F   UNL     1       1.293   1.902  20.365  0.00  0.00    +0.000 F 
ENDBRANCH   2  22
TORSDOF 4
ENDMDL
MODEL 4
REMARK VINA RESULT:      -7.1      4.030      6.446
REMARK  Name = 
REMARK  6 active torsions:
REMARK  status: ('A' for Active; 'I' for Inactive)
REMARK    1  A    between atoms: C_1  and  N_2
REMARK    2  A    between atoms: N_2  and  C_3
REMARK    3  A    between atoms: N_2  and  S_4
REMARK    4  A    between atoms: S_4  and  N_7
REMARK    5  A    between atoms: C_10  and  N_11
REMARK    6  A    between atoms: C_12  and  C_13
REMARK                            x       y       z     vdW  Elec       q    Type
REMARK                         _______ _______ _______ _____ _____    ______ ____
ROOT
ATOM      1  N   UNL     1       5.983   6.103  17.054  0.00  0.00    +0.000 N 
ATOM      2  C   UNL     1       7.226   6.713  16.884  0.00  0.00    +0.000 A 
ATOM      3  N   UNL     1       7.888   6.135  15.885  0.00  0.00    +0.000 NA
ATOM      4  C   UNL     1       6.998   5.305  15.276  0.00  0.00    +0.000 A 
ATOM      5  C   UNL     1       7.126   4.490  14.147  0.00  0.00    +0.000 A 
ATOM      6  C   UNL     1       5.990   3.801  13.720  0.00  0.00    +0.000 A 
ATOM      7  C   UNL     1       4.803   3.966  14.421  0.00  0.00    +0.000 A 
ATOM      8  N   UNL     1       4.647   4.717  15.535  0.00  0.00    +0.000 NA
ATOM      9  C   UNL     1       5.774   5.340  15.927  0.00  0.00    +0.000 A 
ENDROOT
BRANCH   1  13
ATOM     10  N   UNL     1       3.631   3.730  18.574  0.00  0.00    +0.000 NA
ATOM     11  C   UNL     1       5.025   3.842  19.019  0.00  0.00    +0.000 C 
ATOM     12  C   UNL     1       5.414   5.279  19.349  0.00  0.00    +0.000 C 
ATOM     13  C   UNL     1       5.093   6.255  18.205  0.00  0.00    +0.000 C 
ATOM     14  C   UNL     1       3.579   6.188  17.977  0.00  0.00    +0.000 C 
ATOM     15  C   UNL     1       3.014   4.789  17.756  0.00  0.00    +0.000 C 
BRANCH  10  16
ATOM     16  S   UNL     1       2.975   2.186  18.405  0.00  0.00    +0.000 S 
ATOM     17  O   UNL     1       3.980   1.209  18.770  0.00  0.00    +0.000 OA
ATOM     18  O   UNL     1       2.326   2.123  17.116  0.00  0.00    +0.000 OA
BRANCH  16  20
ATOM     19  C   UNL     1       2.225   2.557  20.900  0.00  0.00    +0.000 C 
ATOM     20  N   UNL     1       1.736   2.097  19.568  0.00  0.00    +0.000 NA
ATOM     21  C   UNL     1       0.449   2.743  19.257  0.00  0.00    +0.000 C 
ENDBRANCH  16  20
ENDBRANCH  10  16
ENDBRANCH   1  13
BRANCH   2  22
ATOM     22  C   UNL     1       7.742   7.874  17.688  0.00  0.00    +0.000 C 
ATOM     23  F   UNL     1       8.702   8.593  17.054  0.00  0.00    +0.000 F 
ATOM     24  F   UNL     1       6.751   8.752  17.999  0.00  0.00    +0.000 F 
ATOM     25  F   UNL     1       8.291   7.466  18.859  0.00  0.00    +0.000 F 
ENDBRANCH   2  22
TORSDOF 4
ENDMDL
MODEL 5
REMARK VINA RESULT:      -7.0      1.158      1.665
REMARK  Name = 
REMARK  6 active torsions:
REMARK  status: ('A' for Active; 'I' for Inactive)
REMARK    1  A    between atoms: C_1  and  N_2
REMARK    2  A    between atoms: N_2  and  C_3
REMARK    3  A    between atoms: N_2  and  S_4
REMARK    4  A    between atoms: S_4  and  N_7
REMARK    5  A    between atoms: C_10  and  N_11
REMARK    6  A    between atoms: C_12  and  C_13
REMARK                            x       y       z     vdW  Elec       q    Type
REMARK                         _______ _______ _______ _____ _____    ______ ____
ROOT
ATOM      1  N   UNL     1       2.507   4.278  19.427  0.00  0.00    +0.000 N 
ATOM      2  C   UNL     1       2.027   4.095  20.724  0.00  0.00    +0.000 A 
ATOM      3  N   UNL     1       1.829   5.273  21.310  0.00  0.00    +0.000 NA
ATOM      4  C   UNL     1       1.973   6.208  20.331  0.00  0.00    +0.000 A 
ATOM      5  C   UNL     1       1.825   7.599  20.360  0.00  0.00    +0.000 A 
ATOM      6  C   UNL     1       1.970   8.284  19.154  0.00  0.00    +0.000 A 
ATOM      7  C   UNL     1       2.237   7.561  17.999  0.00  0.00    +0.000 A 
ATOM      8  N   UNL     1       2.420   6.222  17.935  0.00  0.00    +0.000 NA
ATOM      9  C   UNL     1       2.300   5.606  19.126  0.00  0.00    +0.000 A 
ENDROOT
BRANCH   1  13
ATOM     10  N   UNL     1       5.658   4.294  17.545  0.00  0.00    +0.000 NA
ATOM     11  C   UNL     1       5.572   3.790  18.921  0.00  0.00    +0.000 C 
ATOM     12  C   UNL     1       4.466   2.755  19.090  0.00  0.00    +0.000 C 
ATOM     13  C   UNL     1       3.107   3.253  18.571  0.00  0.00    +0.000 C 
ATOM     14  C   UNL     1       3.284   3.554  17.080  0.00  0.00    +0.000 C 
ATOM     15  C   UNL     1       4.443   4.484  16.734  0.00  0.00    +0.000 C 
BRANCH  10  16
ATOM     16  S   UNL     1       6.981   5.258  17.135  0.00  0.00    +0.000 S 
ATOM     17  O   UNL     1       8.152   4.415  17.012  0.00  0.00    +0.000 OA
ATOM     18  O   UNL     1       6.986   6.396  18.025  0.00  0.00    +0.000 OA
BRANCH  16  20
ATOM     19  C   UNL     1       6.792   4.803  14.550  0.00  0.00    +0.000 C 
ATOM     20  N   UNL     1       6.628   5.865  15.586  0.00  0.00    +0.000 NA
ATOM     21  C   UNL     1       5.343   6.559  15.391  0.00  0.00    +0.000 C 
ENDBRANCH  16  20
ENDBRANCH  10  16
ENDBRANCH   1  13
BRANCH   2  22
ATOM     22  C   UNL     1       1.746   2.766  21.367  0.00  0.00    +0.000 C 
ATOM     23  F   UNL     1       1.308   1.820  20.497  0.00  0.00    +0.000 F 
ATOM     24  F   UNL     1       2.853   2.250  21.964  0.00  0.00    +0.000 F 
ATOM     25  F   UNL     1       0.791   2.866  22.324  0.00  0.00    +0.000 F 
ENDBRANCH   2  22
TORSDOF 4
ENDMDL
MODEL 6
REMARK VINA RESULT:      -7.0      0.685      1.276
REMARK  Name = 
REMARK  6 active torsions:
REMARK  status: ('A' for Active; 'I' for Inactive)
REMARK    1  A    between atoms: C_1  and  N_2
REMARK    2  A    between atoms: N_2  and  C_3
REMARK    3  A    between atoms: N_2  and  S_4
REMARK    4  A    between atoms: S_4  and  N_7
REMARK    5  A    between atoms: C_10  and  N_11
REMARK    6  A    between atoms: C_12  and  C_13
REMARK                            x       y       z     vdW  Elec       q    Type
REMARK                         _______ _______ _______ _____ _____    ______ ____
ROOT
ATOM      1  N   UNL     1       2.911   4.349  19.456  0.00  0.00    +0.000 N 
ATOM      2  C   UNL     1       2.190   4.150  20.634  0.00  0.00    +0.000 A 
ATOM      3  N   UNL     1       1.775   5.317  21.121  0.00  0.00    +0.000 NA
ATOM      4  C   UNL     1       2.038   6.240  20.155  0.00  0.00    +0.000 A 
ATOM      5  C   UNL     1       1.768   7.611  20.098  0.00  0.00    +0.000 A 
ATOM      6  C   UNL     1       2.101   8.282  18.921  0.00  0.00    +0.000 A 
ATOM      7  C   UNL     1       2.663   7.562  17.875  0.00  0.00    +0.000 A 
ATOM      8  N   UNL     1       2.969   6.245  17.903  0.00  0.00    +0.000 NA
ATOM      9  C   UNL     1       2.658   5.645  19.067  0.00  0.00    +0.000 A 
ENDROOT
BRANCH   1  13
ATOM     10  N   UNL     1       5.777   4.819  17.213  0.00  0.00    +0.000 NA
ATOM     11  C   UNL     1       5.936   4.685  18.666  0.00  0.00    +0.000 C 
ATOM     12  C   UNL     1       5.234   3.448  19.213  0.00  0.00    +0.000 C 
ATOM     13  C   UNL     1       3.760   3.365  18.783  0.00  0.00    +0.000 C 
ATOM     14  C   UNL     1       3.747   3.310  17.252  0.00  0.00    +0.000 C 
ATOM     15  C   UNL     1       4.522   4.421  16.552  0.00  0.00    +0.000 C 
BRANCH  10  16
ATOM     16  S   UNL     1       6.692   5.994  16.420  0.00  0.00    +0.000 S 
ATOM     17  O   UNL     1       5.830   7.108  16.084  0.00  0.00    +0.000 OA
ATOM     18  O   UNL     1       7.466   5.331  15.397  0.00  0.00    +0.000 OA
BRANCH  16  20
ATOM     19  C   UNL     1       7.767   8.036  17.686  0.00  0.00    +0.000 C 
ATOM     20  N   UNL     1       7.808   6.548  17.579  0.00  0.00    +0.000 NA
ATOM     21  C   UNL     1       7.763   5.949  18.924  0.00  0.00    +0.000 C 
ENDBRANCH  16  20
ENDBRANCH  10  16
ENDBRANCH   1  13
BRANCH   2  22
ATOM     22  C   UNL     1       1.896   2.815  21.259  0.00  0.00    +0.000 C 
ATOM     23  F   UNL     1       2.965   2.257  21.883  0.00  0.00    +0.000 F 
ATOM     24  F   UNL     1       0.912   2.900  22.193  0.00  0.00    +0.000 F 
ATOM     25  F   UNL     1       1.489   1.910  20.335  0.00  0.00    +0.000 F 
ENDBRANCH   2  22
TORSDOF 4
ENDMDL
MODEL 7
REMARK VINA RESULT:      -6.5      4.169      6.351
REMARK  Name = 
REMARK  6 active torsions:
REMARK  status: ('A' for Active; 'I' for Inactive)
REMARK    1  A    between atoms: C_1  and  N_2
REMARK    2  A    between atoms: N_2  and  C_3
REMARK    3  A    between atoms: N_2  and  S_4
REMARK    4  A    between atoms: S_4  and  N_7
REMARK    5  A    between atoms: C_10  and  N_11
REMARK    6  A    between atoms: C_12  and  C_13
REMARK                            x       y       z     vdW  Elec       q    Type
REMARK                         _______ _______ _______ _____ _____    ______ ____
ROOT
ATOM      1  N   UNL     1       5.770   4.291  16.483  0.00  0.00    +0.000 N 
ATOM      2  C   UNL     1       6.342   4.803  15.318  0.00  0.00    +0.000 A 
ATOM      3  N   UNL     1       7.094   5.863  15.604  0.00  0.00    +0.000 NA
ATOM      4  C   UNL     1       7.181   5.906  16.962  0.00  0.00    +0.000 A 
ATOM      5  C   UNL     1       7.881   6.770  17.811  0.00  0.00    +0.000 A 
ATOM      6  C   UNL     1       7.828   6.506  19.179  0.00  0.00    +0.000 A 
ATOM      7  C   UNL     1       7.104   5.408  19.624  0.00  0.00    +0.000 A 
ATOM      8  N   UNL     1       6.388   4.570  18.840  0.00  0.00    +0.000 NA
ATOM      9  C   UNL     1       6.444   4.879  17.531  0.00  0.00    +0.000 A 
ENDROOT
BRANCH   1  13
ATOM     10  N   UNL     1       3.004   4.008  18.879  0.00  0.00    +0.000 NA
ATOM     11  C   UNL     1       2.886   4.781  17.637  0.00  0.00    +0.000 C 
ATOM     12  C   UNL     1       3.288   3.970  16.411  0.00  0.00    +0.000 C 
ATOM     13  C   UNL     1       4.675   3.323  16.558  0.00  0.00    +0.000 C 
ATOM     14  C   UNL     1       4.602   2.390  17.771  0.00  0.00    +0.000 C 
ATOM     15  C   UNL     1       4.091   3.030  19.058  0.00  0.00    +0.000 C 
BRANCH  10  16
ATOM     16  S   UNL     1       2.369   4.677  20.292  0.00  0.00    +0.000 S 
ATOM     17  O   UNL     1       1.771   5.957  19.975  0.00  0.00    +0.000 OA
ATOM     18  O   UNL     1       3.380   4.574  21.319  0.00  0.00    +0.000 OA
BRANCH  16  20
ATOM     19  C   UNL     1       0.496   2.978  19.561  0.00  0.00    +0.000 C 
ATOM     20  N   UNL     1       1.110   3.630  20.755  0.00  0.00    +0.000 NA
ATOM     21  C   UNL     1       1.397   2.617  21.785  0.00  0.00    +0.000 C 
ENDBRANCH  16  20
ENDBRANCH  10  16
ENDBRANCH   1  13
BRANCH   2  22
ATOM     22  C   UNL     1       6.165   4.232  13.939  0.00  0.00    +0.000 C 
ATOM     23  F   UNL     1       6.420   2.901  13.862  0.00  0.00    +0.000 F 
ATOM     24  F   UNL     1       4.896   4.403  13.482  0.00  0.00    +0.000 F 
ATOM     25  F   UNL     1       6.992   4.824  13.043  0.00  0.00    +0.000 F 
ENDBRANCH   2  22
TORSDOF 4
ENDMDL
MODEL 8
REMARK VINA RESULT:      -6.2      1.651      1.927
REMARK  Name = 
REMARK  6 active torsions:
REMARK  status: ('A' for Active; 'I' for Inactive)
REMARK    1  A    between atoms: C_1  and  N_2
REMARK    2  A    between atoms: N_2  and  C_3
REMARK    3  A    between atoms: N_2  and  S_4
REMARK    4  A    between atoms: S_4  and  N_7
REMARK    5  A    between atoms: C_10  and  N_11
REMARK    6  A    between atoms: C_12  and  C_13
REMARK                            x       y       z     vdW  Elec       q    Type
REMARK                         _______ _______ _______ _____ _____    ______ ____
ROOT
ATOM      1  N   UNL     1       3.146   4.574  19.761  0.00  0.00    +0.000 N 
ATOM      2  C   UNL     1       2.185   4.279  20.728  0.00  0.00    +0.000 A 
ATOM      3  N   UNL     1       1.527   5.383  21.072  0.00  0.00    +0.000 NA
ATOM      4  C   UNL     1       1.909   6.340  20.182  0.00  0.00    +0.000 A 
ATOM      5  C   UNL     1       1.503   7.670  20.031  0.00  0.00    +0.000 A 
ATOM      6  C   UNL     1       2.034   8.385  18.959  0.00  0.00    +0.000 A 
ATOM      7  C   UNL     1       2.919   7.748  18.099  0.00  0.00    +0.000 A 
ATOM      8  N   UNL     1       3.362   6.477  18.230  0.00  0.00    +0.000 NA
ATOM      9  C   UNL     1       2.845   5.834  19.294  0.00  0.00    +0.000 A 
ENDROOT
BRANCH   1  13
ATOM     10  N   UNL     1       5.232   4.671  16.743  0.00  0.00    +0.000 NA
ATOM     11  C   UNL     1       5.610   5.370  17.976  0.00  0.00    +0.000 C 
ATOM     12  C   UNL     1       5.581   4.452  19.193  0.00  0.00    +0.000 C 
ATOM     13  C   UNL     1       4.245   3.705  19.339  0.00  0.00    +0.000 C 
ATOM     14  C   UNL     1       4.069   2.861  18.072  0.00  0.00    +0.000 C 
ATOM     15  C   UNL     1       4.198   3.621  16.757  0.00  0.00    +0.000 C 
BRANCH  10  16
ATOM     16  S   UNL     1       5.448   5.479  15.277  0.00  0.00    +0.000 S 
ATOM     17  O   UNL     1       5.067   6.865  15.448  0.00  0.00    +0.000 OA
ATOM     18  O   UNL     1       4.844   4.674  14.240  0.00  0.00    +0.000 OA
BRANCH  16  20
ATOM     19  C   UNL     1       7.821   4.616  16.017  0.00  0.00    +0.000 C 
ATOM     20  N   UNL     1       7.124   5.446  14.991  0.00  0.00    +0.000 NA
ATOM     21  C   UNL     1       7.589   5.070  13.645  0.00  0.00    +0.000 C 
ENDBRANCH  16  20
ENDBRANCH  10  16
ENDBRANCH   1  13
BRANCH   2  22
ATOM     22  C   UNL     1       1.905   2.913  21.289  0.00  0.00    +0.000 C 
ATOM     23  F   UNL     1       0.876   2.885  22.173  0.00  0.00    +0.000 F 
ATOM     24  F   UNL     1       1.591   2.021  20.311  0.00  0.00    +0.000 F 
ATOM     25  F   UNL     1       2.979   2.414  21.949  0.00  0.00    +0.000 F 
ENDBRANCH   2  22
TORSDOF 4
ENDMDL
MODEL 9
REMARK VINA RESULT:      -6.0      9.991     11.370
REMARK  Name = 
REMARK  6 active torsions:
REMARK  status: ('A' for Active; 'I' for Inactive)
REMARK    1  A    between atoms: C_1  and  N_2
REMARK    2  A    between atoms: N_2  and  C_3
REMARK    3  A    between atoms: N_2  and  S_4
REMARK    4  A    between atoms: S_4  and  N_7
REMARK    5  A    between atoms: C_10  and  N_11
REMARK    6  A    between atoms: C_12  and  C_13
REMARK                            x       y       z     vdW  Elec       q    Type
REMARK                         _______ _______ _______ _____ _____    ______ ____
ROOT
ATOM      1  N   UNL     1       9.267  13.720  19.522  0.00  0.00    +0.000 N 
ATOM      2  C   UNL     1       9.579  13.241  18.249  0.00  0.00    +0.000 A 
ATOM      3  N   UNL     1       8.518  13.336  17.451  0.00  0.00    +0.000 NA
ATOM      4  C   UNL     1       7.597  14.067  18.138  0.00  0.00    +0.000 A 
ATOM      5  C   UNL     1       6.325  14.519  17.771  0.00  0.00    +0.000 A 
ATOM      6  C   UNL     1       5.643  15.324  18.684  0.00  0.00    +0.000 A 
ATOM      7  C   UNL     1       6.256  15.641  19.888  0.00  0.00    +0.000 A 
ATOM      8  N   UNL     1       7.468  15.197  20.293  0.00  0.00    +0.000 NA
ATOM      9  C   UNL     1       8.077  14.402  19.394  0.00  0.00    +0.000 A 
ENDROOT
BRANCH   1  13
ATOM     10  N   UNL     1       8.229  12.768  22.911  0.00  0.00    +0.000 NA
ATOM     11  C   UNL     1       8.629  11.774  21.908  0.00  0.00    +0.000 C 
ATOM     12  C   UNL     1       9.983  12.093  21.286  0.00  0.00    +0.000 C 
ATOM     13  C   UNL     1      10.059  13.528  20.738  0.00  0.00    +0.000 C 
ATOM     14  C   UNL     1       9.821  14.468  21.925  0.00  0.00    +0.000 C 
ATOM     15  C   UNL     1       8.558  14.193  22.733  0.00  0.00    +0.000 C 
BRANCH  10  16
ATOM     16  S   UNL     1       6.878  12.433  23.864  0.00  0.00    +0.000 S 
ATOM     17  O   UNL     1       7.042  11.124  24.462  0.00  0.00    +0.000 OA
ATOM     18  O   UNL     1       5.702  12.740  23.083  0.00  0.00    +0.000 OA
BRANCH  16  20
ATOM     19  C   UNL     1       5.579  14.179  25.344  0.00  0.00    +0.000 C 
ATOM     20  N   UNL     1       6.925  13.575  25.124  0.00  0.00    +0.000 NA
ATOM     21  C   UNL     1       7.502  13.158  26.414  0.00  0.00    +0.000 C 
ENDBRANCH  16  20
ENDBRANCH  10  16
ENDBRANCH   1  13
BRANCH   2  22
ATOM     22  C   UNL     1      10.921  12.717  17.822  0.00  0.00    +0.000 C 
ATOM     23  F   UNL     1      11.129  11.416  18.151  0.00  0.00    +0.000 F 
ATOM     24  F   UNL     1      11.090  12.800  16.476  0.00  0.00    +0.000 F 
ATOM     25  F   UNL     1      11.935  13.413  18.392  0.00  0.00    +0.000 F 
ENDBRANCH   2  22
TORSDOF 4
ENDMDL
