MODEL 1
REMARK VINA RESULT:      -7.3      0.000      0.000
REMARK  Name = 
REMARK  8 active torsions:
REMARK  status: ('A' for Active; 'I' for Inactive)
REMARK    1  A    between atoms: C_2  and  C_3
REMARK    2  A    between atoms: C_2  and  C_17
REMARK    3  A    between atoms: C_3  and  N_4
REMARK    4  A    between atoms: N_7  and  C_8
REMARK    5  A    between atoms: C_8  and  C_9
REMARK    6  A    between atoms: C_17  and  O_18
REMARK    7  A    between atoms: C_17  and  C_19
REMARK    8  A    between atoms: C_17  and  C_25
REMARK                            x       y       z     vdW  Elec       q    Type
REMARK                         _______ _______ _______ _____ _____    ______ ____
ROOT
ATOM      1  O   UNL     1       2.650   7.910  18.043  0.00  0.00    +0.000 OA
ATOM      2  C   UNL     1       2.433   7.248  19.072  0.00  0.00    +0.000 C 
ENDROOT
BRANCH   2   3
ATOM      3  C   UNL     1       1.916   7.924  20.340  0.00  0.00    +0.000 C 
BRANCH   3   4
ATOM      4  N   UNL     1       0.556   8.492  20.208  0.00  0.00    +0.000 NA
ATOM      5  C   UNL     1      -0.230   8.485  21.470  0.00  0.00    +0.000 C 
ATOM      6  C   UNL     1       0.156   9.561  22.522  0.00  0.00    +0.000 C 
ATOM      7  N   UNL     1       0.211  10.945  21.991  0.00  0.00    +0.000 NA
ATOM      8  C   UNL     1       1.068  10.931  20.790  0.00  0.00    +0.000 C 
ATOM      9  C   UNL     1       0.645   9.894  19.721  0.00  0.00    +0.000 C 
BRANCH   7  10
ATOM     10  C   UNL     1      -1.156  11.439  21.722  0.00  0.00    +0.000 C 
BRANCH  10  11
ATOM     11  C   UNL     1      -1.686  12.438  22.728  0.00  0.00    +0.000 A 
ATOM     12  C   UNL     1      -0.927  13.568  23.072  0.00  0.00    +0.000 A 
ATOM     13  C   UNL     1      -1.419  14.511  23.972  0.00  0.00    +0.000 A 
ATOM     14  C   UNL     1      -2.681  14.341  24.535  0.00  0.00    +0.000 A 
ATOM     15  C   UNL     1      -3.445  13.220  24.207  0.00  0.00    +0.000 A 
ATOM     16  C   UNL     1      -2.951  12.273  23.311  0.00  0.00    +0.000 A 
ENDBRANCH  10  11
ENDBRANCH   7  10
ENDBRANCH   3   4
ENDBRANCH   2   3
BRANCH   2  17
ATOM     17  C   UNL     1       2.635   5.716  19.029  0.00  0.00    +0.000 C 
BRANCH  17  18
ATOM     18  C   UNL     1       4.048   5.341  18.566  0.00  0.00    +0.000 A 
ATOM     19  C   UNL     1       4.261   4.712  17.327  0.00  0.00    +0.000 A 
ATOM     20  C   UNL     1       5.552   4.384  16.899  0.00  0.00    +0.000 A 
ATOM     21  C   UNL     1       6.653   4.676  17.700  0.00  0.00    +0.000 A 
ATOM     22  C   UNL     1       6.465   5.311  18.923  0.00  0.00    +0.000 A 
ATOM     23  C   UNL     1       5.178   5.648  19.346  0.00  0.00    +0.000 A 
ENDBRANCH  17  18
BRANCH  17  24
ATOM     24  C   UNL     1       2.309   4.919  20.302  0.00  0.00    +0.000 C 
ATOM     25  C   UNL     1       0.900   4.276  20.477  0.00  0.00    +0.000 C 
ATOM     26  C   UNL     1       1.600   3.076  21.151  0.00  0.00    +0.000 C 
ATOM     27  C   UNL     1       2.874   3.466  20.384  0.00  0.00    +0.000 C 
ENDBRANCH  17  24
BRANCH  17  28
ATOM     28  O   UNL     1       1.686   5.305  18.013  0.00  0.00    +0.000 OA
ATOM     29  H   UNL     1       0.929   4.928  18.509  0.00  0.00    +0.000 HD
ENDBRANCH  17  28
ENDBRANCH   2  17
TORSDOF 8
ENDMDL
MODEL 2
REMARK VINA RESULT:      -7.3      4.403      9.512
REMARK  Name = 
REMARK  8 active torsions:
REMARK  status: ('A' for Active; 'I' for Inactive)
REMARK    1  A    between atoms: C_2  and  C_3
REMARK    2  A    between atoms: C_2  and  C_17
REMARK    3  A    between atoms: C_3  and  N_4
REMARK    4  A    between atoms: N_7  and  C_8
REMARK    5  A    between atoms: C_8  and  C_9
REMARK    6  A    between atoms: C_17  and  O_18
REMARK    7  A    between atoms: C_17  and  C_19
REMARK    8  A    between atoms: C_17  and  C_25
REMARK                            x       y       z     vdW  Elec       q    Type
REMARK                         _______ _______ _______ _____ _____    ______ ____
ROOT
ATOM      1  O   UNL     1       4.050   3.232  20.249  0.00  0.00    +0.000 OA
ATOM      2  C   UNL     1       3.834   4.425  19.976  0.00  0.00    +0.000 C 
ENDROOT
BRANCH   2   3
ATOM      3  C   UNL     1       4.957   5.322  19.461  0.00  0.00    +0.000 C 
BRANCH   3   4
ATOM      4  N   UNL     1       5.969   4.613  18.647  0.00  0.00    +0.000 NA
ATOM      5  C   UNL     1       5.453   4.093  17.353  0.00  0.00    +0.000 C 
ATOM      6  C   UNL     1       5.236   5.146  16.231  0.00  0.00    +0.000 C 
ATOM      7  N   UNL     1       6.410   6.017  15.973  0.00  0.00    +0.000 NA
ATOM      8  C   UNL     1       6.842   6.583  17.265  0.00  0.00    +0.000 C 
ATOM      9  C   UNL     1       7.109   5.524  18.363  0.00  0.00    +0.000 C 
BRANCH   7  10
ATOM     10  C   UNL     1       7.472   5.245  15.294  0.00  0.00    +0.000 C 
BRANCH  10  11
ATOM     11  C   UNL     1       7.109   4.730  13.917  0.00  0.00    +0.000 A 
ATOM     12  C   UNL     1       7.808   5.179  12.785  0.00  0.00    +0.000 A 
ATOM     13  C   UNL     1       7.504   4.686  11.518  0.00  0.00    +0.000 A 
ATOM     14  C   UNL     1       6.501   3.732  11.365  0.00  0.00    +0.000 A 
ATOM     15  C   UNL     1       5.795   3.280  12.480  0.00  0.00    +0.000 A 
ATOM     16  C   UNL     1       6.094   3.776  13.749  0.00  0.00    +0.000 A 
ENDBRANCH  10  11
ENDBRANCH   7  10
ENDBRANCH   3   4
ENDBRANCH   2   3
BRANCH   2  17
ATOM     17  C   UNL     1       2.394   4.971  20.110  0.00  0.00    +0.000 C 
BRANCH  17  18
ATOM     18  C   UNL     1       2.263   6.381  19.521  0.00  0.00    +0.000 A 
ATOM     19  C   UNL     1       2.563   6.634  18.172  0.00  0.00    +0.000 A 
ATOM     20  C   UNL     1       2.428   7.918  17.633  0.00  0.00    +0.000 A 
ATOM     21  C   UNL     1       1.993   8.972  18.431  0.00  0.00    +0.000 A 
ATOM     22  C   UNL     1       1.676   8.741  19.765  0.00  0.00    +0.000 A 
ATOM     23  C   UNL     1       1.801   7.458  20.302  0.00  0.00    +0.000 A 
ENDBRANCH  17  18
BRANCH  17  24
ATOM     24  C   UNL     1       1.250   4.103  19.562  0.00  0.00    +0.000 C 
ATOM     25  C   UNL     1       1.444   3.308  18.236  0.00  0.00    +0.000 C 
ATOM     26  C   UNL     1       0.618   2.168  18.870  0.00  0.00    +0.000 C 
ATOM     27  C   UNL     1       1.032   2.717  20.246  0.00  0.00    +0.000 C 
ENDBRANCH  17  24
BRANCH  17  28
ATOM     28  O   UNL     1       2.222   5.046  21.547  0.00  0.00    +0.000 OA
ATOM     29  H   UNL     1       1.615   4.310  21.771  0.00  0.00    +0.000 HD
ENDBRANCH  17  28
ENDBRANCH   2  17
TORSDOF 8
ENDMDL
MODEL 3
REMARK VINA RESULT:      -7.2      0.656      1.417
REMARK  Name = 
REMARK  8 active torsions:
REMARK  status: ('A' for Active; 'I' for Inactive)
REMARK    1  A    between atoms: C_2  and  C_3
REMARK    2  A    between atoms: C_2  and  C_17
REMARK    3  A    between atoms: C_3  and  N_4
REMARK    4  A    between atoms: N_7  and  C_8
REMARK    5  A    between atoms: C_8  and  C_9
REMARK    6  A    between atoms: C_17  and  O_18
REMARK    7  A    between atoms: C_17  and  C_19
REMARK    8  A    between atoms: C_17  and  C_25
REMARK                            x       y       z     vdW  Elec       q    Type
REMARK                         _______ _______ _______ _____ _____    ______ ____
ROOT
ATOM      1  O   UNL     1       2.654   7.722  18.339  0.00  0.00    +0.000 OA
ATOM      2  C   UNL     1       2.306   6.957  19.254  0.00  0.00    +0.000 C 
ENDROOT
BRANCH   2   3
ATOM      3  C   UNL     1       1.523   7.482  20.455  0.00  0.00    +0.000 C 
BRANCH   3   4
ATOM      4  N   UNL     1       1.759   8.914  20.748  0.00  0.00    +0.000 NA
ATOM      5  C   UNL     1       0.925   9.844  19.942  0.00  0.00    +0.000 C 
ATOM      6  C   UNL     1      -0.565   9.966  20.363  0.00  0.00    +0.000 C 
ATOM      7  N   UNL     1      -0.773  10.251  21.805  0.00  0.00    +0.000 NA
ATOM      8  C   UNL     1      -0.002   9.257  22.575  0.00  0.00    +0.000 C 
ATOM      9  C   UNL     1       1.496   9.179  22.188  0.00  0.00    +0.000 C 
BRANCH   7  10
ATOM     10  C   UNL     1      -0.386  11.645  22.106  0.00  0.00    +0.000 C 
BRANCH  10  11
ATOM     11  C   UNL     1      -1.401  12.433  22.907  0.00  0.00    +0.000 A 
ATOM     12  C   UNL     1      -1.102  13.733  23.345  0.00  0.00    +0.000 A 
ATOM     13  C   UNL     1      -2.042  14.479  24.054  0.00  0.00    +0.000 A 
ATOM     14  C   UNL     1      -3.296  13.938  24.327  0.00  0.00    +0.000 A 
ATOM     15  C   UNL     1      -3.605  12.646  23.902  0.00  0.00    +0.000 A 
ATOM     16  C   UNL     1      -2.664  11.896  23.198  0.00  0.00    +0.000 A 
ENDBRANCH  10  11
ENDBRANCH   7  10
ENDBRANCH   3   4
ENDBRANCH   2   3
BRANCH   2  17
ATOM     17  C   UNL     1       2.627   5.450  19.128  0.00  0.00    +0.000 C 
BRANCH  17  18
ATOM     18  C   UNL     1       4.022   5.212  18.538  0.00  0.00    +0.000 A 
ATOM     19  C   UNL     1       5.180   5.422  19.308  0.00  0.00    +0.000 A 
ATOM     20  C   UNL     1       6.452   5.190  18.774  0.00  0.00    +0.000 A 
ATOM     21  C   UNL     1       6.591   4.745  17.462  0.00  0.00    +0.000 A 
ATOM     22  C   UNL     1       5.459   4.518  16.687  0.00  0.00    +0.000 A 
ATOM     23  C   UNL     1       4.189   4.740  17.223  0.00  0.00    +0.000 A 
ENDBRANCH  17  18
BRANCH  17  24
ATOM     24  C   UNL     1       2.472   4.581  20.386  0.00  0.00    +0.000 C 
ATOM     25  C   UNL     1       1.093   3.940  20.723  0.00  0.00    +0.000 C 
ATOM     26  C   UNL     1       1.862   2.697  21.221  0.00  0.00    +0.000 C 
ATOM     27  C   UNL     1       3.020   3.122  20.304  0.00  0.00    +0.000 C 
ENDBRANCH  17  24
BRANCH  17  28
ATOM     28  O   UNL     1       1.634   4.999  18.173  0.00  0.00    +0.000 OA
ATOM     29  H   UNL     1       0.815   5.485  18.408  0.00  0.00    +0.000 HD
ENDBRANCH  17  28
ENDBRANCH   2  17
TORSDOF 8
ENDMDL
MODEL 4
REMARK VINA RESULT:      -7.1      1.127      3.225
REMARK  Name = 
REMARK  8 active torsions:
REMARK  status: ('A' for Active; 'I' for Inactive)
REMARK    1  A    between atoms: C_2  and  C_3
REMARK    2  A    between atoms: C_2  and  C_17
REMARK    3  A    between atoms: C_3  and  N_4
REMARK    4  A    between atoms: N_7  and  C_8
REMARK    5  A    between atoms: C_8  and  C_9
REMARK    6  A    between atoms: C_17  and  O_18
REMARK    7  A    between atoms: C_17  and  C_19
REMARK    8  A    between atoms: C_17  and  C_25
REMARK                            x       y       z     vdW  Elec       q    Type
REMARK                         _______ _______ _______ _____ _____    ______ ____
ROOT
ATOM      1  O   UNL     1       1.893   7.865  17.695  0.00  0.00    +0.000 OA
ATOM      2  C   UNL     1       2.306   7.446  18.789  0.00  0.00    +0.000 C 
ENDROOT
BRANCH   2   3
ATOM      3  C   UNL     1       1.941   8.162  20.088  0.00  0.00    +0.000 C 
BRANCH   3   4
ATOM      4  N   UNL     1       0.515   8.549  20.182  0.00  0.00    +0.000 NA
ATOM      5  C   UNL     1      -0.047   8.467  21.555  0.00  0.00    +0.000 C 
ATOM      6  C   UNL     1       0.363   9.604  22.531  0.00  0.00    +0.000 C 
ATOM      7  N   UNL     1       0.152  10.974  21.999  0.00  0.00    +0.000 NA
ATOM      8  C   UNL     1       0.796  11.045  20.674  0.00  0.00    +0.000 C 
ATOM      9  C   UNL     1       0.342   9.941  19.688  0.00  0.00    +0.000 C 
BRANCH   7  10
ATOM     10  C   UNL     1      -1.293  11.283  21.959  0.00  0.00    +0.000 C 
BRANCH  10  11
ATOM     11  C   UNL     1      -1.723  12.447  22.827  0.00  0.00    +0.000 A 
ATOM     12  C   UNL     1      -2.988  12.447  23.435  0.00  0.00    +0.000 A 
ATOM     13  C   UNL     1      -3.381  13.497  24.263  0.00  0.00    +0.000 A 
ATOM     14  C   UNL     1      -2.511  14.558  24.499  0.00  0.00    +0.000 A 
ATOM     15  C   UNL     1      -1.253  14.574  23.897  0.00  0.00    +0.000 A 
ATOM     16  C   UNL     1      -0.860  13.527  23.064  0.00  0.00    +0.000 A 
ENDBRANCH  10  11
ENDBRANCH   7  10
ENDBRANCH   3   4
ENDBRANCH   2   3
BRANCH   2  17
ATOM     17  C   UNL     1       3.146   6.149  18.821  0.00  0.00    +0.000 C 
BRANCH  17  18
ATOM     18  C   UNL     1       2.282   4.917  19.119  0.00  0.00    +0.000 A 
ATOM     19  C   UNL     1       1.889   4.609  20.433  0.00  0.00    +0.000 A 
ATOM     20  C   UNL     1       1.089   3.493  20.702  0.00  0.00    +0.000 A 
ATOM     21  C   UNL     1       0.667   2.666  19.665  0.00  0.00    +0.000 A 
ATOM     22  C   UNL     1       1.032   2.961  18.356  0.00  0.00    +0.000 A 
ATOM     23  C   UNL     1       1.823   4.079  18.086  0.00  0.00    +0.000 A 
ENDBRANCH  17  18
BRANCH  17  24
ATOM     24  C   UNL     1       4.030   5.843  17.602  0.00  0.00    +0.000 C 
ATOM     25  C   UNL     1       5.018   6.923  17.068  0.00  0.00    +0.000 C 
ATOM     26  C   UNL     1       6.013   5.779  16.774  0.00  0.00    +0.000 C 
ATOM     27  C   UNL     1       5.289   4.956  17.852  0.00  0.00    +0.000 C 
ENDBRANCH  17  24
BRANCH  17  28
ATOM     28  O   UNL     1       4.033   6.380  19.944  0.00  0.00    +0.000 OA
ATOM     29  H   UNL     1       4.242   7.338  19.912  0.00  0.00    +0.000 HD
ENDBRANCH  17  28
ENDBRANCH   2  17
TORSDOF 8
ENDMDL
MODEL 5
REMARK VINA RESULT:      -7.1      4.354      9.686
REMARK  Name = 
REMARK  8 active torsions:
REMARK  status: ('A' for Active; 'I' for Inactive)
REMARK    1  A    between atoms: C_2  and  C_3
REMARK    2  A    between atoms: C_2  and  C_17
REMARK    3  A    between atoms: C_3  and  N_4
REMARK    4  A    between atoms: N_7  and  C_8
REMARK    5  A    between atoms: C_8  and  C_9
REMARK    6  A    between atoms: C_17  and  O_18
REMARK    7  A    between atoms: C_17  and  C_19
REMARK    8  A    between atoms: C_17  and  C_25
REMARK                            x       y       z     vdW  Elec       q    Type
REMARK                         _______ _______ _______ _____ _____    ______ ____
ROOT
ATOM      1  O   UNL     1       4.264   3.462  20.104  0.00  0.00    +0.000 OA
ATOM      2  C   UNL     1       3.959   4.617  19.763  0.00  0.00    +0.000 C 
ENDROOT
BRANCH   2   3
ATOM      3  C   UNL     1       4.994   5.539  19.122  0.00  0.00    +0.000 C 
BRANCH   3   4
ATOM      4  N   UNL     1       5.988   4.836  18.280  0.00  0.00    +0.000 NA
ATOM      5  C   UNL     1       5.390   3.960  17.238  0.00  0.00    +0.000 C 
ATOM      6  C   UNL     1       4.796   4.680  15.997  0.00  0.00    +0.000 C 
ATOM      7  N   UNL     1       5.717   5.647  15.350  0.00  0.00    +0.000 NA
ATOM      8  C   UNL     1       6.224   6.555  16.397  0.00  0.00    +0.000 C 
ATOM      9  C   UNL     1       6.865   5.831  17.607  0.00  0.00    +0.000 C 
BRANCH   7  10
ATOM     10  C   UNL     1       6.793   4.923  14.640  0.00  0.00    +0.000 C 
BRANCH  10  11
ATOM     11  C   UNL     1       6.336   4.098  13.456  0.00  0.00    +0.000 A 
ATOM     12  C   UNL     1       4.968   3.959  13.175  0.00  0.00    +0.000 A 
ATOM     13  C   UNL     1       4.538   3.230  12.068  0.00  0.00    +0.000 A 
ATOM     14  C   UNL     1       5.471   2.636  11.222  0.00  0.00    +0.000 A 
ATOM     15  C   UNL     1       6.834   2.762  11.492  0.00  0.00    +0.000 A 
ATOM     16  C   UNL     1       7.266   3.486  12.602  0.00  0.00    +0.000 A 
ENDBRANCH  10  11
ENDBRANCH   7  10
ENDBRANCH   3   4
ENDBRANCH   2   3
BRANCH   2  17
ATOM     17  C   UNL     1       2.497   5.085  19.942  0.00  0.00    +0.000 C 
BRANCH  17  18
ATOM     18  C   UNL     1       2.290   6.515  19.428  0.00  0.00    +0.000 A 
ATOM     19  C   UNL     1       1.804   7.526  20.275  0.00  0.00    +0.000 A 
ATOM     20  C   UNL     1       1.630   8.834  19.809  0.00  0.00    +0.000 A 
ATOM     21  C   UNL     1       1.936   9.155  18.490  0.00  0.00    +0.000 A 
ATOM     22  C   UNL     1       2.431   8.173  17.638  0.00  0.00    +0.000 A 
ATOM     23  C   UNL     1       2.615   6.870  18.105  0.00  0.00    +0.000 A 
ENDBRANCH  17  18
BRANCH  17  24
ATOM     24  C   UNL     1       1.388   4.192  19.365  0.00  0.00    +0.000 C 
ATOM     25  C   UNL     1       1.688   3.270  18.144  0.00  0.00    +0.000 C 
ATOM     26  C   UNL     1       0.770   2.213  18.796  0.00  0.00    +0.000 C 
ATOM     27  C   UNL     1       1.063   2.882  20.149  0.00  0.00    +0.000 C 
ENDBRANCH  17  24
BRANCH  17  28
ATOM     28  O   UNL     1       2.343   5.080  21.383  0.00  0.00    +0.000 OA
ATOM     29  H   UNL     1       1.563   5.647  21.559  0.00  0.00    +0.000 HD
ENDBRANCH  17  28
ENDBRANCH   2  17
TORSDOF 8
ENDMDL
MODEL 6
REMARK VINA RESULT:      -7.0      0.758      1.454
REMARK  Name = 
REMARK  8 active torsions:
REMARK  status: ('A' for Active; 'I' for Inactive)
REMARK    1  A    between atoms: C_2  and  C_3
REMARK    2  A    between atoms: C_2  and  C_17
REMARK    3  A    between atoms: C_3  and  N_4
REMARK    4  A    between atoms: N_7  and  C_8
REMARK    5  A    between atoms: C_8  and  C_9
REMARK    6  A    between atoms: C_17  and  O_18
REMARK    7  A    between atoms: C_17  and  C_19
REMARK    8  A    between atoms: C_17  and  C_25
REMARK                            x       y       z     vdW  Elec       q    Type
REMARK                         _______ _______ _______ _____ _____    ______ ____
ROOT
ATOM      1  O   UNL     1       2.938   7.582  18.307  0.00  0.00    +0.000 OA
ATOM      2  C   UNL     1       2.409   6.829  19.142  0.00  0.00    +0.000 C 
ENDROOT
BRANCH   2   3
ATOM      3  C   UNL     1       1.413   7.373  20.164  0.00  0.00    +0.000 C 
BRANCH   3   4
ATOM      4  N   UNL     1       1.721   8.743  20.633  0.00  0.00    +0.000 NA
ATOM      5  C   UNL     1       1.059   9.817  19.846  0.00  0.00    +0.000 C 
ATOM      6  C   UNL     1      -0.457  10.026  20.115  0.00  0.00    +0.000 C 
ATOM      7  N   UNL     1      -0.809  10.185  21.548  0.00  0.00    +0.000 NA
ATOM      8  C   UNL     1      -0.209   9.057  22.285  0.00  0.00    +0.000 C 
ATOM      9  C   UNL     1       1.313   8.887  22.056  0.00  0.00    +0.000 C 
BRANCH   7  10
ATOM     10  C   UNL     1      -0.355  11.504  22.037  0.00  0.00    +0.000 C 
BRANCH  10  11
ATOM     11  C   UNL     1      -1.452  12.400  22.574  0.00  0.00    +0.000 A 
ATOM     12  C   UNL     1      -2.537  11.850  23.273  0.00  0.00    +0.000 A 
ATOM     13  C   UNL     1      -3.534  12.669  23.799  0.00  0.00    +0.000 A 
ATOM     14  C   UNL     1      -3.455  14.050  23.640  0.00  0.00    +0.000 A 
ATOM     15  C   UNL     1      -2.385  14.610  22.943  0.00  0.00    +0.000 A 
ATOM     16  C   UNL     1      -1.389  13.792  22.411  0.00  0.00    +0.000 A 
ENDBRANCH  10  11
ENDBRANCH   7  10
ENDBRANCH   3   4
ENDBRANCH   2   3
BRANCH   2  17
ATOM     17  C   UNL     1       2.730   5.317  19.091  0.00  0.00    +0.000 C 
BRANCH  17  18
ATOM     18  C   UNL     1       4.125   5.050  18.515  0.00  0.00    +0.000 A 
ATOM     19  C   UNL     1       4.289   4.579  17.201  0.00  0.00    +0.000 A 
ATOM     20  C   UNL     1       5.563   4.350  16.671  0.00  0.00    +0.000 A 
ATOM     21  C   UNL     1       6.697   4.586  17.445  0.00  0.00    +0.000 A 
ATOM     22  C   UNL     1       6.559   5.065  18.743  0.00  0.00    +0.000 A 
ATOM     23  C   UNL     1       5.287   5.303  19.269  0.00  0.00    +0.000 A 
ENDBRANCH  17  18
BRANCH  17  24
ATOM     24  C   UNL     1       2.574   4.512  20.391  0.00  0.00    +0.000 C 
ATOM     25  C   UNL     1       1.190   3.899  20.764  0.00  0.00    +0.000 C 
ATOM     26  C   UNL     1       1.952   2.675  21.319  0.00  0.00    +0.000 C 
ATOM     27  C   UNL     1       3.109   3.047  20.377  0.00  0.00    +0.000 C 
ENDBRANCH  17  24
BRANCH  17  28
ATOM     28  O   UNL     1       1.737   4.820  18.159  0.00  0.00    +0.000 OA
ATOM     29  H   UNL     1       0.883   4.887  18.636  0.00  0.00    +0.000 HD
ENDBRANCH  17  28
ENDBRANCH   2  17
TORSDOF 8
ENDMDL
MODEL 7
REMARK VINA RESULT:      -6.9      1.166      1.904
REMARK  Name = 
REMARK  8 active torsions:
REMARK  status: ('A' for Active; 'I' for Inactive)
REMARK    1  A    between atoms: C_2  and  C_3
REMARK    2  A    between atoms: C_2  and  C_17
REMARK    3  A    between atoms: C_3  and  N_4
REMARK    4  A    between atoms: N_7  and  C_8
REMARK    5  A    between atoms: C_8  and  C_9
REMARK    6  A    between atoms: C_17  and  O_18
REMARK    7  A    between atoms: C_17  and  C_19
REMARK    8  A    between atoms: C_17  and  C_25
REMARK                            x       y       z     vdW  Elec       q    Type
REMARK                         _______ _______ _______ _____ _____    ______ ____
ROOT
ATOM      1  O   UNL     1       1.958   5.617  20.962  0.00  0.00    +0.000 OA
ATOM      2  C   UNL     1       2.107   6.495  20.095  0.00  0.00    +0.000 C 
ENDROOT
BRANCH   2   3
ATOM      3  C   UNL     1       1.963   7.973  20.448  0.00  0.00    +0.000 C 
BRANCH   3   4
ATOM      4  N   UNL     1       0.584   8.493  20.309  0.00  0.00    +0.000 NA
ATOM      5  C   UNL     1      -0.189   8.512  21.579  0.00  0.00    +0.000 C 
ATOM      6  C   UNL     1       0.173   9.639  22.584  0.00  0.00    +0.000 C 
ATOM      7  N   UNL     1       0.181  11.003  21.999  0.00  0.00    +0.000 NA
ATOM      8  C   UNL     1       1.027  10.968  20.791  0.00  0.00    +0.000 C 
ATOM      9  C   UNL     1       0.625   9.878  19.767  0.00  0.00    +0.000 C 
BRANCH   7  10
ATOM     10  C   UNL     1      -1.203  11.443  21.726  0.00  0.00    +0.000 C 
BRANCH  10  11
ATOM     11  C   UNL     1      -1.756  12.462  22.701  0.00  0.00    +0.000 A 
ATOM     12  C   UNL     1      -3.020  12.273  23.281  0.00  0.00    +0.000 A 
ATOM     13  C   UNL     1      -3.523  13.187  24.205  0.00  0.00    +0.000 A 
ATOM     14  C   UNL     1      -2.766  14.298  24.567  0.00  0.00    +0.000 A 
ATOM     15  C   UNL     1      -1.510  14.501  23.994  0.00  0.00    +0.000 A 
ATOM     16  C   UNL     1      -1.007  13.591  23.065  0.00  0.00    +0.000 A 
ENDBRANCH  10  11
ENDBRANCH   7  10
ENDBRANCH   3   4
ENDBRANCH   2   3
BRANCH   2  17
ATOM     17  C   UNL     1       2.502   6.067  18.663  0.00  0.00    +0.000 C 
BRANCH  17  18
ATOM     18  C   UNL     1       4.023   6.060  18.470  0.00  0.00    +0.000 A 
ATOM     19  C   UNL     1       4.862   5.354  19.349  0.00  0.00    +0.000 A 
ATOM     20  C   UNL     1       6.249   5.336  19.163  0.00  0.00    +0.000 A 
ATOM     21  C   UNL     1       6.822   6.024  18.096  0.00  0.00    +0.000 A 
ATOM     22  C   UNL     1       6.010   6.717  17.207  0.00  0.00    +0.000 A 
ATOM     23  C   UNL     1       4.625   6.728  17.386  0.00  0.00    +0.000 A 
ENDBRANCH  17  18
BRANCH  17  24
ATOM     24  C   UNL     1       1.935   4.740  18.135  0.00  0.00    +0.000 C 
ATOM     25  C   UNL     1       2.739   3.913  17.086  0.00  0.00    +0.000 C 
ATOM     26  C   UNL     1       2.251   2.639  17.808  0.00  0.00    +0.000 C 
ATOM     27  C   UNL     1       2.069   3.498  19.070  0.00  0.00    +0.000 C 
ENDBRANCH  17  24
BRANCH  17  28
ATOM     28  O   UNL     1       1.933   7.127  17.854  0.00  0.00    +0.000 OA
ATOM     29  H   UNL     1       2.622   7.338  17.189  0.00  0.00    +0.000 HD
ENDBRANCH  17  28
ENDBRANCH   2  17
TORSDOF 8
ENDMDL
MODEL 8
REMARK VINA RESULT:      -6.9      2.314      5.026
REMARK  Name = 
REMARK  8 active torsions:
REMARK  status: ('A' for Active; 'I' for Inactive)
REMARK    1  A    between atoms: C_2  and  C_3
REMARK    2  A    between atoms: C_2  and  C_17
REMARK    3  A    between atoms: C_3  and  N_4
REMARK    4  A    between atoms: N_7  and  C_8
REMARK    5  A    between atoms: C_8  and  C_9
REMARK    6  A    between atoms: C_17  and  O_18
REMARK    7  A    between atoms: C_17  and  C_19
REMARK    8  A    between atoms: C_17  and  C_25
REMARK                            x       y       z     vdW  Elec       q    Type
REMARK                         _______ _______ _______ _____ _____    ______ ____
ROOT
ATOM      1  O   UNL     1       4.647   3.118  16.903  0.00  0.00    +0.000 OA
ATOM      2  C   UNL     1       4.557   4.354  16.818  0.00  0.00    +0.000 C 
ENDROOT
BRANCH   2   3
ATOM      3  C   UNL     1       3.387   5.098  17.458  0.00  0.00    +0.000 C 
BRANCH   3   4
ATOM      4  N   UNL     1       3.795   6.169  18.394  0.00  0.00    +0.000 NA
ATOM      5  C   UNL     1       3.228   7.505  18.071  0.00  0.00    +0.000 C 
ATOM      6  C   UNL     1       1.730   7.716  18.424  0.00  0.00    +0.000 C 
ATOM      7  N   UNL     1       1.374   7.361  19.821  0.00  0.00    +0.000 NA
ATOM      8  C   UNL     1       1.875   5.997  20.079  0.00  0.00    +0.000 C 
ATOM      9  C   UNL     1       3.382   5.808  19.776  0.00  0.00    +0.000 C 
BRANCH   7  10
ATOM     10  C   UNL     1       1.923   8.366  20.754  0.00  0.00    +0.000 C 
BRANCH  10  11
ATOM     11  C   UNL     1       0.904   9.323  21.337  0.00  0.00    +0.000 A 
ATOM     12  C   UNL     1       0.340  10.330  20.539  0.00  0.00    +0.000 A 
ATOM     13  C   UNL     1      -0.623  11.194  21.056  0.00  0.00    +0.000 A 
ATOM     14  C   UNL     1      -1.041  11.058  22.378  0.00  0.00    +0.000 A 
ATOM     15  C   UNL     1      -0.485  10.064  23.185  0.00  0.00    +0.000 A 
ATOM     16  C   UNL     1       0.483   9.202  22.670  0.00  0.00    +0.000 A 
ENDBRANCH  10  11
ENDBRANCH   7  10
ENDBRANCH   3   4
ENDBRANCH   2   3
BRANCH   2  17
ATOM     17  C   UNL     1       5.684   5.135  16.104  0.00  0.00    +0.000 C 
BRANCH  17  18
ATOM     18  C   UNL     1       6.645   5.790  17.103  0.00  0.00    +0.000 A 
ATOM     19  C   UNL     1       6.989   7.149  16.993  0.00  0.00    +0.000 A 
ATOM     20  C   UNL     1       7.854   7.749  17.914  0.00  0.00    +0.000 A 
ATOM     21  C   UNL     1       8.392   7.005  18.961  0.00  0.00    +0.000 A 
ATOM     22  C   UNL     1       8.053   5.663  19.096  0.00  0.00    +0.000 A 
ATOM     23  C   UNL     1       7.182   5.065  18.183  0.00  0.00    +0.000 A 
ENDBRANCH  17  18
BRANCH  17  24
ATOM     24  C   UNL     1       6.512   4.385  15.049  0.00  0.00    +0.000 C 
ATOM     25  C   UNL     1       5.818   3.821  13.772  0.00  0.00    +0.000 C 
ATOM     26  C   UNL     1       7.086   4.214  12.984  0.00  0.00    +0.000 C 
ATOM     27  C   UNL     1       7.369   5.257  14.078  0.00  0.00    +0.000 C 
ENDBRANCH  17  24
BRANCH  17  28
ATOM     28  O   UNL     1       4.951   6.175  15.410  0.00  0.00    +0.000 OA
ATOM     29  H   UNL     1       4.451   6.646  16.110  0.00  0.00    +0.000 HD
ENDBRANCH  17  28
ENDBRANCH   2  17
TORSDOF 8
ENDMDL
MODEL 9
REMARK VINA RESULT:      -6.9      1.499      3.317
REMARK  Name = 
REMARK  8 active torsions:
REMARK  status: ('A' for Active; 'I' for Inactive)
REMARK    1  A    between atoms: C_2  and  C_3
REMARK    2  A    between atoms: C_2  and  C_17
REMARK    3  A    between atoms: C_3  and  N_4
REMARK    4  A    between atoms: N_7  and  C_8
REMARK    5  A    between atoms: C_8  and  C_9
REMARK    6  A    between atoms: C_17  and  O_18
REMARK    7  A    between atoms: C_17  and  C_19
REMARK    8  A    between atoms: C_17  and  C_25
REMARK                            x       y       z     vdW  Elec       q    Type
REMARK                         _______ _______ _______ _____ _____    ______ ____
ROOT
ATOM      1  O   UNL     1       3.025   7.817  17.612  0.00  0.00    +0.000 OA
ATOM      2  C   UNL     1       2.762   7.008  18.518  0.00  0.00    +0.000 C 
ENDROOT
BRANCH   2   3
ATOM      3  C   UNL     1       1.722   7.343  19.585  0.00  0.00    +0.000 C 
BRANCH   3   4
ATOM      4  N   UNL     1       1.873   8.695  20.168  0.00  0.00    +0.000 NA
ATOM      5  C   UNL     1       1.220   9.773  19.380  0.00  0.00    +0.000 C 
ATOM      6  C   UNL     1      -0.327   9.859  19.489  0.00  0.00    +0.000 C 
ATOM      7  N   UNL     1      -0.842   9.893  20.881  0.00  0.00    +0.000 NA
ATOM      8  C   UNL     1      -0.241   8.760  21.610  0.00  0.00    +0.000 C 
ATOM      9  C   UNL     1       1.305   8.712  21.543  0.00  0.00    +0.000 C 
BRANCH   7  10
ATOM     10  C   UNL     1      -0.545  11.203  21.497  0.00  0.00    +0.000 C 
BRANCH  10  11
ATOM     11  C   UNL     1      -1.758  11.989  21.949  0.00  0.00    +0.000 A 
ATOM     12  C   UNL     1      -2.258  11.833  23.251  0.00  0.00    +0.000 A 
ATOM     13  C   UNL     1      -3.353  12.576  23.687  0.00  0.00    +0.000 A 
ATOM     14  C   UNL     1      -3.959  13.490  22.829  0.00  0.00    +0.000 A 
ATOM     15  C   UNL     1      -3.476  13.652  21.531  0.00  0.00    +0.000 A 
ATOM     16  C   UNL     1      -2.383  12.905  21.091  0.00  0.00    +0.000 A 
ENDBRANCH  10  11
ENDBRANCH   7  10
ENDBRANCH   3   4
ENDBRANCH   2   3
BRANCH   2  17
ATOM     17  C   UNL     1       3.460   5.629  18.511  0.00  0.00    +0.000 C 
BRANCH  17  18
ATOM     18  C   UNL     1       2.634   4.568  19.250  0.00  0.00    +0.000 A 
ATOM     19  C   UNL     1       1.545   3.934  18.627  0.00  0.00    +0.000 A 
ATOM     20  C   UNL     1       0.802   2.956  19.297  0.00  0.00    +0.000 A 
ATOM     21  C   UNL     1       1.132   2.595  20.600  0.00  0.00    +0.000 A 
ATOM     22  C   UNL     1       2.215   3.199  21.230  0.00  0.00    +0.000 A 
ATOM     23  C   UNL     1       2.963   4.169  20.559  0.00  0.00    +0.000 A 
ENDBRANCH  17  18
BRANCH  17  24
ATOM     24  C   UNL     1       3.890   5.055  17.151  0.00  0.00    +0.000 C 
ATOM     25  C   UNL     1       5.171   5.597  16.449  0.00  0.00    +0.000 C 
ATOM     26  C   UNL     1       5.449   4.153  15.979  0.00  0.00    +0.000 C 
ATOM     27  C   UNL     1       4.605   3.668  17.169  0.00  0.00    +0.000 C 
ENDBRANCH  17  24
BRANCH  17  28
ATOM     28  O   UNL     1       4.670   5.889  19.266  0.00  0.00    +0.000 OA
ATOM     29  H   UNL     1       4.400   5.833  20.207  0.00  0.00    +0.000 HD
ENDBRANCH  17  28
ENDBRANCH   2  17
TORSDOF 8
ENDMDL
