MODEL 1
REMARK VINA RESULT:      -7.8      0.000      0.000
REMARK  Name = 
REMARK  7 active torsions:
REMARK  status: ('A' for Active; 'I' for Inactive)
REMARK    1  A    between atoms: C_1  and  N_2
REMARK    2  A    between atoms: C_6  and  C_7
REMARK    3  A    between atoms: C_7  and  O_8
REMARK    4  A    between atoms: O_8  and  C_9
REMARK    5  A    between atoms: C_11  and  O_12
REMARK    6  A    between atoms: C_14  and  C_15
REMARK    7  A    between atoms: C_18  and  O_19
REMARK                            x       y       z     vdW  Elec       q    Type
REMARK                         _______ _______ _______ _____ _____    ______ ____
ROOT
ATOM      1  C   UNL     1       2.963   4.292  17.272  0.00  0.00    +0.000 A 
ATOM      2  C   UNL     1       4.300   4.469  16.904  0.00  0.00    +0.000 A 
ATOM      3  C   UNL     1       4.918   5.691  17.110  0.00  0.00    +0.000 A 
ATOM      4  C   UNL     1       4.229   6.749  17.686  0.00  0.00    +0.000 A 
ATOM      5  C   UNL     1       2.877   6.625  18.054  0.00  0.00    +0.000 A 
ATOM      6  C   UNL     1       2.259   5.375  17.826  0.00  0.00    +0.000 A 
ENDROOT
BRANCH   5   7
ATOM      7  C   UNL     1       2.164   7.770  18.679  0.00  0.00    +0.000 A 
ATOM      8  C   UNL     1       1.821   8.917  17.930  0.00  0.00    +0.000 A 
ATOM      9  C   UNL     1       1.211  10.031  18.520  0.00  0.00    +0.000 A 
ATOM     10  C   UNL     1       0.915  10.008  19.874  0.00  0.00    +0.000 A 
ATOM     11  C   UNL     1       1.218   8.891  20.639  0.00  0.00    +0.000 A 
ATOM     12  C   UNL     1       1.841   7.785  20.047  0.00  0.00    +0.000 A 
BRANCH  10  13
ATOM     13  O   UNL     1       0.328  11.070  20.492  0.00  0.00    +0.000 OA
ATOM     14  H   UNL     1       0.158  11.759  19.829  0.00  0.00    +0.000 HD
ENDBRANCH  10  13
ENDBRANCH   5   7
BRANCH   3  15
ATOM     15  O   UNL     1       6.223   5.886  16.765  0.00  0.00    +0.000 OA
ATOM     16  H   UNL     1       6.510   6.749  17.109  0.00  0.00    +0.000 HD
ENDBRANCH   3  15
BRANCH   1  17
ATOM     17  O   UNL     1       2.265   3.113  17.136  0.00  0.00    +0.000 OA
BRANCH  17  18
ATOM     18  C   UNL     1       2.851   1.999  17.824  0.00  0.00    +0.000 C 
BRANCH  18  24
ATOM     19  C   UNL     1       4.558   2.079  20.442  0.00  0.00    +0.000 C 
ATOM     20  N   UNL     1       3.254   2.681  20.195  0.00  0.00    +0.000 NA
ATOM     21  C   UNL     1       2.475   2.817  21.425  0.00  0.00    +0.000 C 
ATOM     22  C   UNL     1       1.082   3.139  20.910  0.00  0.00    +0.000 C 
ATOM     23  C   UNL     1       1.015   2.521  19.514  0.00  0.00    +0.000 C 
ATOM     24  C   UNL     1       2.394   1.897  19.283  0.00  0.00    +0.000 C 
ENDBRANCH  18  24
ENDBRANCH  17  18
ENDBRANCH   1  17
TORSDOF 6
ENDMDL
MODEL 2
REMARK VINA RESULT:      -7.7      0.331      1.075
REMARK  Name = 
REMARK  7 active torsions:
REMARK  status: ('A' for Active; 'I' for Inactive)
REMARK    1  A    between atoms: C_1  and  N_2
REMARK    2  A    between atoms: C_6  and  C_7
REMARK    3  A    between atoms: C_7  and  O_8
REMARK    4  A    between atoms: O_8  and  C_9
REMARK    5  A    between atoms: C_11  and  O_12
REMARK    6  A    between atoms: C_14  and  C_15
REMARK    7  A    between atoms: C_18  and  O_19
REMARK                            x       y       z     vdW  Elec       q    Type
REMARK                         _______ _______ _______ _____ _____    ______ ____
ROOT
ATOM      1  C   UNL     1       3.268   4.324  17.129  0.00  0.00    +0.000 A 
ATOM      2  C   UNL     1       4.524   4.615  16.589  0.00  0.00    +0.000 A 
ATOM      3  C   UNL     1       5.054   5.888  16.719  0.00  0.00    +0.000 A 
ATOM      4  C   UNL     1       4.356   6.885  17.385  0.00  0.00    +0.000 A 
ATOM      5  C   UNL     1       3.080   6.646  17.926  0.00  0.00    +0.000 A 
ATOM      6  C   UNL     1       2.550   5.345  17.775  0.00  0.00    +0.000 A 
ENDROOT
BRANCH   5   7
ATOM      7  C   UNL     1       2.357   7.728  18.644  0.00  0.00    +0.000 A 
ATOM      8  C   UNL     1       1.975   7.585  19.995  0.00  0.00    +0.000 A 
ATOM      9  C   UNL     1       1.234   8.567  20.664  0.00  0.00    +0.000 A 
ATOM     10  C   UNL     1       0.878   9.726  19.991  0.00  0.00    +0.000 A 
ATOM     11  C   UNL     1       1.254   9.914  18.670  0.00  0.00    +0.000 A 
ATOM     12  C   UNL     1       1.983   8.922  18.001  0.00  0.00    +0.000 A 
BRANCH  10  13
ATOM     13  O   UNL     1       0.153  10.706  20.599  0.00  0.00    +0.000 OA
ATOM     14  H   UNL     1      -0.790  10.493  20.513  0.00  0.00    +0.000 HD
ENDBRANCH  10  13
ENDBRANCH   5   7
BRANCH   3  15
ATOM     15  O   UNL     1       6.281   6.194  16.207  0.00  0.00    +0.000 OA
ATOM     16  H   UNL     1       6.566   5.470  15.626  0.00  0.00    +0.000 HD
ENDBRANCH   3  15
BRANCH   1  17
ATOM     17  O   UNL     1       2.664   3.087  17.079  0.00  0.00    +0.000 OA
BRANCH  17  18
ATOM     18  C   UNL     1       3.299   2.090  17.891  0.00  0.00    +0.000 C 
BRANCH  18  24
ATOM     19  C   UNL     1       4.583   2.082  20.742  0.00  0.00    +0.000 C 
ATOM     20  N   UNL     1       3.320   2.676  20.321  0.00  0.00    +0.000 NA
ATOM     21  C   UNL     1       2.359   2.751  21.421  0.00  0.00    +0.000 C 
ATOM     22  C   UNL     1       1.056   3.075  20.710  0.00  0.00    +0.000 C 
ATOM     23  C   UNL     1       1.216   2.516  19.297  0.00  0.00    +0.000 C 
ATOM     24  C   UNL     1       2.626   1.920  19.257  0.00  0.00    +0.000 C 
ENDBRANCH  18  24
ENDBRANCH  17  18
ENDBRANCH   1  17
TORSDOF 6
ENDMDL
MODEL 3
REMARK VINA RESULT:      -7.6      2.328      4.542
REMARK  Name = 
REMARK  7 active torsions:
REMARK  status: ('A' for Active; 'I' for Inactive)
REMARK    1  A    between atoms: C_1  and  N_2
REMARK    2  A    between atoms: C_6  and  C_7
REMARK    3  A    between atoms: C_7  and  O_8
REMARK    4  A    between atoms: O_8  and  C_9
REMARK    5  A    between atoms: C_11  and  O_12
REMARK    6  A    between atoms: C_14  and  C_15
REMARK    7  A    between atoms: C_18  and  O_19
REMARK                            x       y       z     vdW  Elec       q    Type
REMARK                         _______ _______ _______ _____ _____    ______ ____
ROOT
ATOM      1  C   UNL     1       4.031   4.130  19.651  0.00  0.00    +0.000 A 
ATOM      2  C   UNL     1       3.145   3.252  20.281  0.00  0.00    +0.000 A 
ATOM      3  C   UNL     1       1.913   3.708  20.717  0.00  0.00    +0.000 A 
ATOM      4  C   UNL     1       1.538   5.031  20.534  0.00  0.00    +0.000 A 
ATOM      5  C   UNL     1       2.404   5.957  19.924  0.00  0.00    +0.000 A 
ATOM      6  C   UNL     1       3.662   5.477  19.495  0.00  0.00    +0.000 A 
ENDROOT
BRANCH   5   7
ATOM      7  C   UNL     1       1.975   7.367  19.730  0.00  0.00    +0.000 A 
ATOM      8  C   UNL     1       1.337   8.088  20.762  0.00  0.00    +0.000 A 
ATOM      9  C   UNL     1       0.866   9.393  20.573  0.00  0.00    +0.000 A 
ATOM     10  C   UNL     1       1.045  10.009  19.343  0.00  0.00    +0.000 A 
ATOM     11  C   UNL     1       1.686   9.341  18.311  0.00  0.00    +0.000 A 
ATOM     12  C   UNL     1       2.142   8.030  18.502  0.00  0.00    +0.000 A 
BRANCH  10  13
ATOM     13  O   UNL     1       0.598  11.275  19.110  0.00  0.00    +0.000 OA
ATOM     14  H   UNL     1       1.209  11.710  18.493  0.00  0.00    +0.000 HD
ENDBRANCH  10  13
ENDBRANCH   5   7
BRANCH   3  15
ATOM     15  O   UNL     1       1.028   2.869  21.328  0.00  0.00    +0.000 OA
ATOM     16  H   UNL     1       1.302   2.747  22.253  0.00  0.00    +0.000 HD
ENDBRANCH   3  15
BRANCH   1  17
ATOM     17  O   UNL     1       5.266   3.772  19.157  0.00  0.00    +0.000 OA
BRANCH  17  18
ATOM     18  C   UNL     1       5.416   3.975  17.745  0.00  0.00    +0.000 C 
BRANCH  18  24
ATOM     19  C   UNL     1       5.239   6.541  15.967  0.00  0.00    +0.000 C 
ATOM     20  N   UNL     1       5.961   6.357  17.220  0.00  0.00    +0.000 NA
ATOM     21  C   UNL     1       7.119   7.245  17.317  0.00  0.00    +0.000 C 
ATOM     22  C   UNL     1       7.887   6.673  18.497  0.00  0.00    +0.000 C 
ATOM     23  C   UNL     1       7.505   5.195  18.548  0.00  0.00    +0.000 C 
ATOM     24  C   UNL     1       6.507   4.996  17.404  0.00  0.00    +0.000 C 
ENDBRANCH  18  24
ENDBRANCH  17  18
ENDBRANCH   1  17
TORSDOF 6
ENDMDL
MODEL 4
REMARK VINA RESULT:      -7.5      2.360      4.485
REMARK  Name = 
REMARK  7 active torsions:
REMARK  status: ('A' for Active; 'I' for Inactive)
REMARK    1  A    between atoms: C_1  and  N_2
REMARK    2  A    between atoms: C_6  and  C_7
REMARK    3  A    between atoms: C_7  and  O_8
REMARK    4  A    between atoms: O_8  and  C_9
REMARK    5  A    between atoms: C_11  and  O_12
REMARK    6  A    between atoms: C_14  and  C_15
REMARK    7  A    between atoms: C_18  and  O_19
REMARK                            x       y       z     vdW  Elec       q    Type
REMARK                         _______ _______ _______ _____ _____    ______ ____
ROOT
ATOM      1  C   UNL     1       4.190   3.983  19.667  0.00  0.00    +0.000 A 
ATOM      2  C   UNL     1       3.460   3.142  20.513  0.00  0.00    +0.000 A 
ATOM      3  C   UNL     1       2.293   3.597  21.101  0.00  0.00    +0.000 A 
ATOM      4  C   UNL     1       1.828   4.882  20.860  0.00  0.00    +0.000 A 
ATOM      5  C   UNL     1       2.538   5.772  20.033  0.00  0.00    +0.000 A 
ATOM      6  C   UNL     1       3.733   5.294  19.449  0.00  0.00    +0.000 A 
ENDROOT
BRANCH   5   7
ATOM      7  C   UNL     1       2.014   7.139  19.782  0.00  0.00    +0.000 A 
ATOM      8  C   UNL     1       2.193   7.777  18.535  0.00  0.00    +0.000 A 
ATOM      9  C   UNL     1       1.766   9.090  18.306  0.00  0.00    +0.000 A 
ATOM     10  C   UNL     1       1.128   9.785  19.323  0.00  0.00    +0.000 A 
ATOM     11  C   UNL     1       0.914   9.186  20.555  0.00  0.00    +0.000 A 
ATOM     12  C   UNL     1       1.357   7.877  20.783  0.00  0.00    +0.000 A 
BRANCH  10  13
ATOM     13  O   UNL     1       0.700  11.067  19.148  0.00  0.00    +0.000 OA
ATOM     14  H   UNL     1       1.378  11.555  18.653  0.00  0.00    +0.000 HD
ENDBRANCH  10  13
ENDBRANCH   5   7
BRANCH   3  15
ATOM     15  O   UNL     1       1.560   2.793  21.924  0.00  0.00    +0.000 OA
ATOM     16  H   UNL     1       2.142   2.448  22.622  0.00  0.00    +0.000 HD
ENDBRANCH   3  15
BRANCH   1  17
ATOM     17  O   UNL     1       5.346   3.620  19.012  0.00  0.00    +0.000 OA
BRANCH  17  18
ATOM     18  C   UNL     1       5.377   3.990  17.626  0.00  0.00    +0.000 C 
BRANCH  18  24
ATOM     19  C   UNL     1       5.198   6.621  15.946  0.00  0.00    +0.000 C 
ATOM     20  N   UNL     1       5.933   6.386  17.183  0.00  0.00    +0.000 NA
ATOM     21  C   UNL     1       7.098   7.263  17.299  0.00  0.00    +0.000 C 
ATOM     22  C   UNL     1       7.875   6.642  18.448  0.00  0.00    +0.000 C 
ATOM     23  C   UNL     1       7.484   5.166  18.450  0.00  0.00    +0.000 C 
ATOM     24  C   UNL     1       6.471   5.016  17.311  0.00  0.00    +0.000 C 
ENDBRANCH  18  24
ENDBRANCH  17  18
ENDBRANCH   1  17
TORSDOF 6
ENDMDL
MODEL 5
REMARK VINA RESULT:      -7.3      1.358      1.850
REMARK  Name = 
REMARK  7 active torsions:
REMARK  status: ('A' for Active; 'I' for Inactive)
REMARK    1  A    between atoms: C_1  and  N_2
REMARK    2  A    between atoms: C_6  and  C_7
REMARK    3  A    between atoms: C_7  and  O_8
REMARK    4  A    between atoms: O_8  and  C_9
REMARK    5  A    between atoms: C_11  and  O_12
REMARK    6  A    between atoms: C_14  and  C_15
REMARK    7  A    between atoms: C_18  and  O_19
REMARK                            x       y       z     vdW  Elec       q    Type
REMARK                         _______ _______ _______ _____ _____    ______ ____
ROOT
ATOM      1  C   UNL     1       5.156   4.647  18.581  0.00  0.00    +0.000 A 
ATOM      2  C   UNL     1       5.682   4.749  17.290  0.00  0.00    +0.000 A 
ATOM      3  C   UNL     1       5.245   5.753  16.443  0.00  0.00    +0.000 A 
ATOM      4  C   UNL     1       4.291   6.670  16.859  0.00  0.00    +0.000 A 
ATOM      5  C   UNL     1       3.718   6.596  18.142  0.00  0.00    +0.000 A 
ATOM      6  C   UNL     1       4.168   5.558  18.989  0.00  0.00    +0.000 A 
ENDROOT
BRANCH   5   7
ATOM      7  C   UNL     1       2.705   7.597  18.568  0.00  0.00    +0.000 A 
ATOM      8  C   UNL     1       2.308   8.648  17.713  0.00  0.00    +0.000 A 
ATOM      9  C   UNL     1       1.407   9.638  18.125  0.00  0.00    +0.000 A 
ATOM     10  C   UNL     1       0.869   9.579  19.402  0.00  0.00    +0.000 A 
ATOM     11  C   UNL     1       1.217   8.551  20.263  0.00  0.00    +0.000 A 
ATOM     12  C   UNL     1       2.131   7.571  19.851  0.00  0.00    +0.000 A 
BRANCH  10  13
ATOM     13  O   UNL     1      -0.007  10.523  19.848  0.00  0.00    +0.000 OA
ATOM     14  H   UNL     1       0.483  11.344  20.020  0.00  0.00    +0.000 HD
ENDBRANCH  10  13
ENDBRANCH   5   7
BRANCH   3  15
ATOM     15  O   UNL     1       5.747   5.878  15.181  0.00  0.00    +0.000 OA
ATOM     16  H   UNL     1       6.525   5.301  15.097  0.00  0.00    +0.000 HD
ENDBRANCH   3  15
BRANCH   1  17
ATOM     17  O   UNL     1       5.542   3.705  19.509  0.00  0.00    +0.000 OA
BRANCH  17  18
ATOM     18  C   UNL     1       4.583   2.658  19.717  0.00  0.00    +0.000 C 
BRANCH  18  24
ATOM     19  C   UNL     1       2.203   2.573  17.691  0.00  0.00    +0.000 C 
ATOM     20  N   UNL     1       2.169   2.371  19.134  0.00  0.00    +0.000 NA
ATOM     21  C   UNL     1       0.872   2.732  19.704  0.00  0.00    +0.000 C 
ATOM     22  C   UNL     1       1.156   2.766  21.197  0.00  0.00    +0.000 C 
ATOM     23  C   UNL     1       2.645   3.082  21.318  0.00  0.00    +0.000 C 
ATOM     24  C   UNL     1       3.154   3.186  19.878  0.00  0.00    +0.000 C 
ENDBRANCH  18  24
ENDBRANCH  17  18
ENDBRANCH   1  17
TORSDOF 6
ENDMDL
MODEL 6
REMARK VINA RESULT:      -7.3      2.960      5.847
REMARK  Name = 
REMARK  7 active torsions:
REMARK  status: ('A' for Active; 'I' for Inactive)
REMARK    1  A    between atoms: C_1  and  N_2
REMARK    2  A    between atoms: C_6  and  C_7
REMARK    3  A    between atoms: C_7  and  O_8
REMARK    4  A    between atoms: O_8  and  C_9
REMARK    5  A    between atoms: C_11  and  O_12
REMARK    6  A    between atoms: C_14  and  C_15
REMARK    7  A    between atoms: C_18  and  O_19
REMARK                            x       y       z     vdW  Elec       q    Type
REMARK                         _______ _______ _______ _____ _____    ______ ____
ROOT
ATOM      1  C   UNL     1       4.002   5.585  18.405  0.00  0.00    +0.000 A 
ATOM      2  C   UNL     1       4.999   5.585  19.384  0.00  0.00    +0.000 A 
ATOM      3  C   UNL     1       6.313   5.323  19.035  0.00  0.00    +0.000 A 
ATOM      4  C   UNL     1       6.659   5.061  17.717  0.00  0.00    +0.000 A 
ATOM      5  C   UNL     1       5.689   5.029  16.699  0.00  0.00    +0.000 A 
ATOM      6  C   UNL     1       4.352   5.289  17.076  0.00  0.00    +0.000 A 
ENDROOT
BRANCH   5   7
ATOM      7  C   UNL     1       6.088   4.757  15.293  0.00  0.00    +0.000 A 
ATOM      8  C   UNL     1       5.304   3.937  14.454  0.00  0.00    +0.000 A 
ATOM      9  C   UNL     1       5.701   3.616  13.150  0.00  0.00    +0.000 A 
ATOM     10  C   UNL     1       6.889   4.131  12.655  0.00  0.00    +0.000 A 
ATOM     11  C   UNL     1       7.677   4.959  13.441  0.00  0.00    +0.000 A 
ATOM     12  C   UNL     1       7.281   5.265  14.750  0.00  0.00    +0.000 A 
BRANCH  10  13
ATOM     13  O   UNL     1       7.319   3.842  11.395  0.00  0.00    +0.000 OA
ATOM     14  H   UNL     1       7.676   4.652  10.996  0.00  0.00    +0.000 HD
ENDBRANCH  10  13
ENDBRANCH   5   7
BRANCH   3  15
ATOM     15  O   UNL     1       7.304   5.324  19.971  0.00  0.00    +0.000 OA
ATOM     16  H   UNL     1       7.378   6.218  20.346  0.00  0.00    +0.000 HD
ENDBRANCH   3  15
BRANCH   1  17
ATOM     17  O   UNL     1       2.674   5.860  18.641  0.00  0.00    +0.000 OA
BRANCH  17  18
ATOM     18  C   UNL     1       1.762   4.958  17.999  0.00  0.00    +0.000 C 
BRANCH  18  24
ATOM     19  C   UNL     1       2.709   1.978  17.962  0.00  0.00    +0.000 C 
ATOM     20  N   UNL     1       2.438   2.826  19.116  0.00  0.00    +0.000 NA
ATOM     21  C   UNL     1       2.032   2.044  20.283  0.00  0.00    +0.000 C 
ATOM     22  C   UNL     1       1.495   3.104  21.231  0.00  0.00    +0.000 C 
ATOM     23  C   UNL     1       1.023   4.246  20.333  0.00  0.00    +0.000 C 
ATOM     24  C   UNL     1       1.342   3.795  18.905  0.00  0.00    +0.000 C 
ENDBRANCH  18  24
ENDBRANCH  17  18
ENDBRANCH   1  17
TORSDOF 6
ENDMDL
MODEL 7
REMARK VINA RESULT:      -7.3      3.000      5.818
REMARK  Name = 
REMARK  7 active torsions:
REMARK  status: ('A' for Active; 'I' for Inactive)
REMARK    1  A    between atoms: C_1  and  N_2
REMARK    2  A    between atoms: C_6  and  C_7
REMARK    3  A    between atoms: C_7  and  O_8
REMARK    4  A    between atoms: O_8  and  C_9
REMARK    5  A    between atoms: C_11  and  O_12
REMARK    6  A    between atoms: C_14  and  C_15
REMARK    7  A    between atoms: C_18  and  O_19
REMARK                            x       y       z     vdW  Elec       q    Type
REMARK                         _______ _______ _______ _____ _____    ______ ____
ROOT
ATOM      1  C   UNL     1       3.871   5.430  18.245  0.00  0.00    +0.000 A 
ATOM      2  C   UNL     1       4.823   5.500  19.266  0.00  0.00    +0.000 A 
ATOM      3  C   UNL     1       6.162   5.295  18.978  0.00  0.00    +0.000 A 
ATOM      4  C   UNL     1       6.578   5.025  17.682  0.00  0.00    +0.000 A 
ATOM      5  C   UNL     1       5.655   4.924  16.625  0.00  0.00    +0.000 A 
ATOM      6  C   UNL     1       4.292   5.125  16.939  0.00  0.00    +0.000 A 
ENDROOT
BRANCH   5   7
ATOM      7  C   UNL     1       6.127   4.644  15.244  0.00  0.00    +0.000 A 
ATOM      8  C   UNL     1       7.319   5.213  14.747  0.00  0.00    +0.000 A 
ATOM      9  C   UNL     1       7.741   5.014  13.427  0.00  0.00    +0.000 A 
ATOM     10  C   UNL     1       6.981   4.219  12.582  0.00  0.00    +0.000 A 
ATOM     11  C   UNL     1       5.815   3.624  13.040  0.00  0.00    +0.000 A 
ATOM     12  C   UNL     1       5.390   3.839  14.358  0.00  0.00    +0.000 A 
BRANCH  10  13
ATOM     13  O   UNL     1       7.349   4.001  11.289  0.00  0.00    +0.000 OA
ATOM     14  H   UNL     1       6.647   3.495  10.848  0.00  0.00    +0.000 HD
ENDBRANCH  10  13
ENDBRANCH   5   7
BRANCH   3  15
ATOM     15  O   UNL     1       7.110   5.365  19.955  0.00  0.00    +0.000 OA
ATOM     16  H   UNL     1       7.989   5.333  19.540  0.00  0.00    +0.000 HD
ENDBRANCH   3  15
BRANCH   1  17
ATOM     17  O   UNL     1       2.522   5.645  18.419  0.00  0.00    +0.000 OA
BRANCH  17  18
ATOM     18  C   UNL     1       1.693   4.556  17.989  0.00  0.00    +0.000 C 
BRANCH  18  24
ATOM     19  C   UNL     1       2.981   1.749  18.476  0.00  0.00    +0.000 C 
ATOM     20  N   UNL     1       2.622   2.761  19.461  0.00  0.00    +0.000 NA
ATOM     21  C   UNL     1       2.319   2.171  20.764  0.00  0.00    +0.000 C 
ATOM     22  C   UNL     1       1.669   3.321  21.514  0.00  0.00    +0.000 C 
ATOM     23  C   UNL     1       1.060   4.214  20.436  0.00  0.00    +0.000 C 
ATOM     24  C   UNL     1       1.418   3.543  19.107  0.00  0.00    +0.000 C 
ENDBRANCH  18  24
ENDBRANCH  17  18
ENDBRANCH   1  17
TORSDOF 6
ENDMDL
MODEL 8
REMARK VINA RESULT:      -7.3      2.588      6.662
REMARK  Name = 
REMARK  7 active torsions:
REMARK  status: ('A' for Active; 'I' for Inactive)
REMARK    1  A    between atoms: C_1  and  N_2
REMARK    2  A    between atoms: C_6  and  C_7
REMARK    3  A    between atoms: C_7  and  O_8
REMARK    4  A    between atoms: O_8  and  C_9
REMARK    5  A    between atoms: C_11  and  O_12
REMARK    6  A    between atoms: C_14  and  C_15
REMARK    7  A    between atoms: C_18  and  O_19
REMARK                            x       y       z     vdW  Elec       q    Type
REMARK                         _______ _______ _______ _____ _____    ______ ____
ROOT
ATOM      1  C   UNL     1       1.925   5.924  20.206  0.00  0.00    +0.000 A 
ATOM      2  C   UNL     1       1.240   4.710  20.312  0.00  0.00    +0.000 A 
ATOM      3  C   UNL     1       1.628   3.628  19.541  0.00  0.00    +0.000 A 
ATOM      4  C   UNL     1       2.696   3.728  18.661  0.00  0.00    +0.000 A 
ATOM      5  C   UNL     1       3.404   4.934  18.505  0.00  0.00    +0.000 A 
ATOM      6  C   UNL     1       2.987   6.031  19.292  0.00  0.00    +0.000 A 
ENDROOT
BRANCH   5   7
ATOM      7  C   UNL     1       4.551   5.011  17.564  0.00  0.00    +0.000 A 
ATOM      8  C   UNL     1       5.524   6.028  17.675  0.00  0.00    +0.000 A 
ATOM      9  C   UNL     1       6.572   6.155  16.756  0.00  0.00    +0.000 A 
ATOM     10  C   UNL     1       6.675   5.247  15.712  0.00  0.00    +0.000 A 
ATOM     11  C   UNL     1       5.751   4.221  15.581  0.00  0.00    +0.000 A 
ATOM     12  C   UNL     1       4.696   4.108  16.496  0.00  0.00    +0.000 A 
BRANCH  10  13
ATOM     13  O   UNL     1       7.674   5.334  14.790  0.00  0.00    +0.000 OA
ATOM     14  H   UNL     1       7.464   6.053  14.172  0.00  0.00    +0.000 HD
ENDBRANCH  10  13
ENDBRANCH   5   7
BRANCH   3  15
ATOM     15  O   UNL     1       0.980   2.432  19.631  0.00  0.00    +0.000 OA
ATOM     16  H   UNL     1       1.604   1.763  19.959  0.00  0.00    +0.000 HD
ENDBRANCH   3  15
BRANCH   1  17
ATOM     17  O   UNL     1       1.638   7.051  20.946  0.00  0.00    +0.000 OA
BRANCH  17  18
ATOM     18  C   UNL     1       1.571   8.259  20.176  0.00  0.00    +0.000 C 
BRANCH  18  24
ATOM     19  C   UNL     1      -0.429  10.516  19.352  0.00  0.00    +0.000 C 
ATOM     20  N   UNL     1      -0.315   9.834  20.635  0.00  0.00    +0.000 NA
ATOM     21  C   UNL     1      -0.774  10.673  21.741  0.00  0.00    +0.000 C 
ATOM     22  C   UNL     1      -0.271   9.925  22.965  0.00  0.00    +0.000 C 
ATOM     23  C   UNL     1       0.948   9.140  22.486  0.00  0.00    +0.000 C 
ATOM     24  C   UNL     1       1.069   9.455  20.992  0.00  0.00    +0.000 C 
ENDBRANCH  18  24
ENDBRANCH  17  18
ENDBRANCH   1  17
TORSDOF 6
ENDMDL
MODEL 9
REMARK VINA RESULT:      -7.3      2.347      4.534
REMARK  Name = 
REMARK  7 active torsions:
REMARK  status: ('A' for Active; 'I' for Inactive)
REMARK    1  A    between atoms: C_1  and  N_2
REMARK    2  A    between atoms: C_6  and  C_7
REMARK    3  A    between atoms: C_7  and  O_8
REMARK    4  A    between atoms: O_8  and  C_9
REMARK    5  A    between atoms: C_11  and  O_12
REMARK    6  A    between atoms: C_14  and  C_15
REMARK    7  A    between atoms: C_18  and  O_19
REMARK                            x       y       z     vdW  Elec       q    Type
REMARK                         _______ _______ _______ _____ _____    ______ ____
ROOT
ATOM      1  C   UNL     1       3.938   4.018  19.701  0.00  0.00    +0.000 A 
ATOM      2  C   UNL     1       3.023   3.162  20.321  0.00  0.00    +0.000 A 
ATOM      3  C   UNL     1       1.797   3.649  20.742  0.00  0.00    +0.000 A 
ATOM      4  C   UNL     1       1.458   4.982  20.553  0.00  0.00    +0.000 A 
ATOM      5  C   UNL     1       2.354   5.885  19.953  0.00  0.00    +0.000 A 
ATOM      6  C   UNL     1       3.604   5.373  19.539  0.00  0.00    +0.000 A 
ENDROOT
BRANCH   5   7
ATOM      7  C   UNL     1       1.963   7.305  19.753  0.00  0.00    +0.000 A 
ATOM      8  C   UNL     1       1.357   8.052  20.787  0.00  0.00    +0.000 A 
ATOM      9  C   UNL     1       0.920   9.368  20.593  0.00  0.00    +0.000 A 
ATOM     10  C   UNL     1       1.103   9.969  19.356  0.00  0.00    +0.000 A 
ATOM     11  C   UNL     1       1.713   9.276  18.322  0.00  0.00    +0.000 A 
ATOM     12  C   UNL     1       2.135   7.954  18.518  0.00  0.00    +0.000 A 
BRANCH  10  13
ATOM     13  O   UNL     1       0.689  11.245  19.119  0.00  0.00    +0.000 OA
ATOM     14  H   UNL     1       1.316  11.666  18.508  0.00  0.00    +0.000 HD
ENDBRANCH  10  13
ENDBRANCH   5   7
BRANCH   3  15
ATOM     15  O   UNL     1       0.885   2.834  21.343  0.00  0.00    +0.000 OA
ATOM     16  H   UNL     1       1.352   2.243  21.958  0.00  0.00    +0.000 HD
ENDBRANCH   3  15
BRANCH   1  17
ATOM     17  O   UNL     1       5.170   3.629  19.221  0.00  0.00    +0.000 OA
BRANCH  17  18
ATOM     18  C   UNL     1       5.997   4.713  18.777  0.00  0.00    +0.000 C 
BRANCH  18  24
ATOM     19  C   UNL     1       7.485   6.815  17.004  0.00  0.00    +0.000 C 
ATOM     20  N   UNL     1       7.113   5.447  16.664  0.00  0.00    +0.000 NA
ATOM     21  C   UNL     1       6.916   5.278  15.225  0.00  0.00    +0.000 C 
ATOM     22  C   UNL     1       6.234   3.924  15.134  0.00  0.00    +0.000 C 
ATOM     23  C   UNL     1       5.514   3.743  16.469  0.00  0.00    +0.000 C 
ATOM     24  C   UNL     1       5.846   5.000  17.279  0.00  0.00    +0.000 C 
ENDBRANCH  18  24
ENDBRANCH  17  18
ENDBRANCH   1  17
TORSDOF 6
ENDMDL
