MODEL 1
REMARK VINA RESULT:      -8.1      0.000      0.000
REMARK  Name = 
REMARK  10 active torsions:
REMARK  status: ('A' for Active; 'I' for Inactive)
REMARK    1  A    between atoms: C_1  and  C_2
REMARK    2  A    between atoms: C_2  and  C_3
REMARK    3  A    between atoms: C_2  and  C_4
REMARK    4  A    between atoms: C_4  and  C_5
REMARK    5  A    between atoms: C_5  and  N_6
REMARK    6  A    between atoms: C_5  and  C_20
REMARK    7  A    between atoms: C_7  and  C_9
REMARK    8  A    between atoms: C_12  and  C_13
REMARK    9  A    between atoms: N_22  and  C_23
REMARK   10  A    between atoms: C_23  and  C_24
REMARK                            x       y       z     vdW  Elec       q    Type
REMARK                         _______ _______ _______ _____ _____    ______ ____
ROOT
ATOM      1  N   UNL     1       2.923   5.916  18.539  0.00  0.00    +0.000 N 
ATOM      2  C   UNL     1       2.238   6.459  19.599  0.00  0.00    +0.000 C 
ATOM      3  O   UNL     1       2.025   5.817  20.626  0.00  0.00    +0.000 OA
ATOM      4  H   UNL     1       3.076   6.500  17.717  0.00  0.00    +0.000 HD
ENDROOT
BRANCH   2   5
ATOM      5  C   UNL     1       1.822   7.834  19.411  0.00  0.00    +0.000 A 
ATOM      6  C   UNL     1       2.058   8.716  18.376  0.00  0.00    +0.000 A 
ATOM      7  C   UNL     1       1.368   9.913  18.691  0.00  0.00    +0.000 A 
ATOM      8  C   UNL     1       0.742   9.705  19.904  0.00  0.00    +0.000 A 
ATOM      9  O   UNL     1       1.034   8.444  20.352  0.00  0.00    +0.000 OA
BRANCH   8  10
ATOM     10  C   UNL     1      -0.146  10.506  20.748  0.00  0.00    +0.000 A 
ATOM     11  C   UNL     1      -0.137  10.361  22.145  0.00  0.00    +0.000 A 
ATOM     12  C   UNL     1      -0.963  11.148  22.955  0.00  0.00    +0.000 A 
ATOM     13  C   UNL     1      -1.812  12.090  22.379  0.00  0.00    +0.000 A 
ATOM     14  C   UNL     1      -1.842  12.240  20.996  0.00  0.00    +0.000 A 
ATOM     15  C   UNL     1      -1.016  11.454  20.188  0.00  0.00    +0.000 A 
ENDBRANCH   8  10
ENDBRANCH   2   5
BRANCH   1  16
ATOM     16  C   UNL     1       3.533   4.587  18.565  0.00  0.00    +0.000 C 
BRANCH  16  17
ATOM     17  C   UNL     1       5.046   4.836  18.419  0.00  0.00    +0.000 C 
ATOM     18  O   UNL     1       5.877   4.057  18.893  0.00  0.00    +0.000 OA
ATOM     19  N   UNL     1       5.405   5.984  17.737  0.00  0.00    +0.000 N 
ATOM     20  H   UNL     1       4.701   6.458  17.184  0.00  0.00    +0.000 HD
BRANCH  19  21
ATOM     21  C   UNL     1       6.789   6.209  17.368  0.00  0.00    +0.000 C 
ATOM     22  C   UNL     1       7.788   6.504  18.471  0.00  0.00    +0.000 C 
ATOM     23  C   UNL     1       7.392   7.595  17.527  0.00  0.00    +0.000 C 
BRANCH  21  24
ATOM     24  C   UNL     1       7.241   5.457  16.209  0.00  0.00    +0.000 C 
ATOM     25  N   UNL     1       7.602   4.898  15.257  0.00  0.00    +0.000 NA
ENDBRANCH  21  24
ENDBRANCH  19  21
ENDBRANCH  16  17
BRANCH  16  26
ATOM     26  C   UNL     1       2.970   3.711  17.435  0.00  0.00    +0.000 C 
BRANCH  26  28
ATOM     27  C   UNL     1       3.484   1.437  18.499  0.00  0.00    +0.000 C 
ATOM     28  C   UNL     1       2.429   2.322  17.836  0.00  0.00    +0.000 C 
ATOM     29  C   UNL     1       1.241   2.488  18.793  0.00  0.00    +0.000 C 
ENDBRANCH  26  28
ENDBRANCH  16  26
ENDBRANCH   1  16
TORSDOF 8
ENDMDL
MODEL 2
REMARK VINA RESULT:      -8.0      0.642      1.161
REMARK  Name = 
REMARK  10 active torsions:
REMARK  status: ('A' for Active; 'I' for Inactive)
REMARK    1  A    between atoms: C_1  and  C_2
REMARK    2  A    between atoms: C_2  and  C_3
REMARK    3  A    between atoms: C_2  and  C_4
REMARK    4  A    between atoms: C_4  and  C_5
REMARK    5  A    between atoms: C_5  and  N_6
REMARK    6  A    between atoms: C_5  and  C_20
REMARK    7  A    between atoms: C_7  and  C_9
REMARK    8  A    between atoms: C_12  and  C_13
REMARK    9  A    between atoms: N_22  and  C_23
REMARK   10  A    between atoms: C_23  and  C_24
REMARK                            x       y       z     vdW  Elec       q    Type
REMARK                         _______ _______ _______ _____ _____    ______ ____
ROOT
ATOM      1  N   UNL     1       3.159   6.014  19.024  0.00  0.00    +0.000 N 
ATOM      2  C   UNL     1       2.212   6.549  19.865  0.00  0.00    +0.000 C 
ATOM      3  O   UNL     1       1.794   5.928  20.840  0.00  0.00    +0.000 OA
ATOM      4  H   UNL     1       3.474   6.579  18.236  0.00  0.00    +0.000 HD
ENDROOT
BRANCH   2   5
ATOM      5  C   UNL     1       1.784   7.888  19.520  0.00  0.00    +0.000 A 
ATOM      6  C   UNL     1       1.975   8.631  18.372  0.00  0.00    +0.000 A 
ATOM      7  C   UNL     1       1.294   9.859  18.559  0.00  0.00    +0.000 A 
ATOM      8  C   UNL     1       0.718   9.809  19.814  0.00  0.00    +0.000 A 
ATOM      9  O   UNL     1       1.032   8.615  20.406  0.00  0.00    +0.000 OA
BRANCH   8  10
ATOM     10  C   UNL     1      -0.138  10.712  20.584  0.00  0.00    +0.000 A 
ATOM     11  C   UNL     1      -0.968  11.643  19.940  0.00  0.00    +0.000 A 
ATOM     12  C   UNL     1      -1.809  12.486  20.674  0.00  0.00    +0.000 A 
ATOM     13  C   UNL     1      -1.831  12.412  22.064  0.00  0.00    +0.000 A 
ATOM     14  C   UNL     1      -1.009  11.501  22.721  0.00  0.00    +0.000 A 
ATOM     15  C   UNL     1      -0.169  10.659  21.986  0.00  0.00    +0.000 A 
ENDBRANCH   8  10
ENDBRANCH   2   5
BRANCH   1  16
ATOM     16  C   UNL     1       3.812   4.726  19.256  0.00  0.00    +0.000 C 
BRANCH  16  17
ATOM     17  C   UNL     1       5.285   4.946  18.865  0.00  0.00    +0.000 C 
ATOM     18  O   UNL     1       6.163   4.135  19.172  0.00  0.00    +0.000 OA
ATOM     19  N   UNL     1       5.557   6.106  18.162  0.00  0.00    +0.000 N 
ATOM     20  H   UNL     1       4.782   6.612  17.748  0.00  0.00    +0.000 HD
BRANCH  19  21
ATOM     21  C   UNL     1       6.865   6.312  17.573  0.00  0.00    +0.000 C 
ATOM     22  C   UNL     1       8.008   6.717  18.483  0.00  0.00    +0.000 C 
ATOM     23  C   UNL     1       7.450   7.713  17.517  0.00  0.00    +0.000 C 
BRANCH  21  24
ATOM     24  C   UNL     1       7.159   5.463  16.430  0.00  0.00    +0.000 C 
ATOM     25  N   UNL     1       7.364   4.812  15.490  0.00  0.00    +0.000 NA
ENDBRANCH  21  24
ENDBRANCH  19  21
ENDBRANCH  16  17
BRANCH  16  26
ATOM     26  C   UNL     1       3.142   3.622  18.423  0.00  0.00    +0.000 C 
BRANCH  26  28
ATOM     27  C   UNL     1       2.570   2.629  20.716  0.00  0.00    +0.000 C 
ATOM     28  C   UNL     1       2.378   2.530  19.203  0.00  0.00    +0.000 C 
ATOM     29  C   UNL     1       0.880   2.621  18.881  0.00  0.00    +0.000 C 
ENDBRANCH  26  28
ENDBRANCH  16  26
ENDBRANCH   1  16
TORSDOF 8
ENDMDL
MODEL 3
REMARK VINA RESULT:      -7.7      1.172      1.439
REMARK  Name = 
REMARK  10 active torsions:
REMARK  status: ('A' for Active; 'I' for Inactive)
REMARK    1  A    between atoms: C_1  and  C_2
REMARK    2  A    between atoms: C_2  and  C_3
REMARK    3  A    between atoms: C_2  and  C_4
REMARK    4  A    between atoms: C_4  and  C_5
REMARK    5  A    between atoms: C_5  and  N_6
REMARK    6  A    between atoms: C_5  and  C_20
REMARK    7  A    between atoms: C_7  and  C_9
REMARK    8  A    between atoms: C_12  and  C_13
REMARK    9  A    between atoms: N_22  and  C_23
REMARK   10  A    between atoms: C_23  and  C_24
REMARK                            x       y       z     vdW  Elec       q    Type
REMARK                         _______ _______ _______ _____ _____    ______ ____
ROOT
ATOM      1  N   UNL     1       3.008   6.100  19.057  0.00  0.00    +0.000 N 
ATOM      2  C   UNL     1       2.220   6.918  19.831  0.00  0.00    +0.000 C 
ATOM      3  O   UNL     1       1.886   6.599  20.971  0.00  0.00    +0.000 OA
ATOM      4  H   UNL     1       3.259   6.421  18.122  0.00  0.00    +0.000 HD
ENDROOT
BRANCH   2   5
ATOM      5  C   UNL     1       1.851   8.171  19.206  0.00  0.00    +0.000 A 
ATOM      6  C   UNL     1       2.301   8.772  18.048  0.00  0.00    +0.000 A 
ATOM      7  C   UNL     1       1.557   9.966  17.888  0.00  0.00    +0.000 A 
ATOM      8  C   UNL     1       0.684  10.039  18.957  0.00  0.00    +0.000 A 
ATOM      9  O   UNL     1       0.877   8.954  19.770  0.00  0.00    +0.000 OA
BRANCH   8  10
ATOM     10  C   UNL     1      -0.367  10.975  19.358  0.00  0.00    +0.000 A 
ATOM     11  C   UNL     1      -0.200  11.810  20.474  0.00  0.00    +0.000 A 
ATOM     12  C   UNL     1      -1.191  12.727  20.841  0.00  0.00    +0.000 A 
ATOM     13  C   UNL     1      -2.365  12.821  20.098  0.00  0.00    +0.000 A 
ATOM     14  C   UNL     1      -2.551  11.994  18.993  0.00  0.00    +0.000 A 
ATOM     15  C   UNL     1      -1.561  11.079  18.628  0.00  0.00    +0.000 A 
ENDBRANCH   8  10
ENDBRANCH   2   5
BRANCH   1  16
ATOM     16  C   UNL     1       3.589   4.846  19.535  0.00  0.00    +0.000 C 
BRANCH  16  17
ATOM     17  C   UNL     1       5.064   4.893  19.097  0.00  0.00    +0.000 C 
ATOM     18  O   UNL     1       5.856   3.997  19.400  0.00  0.00    +0.000 OA
ATOM     19  N   UNL     1       5.439   6.000  18.357  0.00  0.00    +0.000 N 
ATOM     20  H   UNL     1       4.712   6.579  17.952  0.00  0.00    +0.000 HD
BRANCH  19  21
ATOM     21  C   UNL     1       6.743   6.047  17.726  0.00  0.00    +0.000 C 
ATOM     22  C   UNL     1       7.949   6.361  18.590  0.00  0.00    +0.000 C 
ATOM     23  C   UNL     1       7.469   7.376  17.602  0.00  0.00    +0.000 C 
BRANCH  21  24
ATOM     24  C   UNL     1       6.912   5.132  16.609  0.00  0.00    +0.000 C 
ATOM     25  N   UNL     1       6.999   4.397  15.714  0.00  0.00    +0.000 NA
ENDBRANCH  21  24
ENDBRANCH  19  21
ENDBRANCH  16  17
BRANCH  16  26
ATOM     26  C   UNL     1       2.838   3.642  18.943  0.00  0.00    +0.000 C 
BRANCH  26  28
ATOM     27  C   UNL     1       0.714   2.216  18.775  0.00  0.00    +0.000 C 
ATOM     28  C   UNL     1       1.410   3.385  19.472  0.00  0.00    +0.000 C 
ATOM     29  C   UNL     1       1.462   3.108  20.981  0.00  0.00    +0.000 C 
ENDBRANCH  26  28
ENDBRANCH  16  26
ENDBRANCH   1  16
TORSDOF 8
ENDMDL
MODEL 4
REMARK VINA RESULT:      -7.6      1.132      1.606
REMARK  Name = 
REMARK  10 active torsions:
REMARK  status: ('A' for Active; 'I' for Inactive)
REMARK    1  A    between atoms: C_1  and  C_2
REMARK    2  A    between atoms: C_2  and  C_3
REMARK    3  A    between atoms: C_2  and  C_4
REMARK    4  A    between atoms: C_4  and  C_5
REMARK    5  A    between atoms: C_5  and  N_6
REMARK    6  A    between atoms: C_5  and  C_20
REMARK    7  A    between atoms: C_7  and  C_9
REMARK    8  A    between atoms: C_12  and  C_13
REMARK    9  A    between atoms: N_22  and  C_23
REMARK   10  A    between atoms: C_23  and  C_24
REMARK                            x       y       z     vdW  Elec       q    Type
REMARK                         _______ _______ _______ _____ _____    ______ ____
ROOT
ATOM      1  N   UNL     1       3.127   6.191  19.707  0.00  0.00    +0.000 N 
ATOM      2  C   UNL     1       2.650   6.764  18.552  0.00  0.00    +0.000 C 
ATOM      3  O   UNL     1       2.681   6.167  17.477  0.00  0.00    +0.000 OA
ATOM      4  H   UNL     1       3.068   6.731  20.570  0.00  0.00    +0.000 HD
ENDROOT
BRANCH   2   5
ATOM      5  C   UNL     1       2.096   8.091  18.719  0.00  0.00    +0.000 A 
ATOM      6  C   UNL     1       2.043   9.166  17.854  0.00  0.00    +0.000 A 
ATOM      7  C   UNL     1       1.340  10.198  18.523  0.00  0.00    +0.000 A 
ATOM      8  C   UNL     1       0.994   9.704  19.766  0.00  0.00    +0.000 A 
ATOM      9  O   UNL     1       1.471   8.427  19.893  0.00  0.00    +0.000 OA
BRANCH   8  10
ATOM     10  C   UNL     1       0.237  10.232  20.902  0.00  0.00    +0.000 A 
ATOM     11  C   UNL     1      -0.398  11.482  20.827  0.00  0.00    +0.000 A 
ATOM     12  C   UNL     1      -1.147  11.974  21.901  0.00  0.00    +0.000 A 
ATOM     13  C   UNL     1      -1.270  11.224  23.068  0.00  0.00    +0.000 A 
ATOM     14  C   UNL     1      -0.640   9.987  23.164  0.00  0.00    +0.000 A 
ATOM     15  C   UNL     1       0.108   9.496  22.090  0.00  0.00    +0.000 A 
ENDBRANCH   8  10
ENDBRANCH   2   5
BRANCH   1  16
ATOM     16  C   UNL     1       3.619   4.816  19.784  0.00  0.00    +0.000 C 
BRANCH  16  17
ATOM     17  C   UNL     1       5.055   4.871  19.232  0.00  0.00    +0.000 C 
ATOM     18  O   UNL     1       5.858   3.955  19.429  0.00  0.00    +0.000 OA
ATOM     19  N   UNL     1       5.385   6.009  18.519  0.00  0.00    +0.000 N 
ATOM     20  H   UNL     1       4.636   6.614  18.202  0.00  0.00    +0.000 HD
BRANCH  19  21
ATOM     21  C   UNL     1       6.635   6.075  17.789  0.00  0.00    +0.000 C 
ATOM     22  C   UNL     1       7.889   6.473  18.545  0.00  0.00    +0.000 C 
ATOM     23  C   UNL     1       7.296   7.424  17.555  0.00  0.00    +0.000 C 
BRANCH  21  24
ATOM     24  C   UNL     1       6.758   5.118  16.703  0.00  0.00    +0.000 C 
ATOM     25  N   UNL     1       6.810   4.363  15.822  0.00  0.00    +0.000 NA
ENDBRANCH  21  24
ENDBRANCH  19  21
ENDBRANCH  16  17
BRANCH  16  26
ATOM     26  C   UNL     1       2.715   3.872  18.975  0.00  0.00    +0.000 C 
BRANCH  26  28
ATOM     27  C   UNL     1       0.671   2.326  18.911  0.00  0.00    +0.000 C 
ATOM     28  C   UNL     1       1.352   3.507  19.602  0.00  0.00    +0.000 C 
ATOM     29  C   UNL     1       1.542   3.175  21.089  0.00  0.00    +0.000 C 
ENDBRANCH  26  28
ENDBRANCH  16  26
ENDBRANCH   1  16
TORSDOF 8
ENDMDL
MODEL 5
REMARK VINA RESULT:      -7.6      1.071      1.493
REMARK  Name = 
REMARK  10 active torsions:
REMARK  status: ('A' for Active; 'I' for Inactive)
REMARK    1  A    between atoms: C_1  and  C_2
REMARK    2  A    between atoms: C_2  and  C_3
REMARK    3  A    between atoms: C_2  and  C_4
REMARK    4  A    between atoms: C_4  and  C_5
REMARK    5  A    between atoms: C_5  and  N_6
REMARK    6  A    between atoms: C_5  and  C_20
REMARK    7  A    between atoms: C_7  and  C_9
REMARK    8  A    between atoms: C_12  and  C_13
REMARK    9  A    between atoms: N_22  and  C_23
REMARK   10  A    between atoms: C_23  and  C_24
REMARK                            x       y       z     vdW  Elec       q    Type
REMARK                         _______ _______ _______ _____ _____    ______ ____
ROOT
ATOM      1  N   UNL     1       2.862   5.857  18.403  0.00  0.00    +0.000 N 
ATOM      2  C   UNL     1       2.266   6.381  19.525  0.00  0.00    +0.000 C 
ATOM      3  O   UNL     1       2.108   5.711  20.543  0.00  0.00    +0.000 OA
ATOM      4  H   UNL     1       2.973   6.463  17.590  0.00  0.00    +0.000 HD
ENDROOT
BRANCH   2   5
ATOM      5  C   UNL     1       1.877   7.771  19.408  0.00  0.00    +0.000 A 
ATOM      6  C   UNL     1       1.990   8.658  18.357  0.00  0.00    +0.000 A 
ATOM      7  C   UNL     1       1.397   9.873  18.778  0.00  0.00    +0.000 A 
ATOM      8  C   UNL     1       0.947   9.672  20.068  0.00  0.00    +0.000 A 
ATOM      9  O   UNL     1       1.256   8.396  20.459  0.00  0.00    +0.000 OA
BRANCH   8  10
ATOM     10  C   UNL     1       0.221  10.492  21.038  0.00  0.00    +0.000 A 
ATOM     11  C   UNL     1      -0.011  11.856  20.799  0.00  0.00    +0.000 A 
ATOM     12  C   UNL     1      -0.731  12.634  21.712  0.00  0.00    +0.000 A 
ATOM     13  C   UNL     1      -1.229  12.060  22.879  0.00  0.00    +0.000 A 
ATOM     14  C   UNL     1      -1.002  10.712  23.137  0.00  0.00    +0.000 A 
ATOM     15  C   UNL     1      -0.282   9.935  22.224  0.00  0.00    +0.000 A 
ENDBRANCH   8  10
ENDBRANCH   2   5
BRANCH   1  16
ATOM     16  C   UNL     1       3.435   4.512  18.345  0.00  0.00    +0.000 C 
BRANCH  16  17
ATOM     17  C   UNL     1       4.907   4.720  17.942  0.00  0.00    +0.000 C 
ATOM     18  O   UNL     1       5.347   4.306  16.866  0.00  0.00    +0.000 OA
ATOM     19  N   UNL     1       5.697   5.384  18.863  0.00  0.00    +0.000 N 
ATOM     20  H   UNL     1       5.241   5.891  19.613  0.00  0.00    +0.000 HD
BRANCH  19  21
ATOM     21  C   UNL     1       7.035   5.808  18.504  0.00  0.00    +0.000 C 
ATOM     22  C   UNL     1       8.106   4.746  18.337  0.00  0.00    +0.000 C 
ATOM     23  C   UNL     1       8.163   5.669  19.513  0.00  0.00    +0.000 C 
BRANCH  21  24
ATOM     24  C   UNL     1       7.094   6.987  17.656  0.00  0.00    +0.000 C 
ATOM     25  N   UNL     1       7.103   7.948  17.003  0.00  0.00    +0.000 NA
ENDBRANCH  21  24
ENDBRANCH  19  21
ENDBRANCH  16  17
BRANCH  16  26
ATOM     26  C   UNL     1       2.669   3.640  17.337  0.00  0.00    +0.000 C 
BRANCH  26  28
ATOM     27  C   UNL     1       3.417   1.461  18.460  0.00  0.00    +0.000 C 
ATOM     28  C   UNL     1       2.266   2.226  17.807  0.00  0.00    +0.000 C 
ATOM     29  C   UNL     1       1.103   2.327  18.804  0.00  0.00    +0.000 C 
ENDBRANCH  26  28
ENDBRANCH  16  26
ENDBRANCH   1  16
TORSDOF 8
ENDMDL
MODEL 6
REMARK VINA RESULT:      -7.6      1.089      1.301
REMARK  Name = 
REMARK  10 active torsions:
REMARK  status: ('A' for Active; 'I' for Inactive)
REMARK    1  A    between atoms: C_1  and  C_2
REMARK    2  A    between atoms: C_2  and  C_3
REMARK    3  A    between atoms: C_2  and  C_4
REMARK    4  A    between atoms: C_4  and  C_5
REMARK    5  A    between atoms: C_5  and  N_6
REMARK    6  A    between atoms: C_5  and  C_20
REMARK    7  A    between atoms: C_7  and  C_9
REMARK    8  A    between atoms: C_12  and  C_13
REMARK    9  A    between atoms: N_22  and  C_23
REMARK   10  A    between atoms: C_23  and  C_24
REMARK                            x       y       z     vdW  Elec       q    Type
REMARK                         _______ _______ _______ _____ _____    ______ ____
ROOT
ATOM      1  N   UNL     1       3.159   6.225  19.665  0.00  0.00    +0.000 N 
ATOM      2  C   UNL     1       2.575   6.767  18.545  0.00  0.00    +0.000 C 
ATOM      3  O   UNL     1       2.499   6.139  17.491  0.00  0.00    +0.000 OA
ATOM      4  H   UNL     1       3.186   6.791  20.514  0.00  0.00    +0.000 HD
ENDROOT
BRANCH   2   5
ATOM      5  C   UNL     1       2.045   8.103  18.726  0.00  0.00    +0.000 A 
ATOM      6  C   UNL     1       2.049   9.199  17.886  0.00  0.00    +0.000 A 
ATOM      7  C   UNL     1       1.345  10.231  18.555  0.00  0.00    +0.000 A 
ATOM      8  C   UNL     1       0.942   9.716  19.772  0.00  0.00    +0.000 A 
ATOM      9  O   UNL     1       1.386   8.425  19.884  0.00  0.00    +0.000 OA
BRANCH   8  10
ATOM     10  C   UNL     1       0.157  10.234  20.893  0.00  0.00    +0.000 A 
ATOM     11  C   UNL     1       0.047   9.511  22.091  0.00  0.00    +0.000 A 
ATOM     12  C   UNL     1      -0.679  10.019  23.174  0.00  0.00    +0.000 A 
ATOM     13  C   UNL     1      -1.308  11.257  23.074  0.00  0.00    +0.000 A 
ATOM     14  C   UNL     1      -1.217  11.984  21.890  0.00  0.00    +0.000 A 
ATOM     15  C   UNL     1      -0.492  11.476  20.809  0.00  0.00    +0.000 A 
ENDBRANCH   8  10
ENDBRANCH   2   5
BRANCH   1  16
ATOM     16  C   UNL     1       3.650   4.850  19.736  0.00  0.00    +0.000 C 
BRANCH  16  17
ATOM     17  C   UNL     1       5.093   4.910  19.200  0.00  0.00    +0.000 C 
ATOM     18  O   UNL     1       5.903   4.007  19.424  0.00  0.00    +0.000 OA
ATOM     19  N   UNL     1       5.418   6.037  18.469  0.00  0.00    +0.000 N 
ATOM     20  H   UNL     1       4.667   6.627  18.130  0.00  0.00    +0.000 HD
BRANCH  19  21
ATOM     21  C   UNL     1       6.677   6.103  17.752  0.00  0.00    +0.000 C 
ATOM     22  C   UNL     1       7.925   6.486  18.524  0.00  0.00    +0.000 C 
ATOM     23  C   UNL     1       7.348   7.449  17.536  0.00  0.00    +0.000 C 
BRANCH  21  24
ATOM     24  C   UNL     1       6.805   5.155  16.658  0.00  0.00    +0.000 C 
ATOM     25  N   UNL     1       6.866   4.415  15.765  0.00  0.00    +0.000 NA
ENDBRANCH  21  24
ENDBRANCH  19  21
ENDBRANCH  16  17
BRANCH  16  26
ATOM     26  C   UNL     1       2.755   3.913  18.909  0.00  0.00    +0.000 C 
BRANCH  26  28
ATOM     27  C   UNL     1       1.396   3.379  21.016  0.00  0.00    +0.000 C 
ATOM     28  C   UNL     1       1.948   2.854  19.691  0.00  0.00    +0.000 C 
ATOM     29  C   UNL     1       0.783   2.354  18.826  0.00  0.00    +0.000 C 
ENDBRANCH  26  28
ENDBRANCH  16  26
ENDBRANCH   1  16
TORSDOF 8
ENDMDL
MODEL 7
REMARK VINA RESULT:      -7.5      1.604      2.120
REMARK  Name = 
REMARK  10 active torsions:
REMARK  status: ('A' for Active; 'I' for Inactive)
REMARK    1  A    between atoms: C_1  and  C_2
REMARK    2  A    between atoms: C_2  and  C_3
REMARK    3  A    between atoms: C_2  and  C_4
REMARK    4  A    between atoms: C_4  and  C_5
REMARK    5  A    between atoms: C_5  and  N_6
REMARK    6  A    between atoms: C_5  and  C_20
REMARK    7  A    between atoms: C_7  and  C_9
REMARK    8  A    between atoms: C_12  and  C_13
REMARK    9  A    between atoms: N_22  and  C_23
REMARK   10  A    between atoms: C_23  and  C_24
REMARK                            x       y       z     vdW  Elec       q    Type
REMARK                         _______ _______ _______ _____ _____    ______ ____
ROOT
ATOM      1  N   UNL     1       2.375   6.971  18.428  0.00  0.00    +0.000 N 
ATOM      2  C   UNL     1       1.919   7.543  19.591  0.00  0.00    +0.000 C 
ATOM      3  O   UNL     1       1.879   6.913  20.646  0.00  0.00    +0.000 OA
ATOM      4  H   UNL     1       2.392   7.545  17.585  0.00  0.00    +0.000 HD
ENDROOT
BRANCH   2   5
ATOM      5  C   UNL     1       1.524   8.931  19.468  0.00  0.00    +0.000 A 
ATOM      6  C   UNL     1       1.525   9.778  18.378  0.00  0.00    +0.000 A 
ATOM      7  C   UNL     1       0.987  11.013  18.818  0.00  0.00    +0.000 A 
ATOM      8  C   UNL     1       0.681  10.861  20.157  0.00  0.00    +0.000 A 
ATOM      9  O   UNL     1       1.026   9.598  20.557  0.00  0.00    +0.000 OA
BRANCH   8  10
ATOM     10  C   UNL     1       0.070  11.722  21.171  0.00  0.00    +0.000 A 
ATOM     11  C   UNL     1       0.383  13.088  21.240  0.00  0.00    +0.000 A 
ATOM     12  C   UNL     1      -0.223  13.918  22.189  0.00  0.00    +0.000 A 
ATOM     13  C   UNL     1      -1.150  13.393  23.085  0.00  0.00    +0.000 A 
ATOM     14  C   UNL     1      -1.466  12.038  23.037  0.00  0.00    +0.000 A 
ATOM     15  C   UNL     1      -0.860  11.210  22.089  0.00  0.00    +0.000 A 
ENDBRANCH   8  10
ENDBRANCH   2   5
BRANCH   1  16
ATOM     16  C   UNL     1       2.932   5.620  18.354  0.00  0.00    +0.000 C 
BRANCH  16  17
ATOM     17  C   UNL     1       4.220   5.760  17.522  0.00  0.00    +0.000 C 
ATOM     18  O   UNL     1       4.831   6.830  17.454  0.00  0.00    +0.000 OA
ATOM     19  N   UNL     1       4.635   4.621  16.856  0.00  0.00    +0.000 N 
ATOM     20  H   UNL     1       4.231   3.731  17.124  0.00  0.00    +0.000 HD
BRANCH  19  21
ATOM     21  C   UNL     1       5.933   4.586  16.213  0.00  0.00    +0.000 C 
ATOM     22  C   UNL     1       6.096   5.296  14.882  0.00  0.00    +0.000 C 
ATOM     23  C   UNL     1       6.110   3.801  14.923  0.00  0.00    +0.000 C 
BRANCH  21  24
ATOM     24  C   UNL     1       7.064   4.559  17.124  0.00  0.00    +0.000 C 
ATOM     25  N   UNL     1       7.950   4.497  17.874  0.00  0.00    +0.000 NA
ENDBRANCH  21  24
ENDBRANCH  19  21
ENDBRANCH  16  17
BRANCH  16  26
ATOM     26  C   UNL     1       1.922   4.653  17.715  0.00  0.00    +0.000 C 
BRANCH  26  28
ATOM     27  C   UNL     1       2.343   2.134  17.929  0.00  0.00    +0.000 C 
ATOM     28  C   UNL     1       1.616   3.354  18.491  0.00  0.00    +0.000 C 
ATOM     29  C   UNL     1       2.003   3.532  19.966  0.00  0.00    +0.000 C 
ENDBRANCH  26  28
ENDBRANCH  16  26
ENDBRANCH   1  16
TORSDOF 8
ENDMDL
MODEL 8
REMARK VINA RESULT:      -7.5      1.048      1.435
REMARK  Name = 
REMARK  10 active torsions:
REMARK  status: ('A' for Active; 'I' for Inactive)
REMARK    1  A    between atoms: C_1  and  C_2
REMARK    2  A    between atoms: C_2  and  C_3
REMARK    3  A    between atoms: C_2  and  C_4
REMARK    4  A    between atoms: C_4  and  C_5
REMARK    5  A    between atoms: C_5  and  N_6
REMARK    6  A    between atoms: C_5  and  C_20
REMARK    7  A    between atoms: C_7  and  C_9
REMARK    8  A    between atoms: C_12  and  C_13
REMARK    9  A    between atoms: N_22  and  C_23
REMARK   10  A    between atoms: C_23  and  C_24
REMARK                            x       y       z     vdW  Elec       q    Type
REMARK                         _______ _______ _______ _____ _____    ______ ____
ROOT
ATOM      1  N   UNL     1       3.004   6.280  18.628  0.00  0.00    +0.000 N 
ATOM      2  C   UNL     1       2.244   7.040  19.486  0.00  0.00    +0.000 C 
ATOM      3  O   UNL     1       1.910   6.621  20.592  0.00  0.00    +0.000 OA
ATOM      4  H   UNL     1       3.257   6.683  17.726  0.00  0.00    +0.000 HD
ENDROOT
BRANCH   2   5
ATOM      5  C   UNL     1       1.906   8.357  18.988  0.00  0.00    +0.000 A 
ATOM      6  C   UNL     1       2.280   9.011  17.831  0.00  0.00    +0.000 A 
ATOM      7  C   UNL     1       1.611  10.260  17.831  0.00  0.00    +0.000 A 
ATOM      8  C   UNL     1       0.859  10.311  18.989  0.00  0.00    +0.000 A 
ATOM      9  O   UNL     1       1.054   9.158  19.703  0.00  0.00    +0.000 OA
BRANCH   8  10
ATOM     10  C   UNL     1      -0.075  11.281  19.560  0.00  0.00    +0.000 A 
ATOM     11  C   UNL     1      -1.432  11.273  19.202  0.00  0.00    +0.000 A 
ATOM     12  C   UNL     1      -2.332  12.181  19.771  0.00  0.00    +0.000 A 
ATOM     13  C   UNL     1      -1.887  13.112  20.706  0.00  0.00    +0.000 A 
ATOM     14  C   UNL     1      -0.543  13.141  21.066  0.00  0.00    +0.000 A 
ATOM     15  C   UNL     1       0.355  12.234  20.497  0.00  0.00    +0.000 A 
ENDBRANCH   8  10
ENDBRANCH   2   5
BRANCH   1  16
ATOM     16  C   UNL     1       3.552   4.970  18.977  0.00  0.00    +0.000 C 
BRANCH  16  17
ATOM     17  C   UNL     1       5.065   5.085  18.714  0.00  0.00    +0.000 C 
ATOM     18  O   UNL     1       5.857   4.227  19.114  0.00  0.00    +0.000 OA
ATOM     19  N   UNL     1       5.473   6.207  18.015  0.00  0.00    +0.000 N 
ATOM     20  H   UNL     1       4.773   6.751  17.524  0.00  0.00    +0.000 HD
BRANCH  19  21
ATOM     21  C   UNL     1       6.838   6.313  17.540  0.00  0.00    +0.000 C 
ATOM     22  C   UNL     1       7.929   6.616  18.549  0.00  0.00    +0.000 C 
ATOM     23  C   UNL     1       7.536   7.663  17.557  0.00  0.00    +0.000 C 
BRANCH  21  24
ATOM     24  C   UNL     1       7.159   5.455  16.412  0.00  0.00    +0.000 C 
ATOM     25  N   UNL     1       7.444   4.742  15.540  0.00  0.00    +0.000 NA
ENDBRANCH  21  24
ENDBRANCH  19  21
ENDBRANCH  16  17
BRANCH  16  26
ATOM     26  C   UNL     1       2.892   3.865  18.137  0.00  0.00    +0.000 C 
BRANCH  26  28
ATOM     27  C   UNL     1       0.959   2.300  18.758  0.00  0.00    +0.000 C 
ATOM     28  C   UNL     1       2.454   2.589  18.888  0.00  0.00    +0.000 C 
ATOM     29  C   UNL     1       3.245   1.384  18.359  0.00  0.00    +0.000 C 
ENDBRANCH  26  28
ENDBRANCH  16  26
ENDBRANCH   1  16
TORSDOF 8
ENDMDL
MODEL 9
REMARK VINA RESULT:      -7.4      1.482      1.930
REMARK  Name = 
REMARK  10 active torsions:
REMARK  status: ('A' for Active; 'I' for Inactive)
REMARK    1  A    between atoms: C_1  and  C_2
REMARK    2  A    between atoms: C_2  and  C_3
REMARK    3  A    between atoms: C_2  and  C_4
REMARK    4  A    between atoms: C_4  and  C_5
REMARK    5  A    between atoms: C_5  and  N_6
REMARK    6  A    between atoms: C_5  and  C_20
REMARK    7  A    between atoms: C_7  and  C_9
REMARK    8  A    between atoms: C_12  and  C_13
REMARK    9  A    between atoms: N_22  and  C_23
REMARK   10  A    between atoms: C_23  and  C_24
REMARK                            x       y       z     vdW  Elec       q    Type
REMARK                         _______ _______ _______ _____ _____    ______ ____
ROOT
ATOM      1  N   UNL     1       2.566   6.828  18.513  0.00  0.00    +0.000 N 
ATOM      2  C   UNL     1       1.959   7.375  19.619  0.00  0.00    +0.000 C 
ATOM      3  O   UNL     1       1.879   6.758  20.680  0.00  0.00    +0.000 OA
ATOM      4  H   UNL     1       2.609   7.389  17.663  0.00  0.00    +0.000 HD
ENDROOT
BRANCH   2   5
ATOM      5  C   UNL     1       1.461   8.721  19.431  0.00  0.00    +0.000 A 
ATOM      6  C   UNL     1       1.640   9.616  18.396  0.00  0.00    +0.000 A 
ATOM      7  C   UNL     1       0.880  10.769  18.713  0.00  0.00    +0.000 A 
ATOM      8  C   UNL     1       0.271  10.524  19.929  0.00  0.00    +0.000 A 
ATOM      9  O   UNL     1       0.640   9.283  20.375  0.00  0.00    +0.000 OA
BRANCH   8  10
ATOM     10  C   UNL     1      -0.661  11.269  20.775  0.00  0.00    +0.000 A 
ATOM     11  C   UNL     1      -0.604  11.167  22.174  0.00  0.00    +0.000 A 
ATOM     12  C   UNL     1      -1.474  11.903  22.986  0.00  0.00    +0.000 A 
ATOM     13  C   UNL     1      -2.416  12.751  22.410  0.00  0.00    +0.000 A 
ATOM     14  C   UNL     1      -2.494  12.858  21.024  0.00  0.00    +0.000 A 
ATOM     15  C   UNL     1      -1.624  12.123  20.215  0.00  0.00    +0.000 A 
ENDBRANCH   8  10
ENDBRANCH   2   5
BRANCH   1  16
ATOM     16  C   UNL     1       3.239   5.530  18.518  0.00  0.00    +0.000 C 
BRANCH  16  17
ATOM     17  C   UNL     1       4.422   5.686  17.544  0.00  0.00    +0.000 C 
ATOM     18  O   UNL     1       5.032   6.753  17.436  0.00  0.00    +0.000 OA
ATOM     19  N   UNL     1       4.743   4.565  16.800  0.00  0.00    +0.000 N 
ATOM     20  H   UNL     1       4.365   3.670  17.087  0.00  0.00    +0.000 HD
BRANCH  19  21
ATOM     21  C   UNL     1       5.956   4.540  16.007  0.00  0.00    +0.000 C 
ATOM     22  C   UNL     1       5.983   5.328  14.711  0.00  0.00    +0.000 C 
ATOM     23  C   UNL     1       5.958   3.833  14.662  0.00  0.00    +0.000 C 
BRANCH  21  24
ATOM     24  C   UNL     1       7.184   4.432  16.775  0.00  0.00    +0.000 C 
ATOM     25  N   UNL     1       8.140   4.335  17.429  0.00  0.00    +0.000 NA
ENDBRANCH  21  24
ENDBRANCH  19  21
ENDBRANCH  16  17
BRANCH  16  26
ATOM     26  C   UNL     1       2.270   4.416  18.091  0.00  0.00    +0.000 C 
BRANCH  26  28
ATOM     27  C   UNL     1       0.847   3.014  19.697  0.00  0.00    +0.000 C 
ATOM     28  C   UNL     1       2.198   3.170  19.001  0.00  0.00    +0.000 C 
ATOM     29  C   UNL     1       2.484   1.910  18.172  0.00  0.00    +0.000 C 
ENDBRANCH  26  28
ENDBRANCH  16  26
ENDBRANCH   1  16
TORSDOF 8
ENDMDL
