MODEL 1
REMARK VINA RESULT:      -8.9      0.000      0.000
REMARK  Name = 
REMARK  7 active torsions:
REMARK  status: ('A' for Active; 'I' for Inactive)
REMARK    1  A    between atoms: C_1  and  C_2
REMARK    2  A    between atoms: C_2  and  C_3
REMARK    3  A    between atoms: C_3  and  C_4
REMARK    4  A    between atoms: C_3  and  N_6
REMARK    5  A    between atoms: C_4  and  C_5
REMARK    6  A    between atoms: C_7  and  C_9
REMARK    7  A    between atoms: C_12  and  N_13
REMARK                            x       y       z     vdW  Elec       q    Type
REMARK                         _______ _______ _______ _____ _____    ______ ____
ROOT
ATOM      1  C   UNL     1       5.434   5.080  16.131  0.00  0.00    +0.000 A 
ATOM      2  C   UNL     1       5.536   6.438  16.429  0.00  0.00    +0.000 A 
ATOM      3  C   UNL     1       4.690   7.015  17.383  0.00  0.00    +0.000 A 
ATOM      4  C   UNL     1       3.694   6.275  18.039  0.00  0.00    +0.000 A 
ATOM      5  C   UNL     1       3.595   4.913  17.736  0.00  0.00    +0.000 A 
ATOM      6  C   UNL     1       4.448   4.322  16.778  0.00  0.00    +0.000 A 
ENDROOT
BRANCH   4   7
ATOM      7  N   UNL     1       2.794   6.875  18.974  0.00  0.00    +0.000 N 
ATOM      8  C   UNL     1       2.121   8.049  18.725  0.00  0.00    +0.000 C 
ATOM      9  O   UNL     1       2.152   8.625  17.637  0.00  0.00    +0.000 OA
ATOM     10  N   UNL     1       1.385   8.610  19.737  0.00  0.00    +0.000 N 
ATOM     11  C   UNL     1       0.768   9.896  19.419  0.00  0.00    +0.000 C 
ATOM     12  C   UNL     1       0.063  10.292  20.666  0.00  0.00    +0.000 A 
ATOM     13  C   UNL     1      -0.676  11.447  20.875  0.00  0.00    +0.000 A 
ATOM     14  C   UNL     1      -1.251  11.639  22.123  0.00  0.00    +0.000 A 
ATOM     15  C   UNL     1      -1.078  10.679  23.132  0.00  0.00    +0.000 A 
ATOM     16  C   UNL     1      -0.330   9.511  22.903  0.00  0.00    +0.000 A 
ATOM     17  C   UNL     1       0.244   9.323  21.656  0.00  0.00    +0.000 A 
ATOM     18  C   UNL     1       1.083   8.189  21.115  0.00  0.00    +0.000 C 
ATOM     19  H   UNL     1       2.462   6.300  19.735  0.00  0.00    +0.000 HD
ENDBRANCH   4   7
BRANCH   1  21
ATOM     20  N   UNL     1       5.822   4.268  13.866  0.00  0.00    +0.000 N 
ATOM     21  C   UNL     1       6.351   4.447  15.132  0.00  0.00    +0.000 C 
ATOM     22  O   UNL     1       7.494   4.141  15.447  0.00  0.00    +0.000 OA
ATOM     23  H   UNL     1       4.954   4.736  13.644  0.00  0.00    +0.000 HD
BRANCH  20  24
ATOM     24  C   UNL     1       6.571   3.694  12.747  0.00  0.00    +0.000 C 
BRANCH  24  26
ATOM     25  C   UNL     1       4.333   3.325  11.520  0.00  0.00    +0.000 C 
ATOM     26  C   UNL     1       5.655   2.722  11.976  0.00  0.00    +0.000 C 
ENDBRANCH  24  26
BRANCH  24  27
ATOM     27  C   UNL     1       7.207   4.790  11.870  0.00  0.00    +0.000 C 
ATOM     28  C   UNL     1       8.246   5.655  12.572  0.00  0.00    +0.000 C 
ENDBRANCH  24  27
ENDBRANCH  20  24
ENDBRANCH   1  21
TORSDOF 5
ENDMDL
MODEL 2
REMARK VINA RESULT:      -7.8      0.887      1.725
REMARK  Name = 
REMARK  7 active torsions:
REMARK  status: ('A' for Active; 'I' for Inactive)
REMARK    1  A    between atoms: C_1  and  C_2
REMARK    2  A    between atoms: C_2  and  C_3
REMARK    3  A    between atoms: C_3  and  C_4
REMARK    4  A    between atoms: C_3  and  N_6
REMARK    5  A    between atoms: C_4  and  C_5
REMARK    6  A    between atoms: C_7  and  C_9
REMARK    7  A    between atoms: C_12  and  N_13
REMARK                            x       y       z     vdW  Elec       q    Type
REMARK                         _______ _______ _______ _____ _____    ______ ____
ROOT
ATOM      1  C   UNL     1       4.996   5.064  15.878  0.00  0.00    +0.000 A 
ATOM      2  C   UNL     1       4.072   4.629  16.825  0.00  0.00    +0.000 A 
ATOM      3  C   UNL     1       3.332   5.558  17.566  0.00  0.00    +0.000 A 
ATOM      4  C   UNL     1       3.513   6.942  17.416  0.00  0.00    +0.000 A 
ATOM      5  C   UNL     1       4.441   7.374  16.463  0.00  0.00    +0.000 A 
ATOM      6  C   UNL     1       5.190   6.443  15.710  0.00  0.00    +0.000 A 
ENDROOT
BRANCH   4   7
ATOM      7  N   UNL     1       2.795   7.892  18.208  0.00  0.00    +0.000 N 
ATOM      8  C   UNL     1       2.336   7.620  19.476  0.00  0.00    +0.000 C 
ATOM      9  O   UNL     1       2.595   6.577  20.078  0.00  0.00    +0.000 OA
ATOM     10  N   UNL     1       1.544   8.551  20.100  0.00  0.00    +0.000 N 
ATOM     11  C   UNL     1       1.029   8.154  21.409  0.00  0.00    +0.000 C 
ATOM     12  C   UNL     1       0.199   9.304  21.850  0.00  0.00    +0.000 A 
ATOM     13  C   UNL     1      -0.512   9.414  23.035  0.00  0.00    +0.000 A 
ATOM     14  C   UNL     1      -1.241  10.573  23.257  0.00  0.00    +0.000 A 
ATOM     15  C   UNL     1      -1.245  11.595  22.296  0.00  0.00    +0.000 A 
ATOM     16  C   UNL     1      -0.516  11.472  21.101  0.00  0.00    +0.000 A 
ATOM     17  C   UNL     1       0.210  10.312  20.882  0.00  0.00    +0.000 A 
ATOM     18  C   UNL     1       1.080   9.895  19.720  0.00  0.00    +0.000 C 
ATOM     19  H   UNL     1       2.836   8.860  17.924  0.00  0.00    +0.000 HD
ENDBRANCH   4   7
BRANCH   1  21
ATOM     20  N   UNL     1       5.639   4.202  13.690  0.00  0.00    +0.000 N 
ATOM     21  C   UNL     1       5.775   4.080  15.062  0.00  0.00    +0.000 C 
ATOM     22  O   UNL     1       6.490   3.250  15.609  0.00  0.00    +0.000 OA
ATOM     23  H   UNL     1       5.199   5.037  13.329  0.00  0.00    +0.000 HD
BRANCH  20  24
ATOM     24  C   UNL     1       6.341   3.354  12.726  0.00  0.00    +0.000 C 
BRANCH  24  26
ATOM     25  C   UNL     1       4.148   3.437  11.373  0.00  0.00    +0.000 C 
ATOM     26  C   UNL     1       5.303   2.586  11.883  0.00  0.00    +0.000 C 
ENDBRANCH  24  26
BRANCH  24  27
ATOM     27  C   UNL     1       7.356   4.162  11.894  0.00  0.00    +0.000 C 
ATOM     28  C   UNL     1       7.897   5.412  12.575  0.00  0.00    +0.000 C 
ENDBRANCH  24  27
ENDBRANCH  20  24
ENDBRANCH   1  21
TORSDOF 5
ENDMDL
MODEL 3
REMARK VINA RESULT:      -7.7      4.289      6.666
REMARK  Name = 
REMARK  7 active torsions:
REMARK  status: ('A' for Active; 'I' for Inactive)
REMARK    1  A    between atoms: C_1  and  C_2
REMARK    2  A    between atoms: C_2  and  C_3
REMARK    3  A    between atoms: C_3  and  C_4
REMARK    4  A    between atoms: C_3  and  N_6
REMARK    5  A    between atoms: C_4  and  C_5
REMARK    6  A    between atoms: C_7  and  C_9
REMARK    7  A    between atoms: C_12  and  N_13
REMARK                            x       y       z     vdW  Elec       q    Type
REMARK                         _______ _______ _______ _____ _____    ______ ____
ROOT
ATOM      1  C   UNL     1       2.256   7.443  19.186  0.00  0.00    +0.000 A 
ATOM      2  C   UNL     1       1.669   8.078  20.279  0.00  0.00    +0.000 A 
ATOM      3  C   UNL     1       1.163   9.377  20.150  0.00  0.00    +0.000 A 
ATOM      4  C   UNL     1       1.257  10.096  18.949  0.00  0.00    +0.000 A 
ATOM      5  C   UNL     1       1.847   9.454  17.854  0.00  0.00    +0.000 A 
ATOM      6  C   UNL     1       2.358   8.143  17.976  0.00  0.00    +0.000 A 
ENDROOT
BRANCH   4   7
ATOM      7  N   UNL     1       0.788  11.441  18.830  0.00  0.00    +0.000 N 
ATOM      8  C   UNL     1       1.623  12.514  18.620  0.00  0.00    +0.000 C 
ATOM      9  O   UNL     1       2.831  12.397  18.408  0.00  0.00    +0.000 OA
ATOM     10  N   UNL     1       1.089  13.777  18.653  0.00  0.00    +0.000 N 
ATOM     11  C   UNL     1       2.052  14.865  18.503  0.00  0.00    +0.000 C 
ATOM     12  C   UNL     1       1.237  16.104  18.598  0.00  0.00    +0.000 A 
ATOM     13  C   UNL     1       1.694  17.411  18.519  0.00  0.00    +0.000 A 
ATOM     14  C   UNL     1       0.768  18.437  18.644  0.00  0.00    +0.000 A 
ATOM     15  C   UNL     1      -0.588  18.139  18.843  0.00  0.00    +0.000 A 
ATOM     16  C   UNL     1      -1.037  16.809  18.916  0.00  0.00    +0.000 A 
ATOM     17  C   UNL     1      -0.109  15.786  18.793  0.00  0.00    +0.000 A 
ATOM     18  C   UNL     1      -0.282  14.287  18.823  0.00  0.00    +0.000 C 
ATOM     19  H   UNL     1      -0.198  11.577  18.657  0.00  0.00    +0.000 HD
ENDBRANCH   4   7
BRANCH   1  21
ATOM     20  N   UNL     1       1.818   5.048  19.302  0.00  0.00    +0.000 N 
ATOM     21  C   UNL     1       2.778   6.045  19.305  0.00  0.00    +0.000 C 
ATOM     22  O   UNL     1       3.982   5.837  19.377  0.00  0.00    +0.000 OA
ATOM     23  H   UNL     1       0.876   5.296  19.032  0.00  0.00    +0.000 HD
BRANCH  20  24
ATOM     24  C   UNL     1       2.130   3.620  19.380  0.00  0.00    +0.000 C 
BRANCH  24  26
ATOM     25  C   UNL     1       1.594   2.641  21.705  0.00  0.00    +0.000 C 
ATOM     26  C   UNL     1       1.098   2.929  20.294  0.00  0.00    +0.000 C 
ENDBRANCH  24  26
BRANCH  24  27
ATOM     27  C   UNL     1       2.252   2.990  17.978  0.00  0.00    +0.000 C 
ATOM     28  C   UNL     1       3.399   2.002  17.814  0.00  0.00    +0.000 C 
ENDBRANCH  24  27
ENDBRANCH  20  24
ENDBRANCH   1  21
TORSDOF 5
ENDMDL
MODEL 4
REMARK VINA RESULT:      -7.6      2.217      3.812
REMARK  Name = 
REMARK  7 active torsions:
REMARK  status: ('A' for Active; 'I' for Inactive)
REMARK    1  A    between atoms: C_1  and  C_2
REMARK    2  A    between atoms: C_2  and  C_3
REMARK    3  A    between atoms: C_3  and  C_4
REMARK    4  A    between atoms: C_3  and  N_6
REMARK    5  A    between atoms: C_4  and  C_5
REMARK    6  A    between atoms: C_7  and  C_9
REMARK    7  A    between atoms: C_12  and  N_13
REMARK                            x       y       z     vdW  Elec       q    Type
REMARK                         _______ _______ _______ _____ _____    ______ ____
ROOT
ATOM      1  C   UNL     1       3.103   6.327  18.340  0.00  0.00    +0.000 A 
ATOM      2  C   UNL     1       2.918   7.606  17.819  0.00  0.00    +0.000 A 
ATOM      3  C   UNL     1       2.225   8.574  18.558  0.00  0.00    +0.000 A 
ATOM      4  C   UNL     1       1.666   8.290  19.813  0.00  0.00    +0.000 A 
ATOM      5  C   UNL     1       1.855   7.005  20.332  0.00  0.00    +0.000 A 
ATOM      6  C   UNL     1       2.555   6.025  19.594  0.00  0.00    +0.000 A 
ENDROOT
BRANCH   4   7
ATOM      7  N   UNL     1       0.914   9.261  20.545  0.00  0.00    +0.000 N 
ATOM      8  C   UNL     1      -0.069  10.038  19.976  0.00  0.00    +0.000 C 
ATOM      9  O   UNL     1      -0.459   9.889  18.817  0.00  0.00    +0.000 OA
ATOM     10  N   UNL     1      -0.639  11.031  20.731  0.00  0.00    +0.000 N 
ATOM     11  C   UNL     1      -1.615  11.864  20.031  0.00  0.00    +0.000 C 
ATOM     12  C   UNL     1      -2.055  12.858  21.044  0.00  0.00    +0.000 A 
ATOM     13  C   UNL     1      -2.978  13.877  20.865  0.00  0.00    +0.000 A 
ATOM     14  C   UNL     1      -3.246  14.714  21.940  0.00  0.00    +0.000 A 
ATOM     15  C   UNL     1      -2.591  14.516  23.164  0.00  0.00    +0.000 A 
ATOM     16  C   UNL     1      -1.661  13.475  23.331  0.00  0.00    +0.000 A 
ATOM     17  C   UNL     1      -1.395  12.643  22.256  0.00  0.00    +0.000 A 
ATOM     18  C   UNL     1      -0.468  11.457  22.130  0.00  0.00    +0.000 C 
ATOM     19  H   UNL     1       0.939   9.206  21.554  0.00  0.00    +0.000 HD
ENDBRANCH   4   7
BRANCH   1  21
ATOM     20  N   UNL     1       5.187   5.602  17.304  0.00  0.00    +0.000 N 
ATOM     21  C   UNL     1       3.864   5.293  17.570  0.00  0.00    +0.000 C 
ATOM     22  O   UNL     1       3.323   4.247  17.235  0.00  0.00    +0.000 OA
ATOM     23  H   UNL     1       5.600   6.382  17.794  0.00  0.00    +0.000 HD
BRANCH  20  24
ATOM     24  C   UNL     1       6.101   4.707  16.591  0.00  0.00    +0.000 C 
BRANCH  24  26
ATOM     25  C   UNL     1       5.905   4.053  14.105  0.00  0.00    +0.000 C 
ATOM     26  C   UNL     1       6.192   5.153  15.117  0.00  0.00    +0.000 C 
ENDBRANCH  24  26
BRANCH  24  27
ATOM     27  C   UNL     1       7.464   4.606  17.304  0.00  0.00    +0.000 C 
ATOM     28  C   UNL     1       7.631   5.521  18.509  0.00  0.00    +0.000 C 
ENDBRANCH  24  27
ENDBRANCH  20  24
ENDBRANCH   1  21
TORSDOF 5
ENDMDL
MODEL 5
REMARK VINA RESULT:      -7.5      2.641      4.980
REMARK  Name = 
REMARK  7 active torsions:
REMARK  status: ('A' for Active; 'I' for Inactive)
REMARK    1  A    between atoms: C_1  and  C_2
REMARK    2  A    between atoms: C_2  and  C_3
REMARK    3  A    between atoms: C_3  and  C_4
REMARK    4  A    between atoms: C_3  and  N_6
REMARK    5  A    between atoms: C_4  and  C_5
REMARK    6  A    between atoms: C_7  and  C_9
REMARK    7  A    between atoms: C_12  and  N_13
REMARK                            x       y       z     vdW  Elec       q    Type
REMARK                         _______ _______ _______ _____ _____    ______ ____
ROOT
ATOM      1  C   UNL     1       2.492   7.604  18.613  0.00  0.00    +0.000 A 
ATOM      2  C   UNL     1       2.053   8.609  17.754  0.00  0.00    +0.000 A 
ATOM      3  C   UNL     1       1.169   9.593  18.215  0.00  0.00    +0.000 A 
ATOM      4  C   UNL     1       0.667   9.586  19.525  0.00  0.00    +0.000 A 
ATOM      5  C   UNL     1       1.112   8.575  20.384  0.00  0.00    +0.000 A 
ATOM      6  C   UNL     1       2.005   7.581  19.927  0.00  0.00    +0.000 A 
ENDROOT
BRANCH   4   7
ATOM      7  N   UNL     1      -0.276  10.559  19.983  0.00  0.00    +0.000 N 
ATOM      8  C   UNL     1      -0.096  11.302  21.126  0.00  0.00    +0.000 C 
ATOM      9  O   UNL     1       0.938  11.271  21.795  0.00  0.00    +0.000 OA
ATOM     10  N   UNL     1      -1.120  12.112  21.549  0.00  0.00    +0.000 N 
ATOM     11  C   UNL     1      -0.884  12.804  22.814  0.00  0.00    +0.000 C 
ATOM     12  C   UNL     1      -2.128  13.580  23.055  0.00  0.00    +0.000 A 
ATOM     13  C   UNL     1      -2.401  14.404  24.136  0.00  0.00    +0.000 A 
ATOM     14  C   UNL     1      -3.635  15.036  24.183  0.00  0.00    +0.000 A 
ATOM     15  C   UNL     1      -4.567  14.834  23.154  0.00  0.00    +0.000 A 
ATOM     16  C   UNL     1      -4.274  14.000  22.062  0.00  0.00    +0.000 A 
ATOM     17  C   UNL     1      -3.041  13.368  22.019  0.00  0.00    +0.000 A 
ATOM     18  C   UNL     1      -2.444  12.434  20.994  0.00  0.00    +0.000 C 
ATOM     19  H   UNL     1      -0.972  10.877  19.324  0.00  0.00    +0.000 HD
ENDBRANCH   4   7
BRANCH   1  21
ATOM     20  N   UNL     1       4.585   7.044  17.496  0.00  0.00    +0.000 N 
ATOM     21  C   UNL     1       3.457   6.563  18.138  0.00  0.00    +0.000 C 
ATOM     22  O   UNL     1       3.239   5.376  18.344  0.00  0.00    +0.000 OA
ATOM     23  H   UNL     1       4.781   8.033  17.557  0.00  0.00    +0.000 HD
BRANCH  20  24
ATOM     24  C   UNL     1       5.656   6.186  16.987  0.00  0.00    +0.000 C 
BRANCH  24  26
ATOM     25  C   UNL     1       5.495   4.442  15.093  0.00  0.00    +0.000 C 
ATOM     26  C   UNL     1       5.411   5.910  15.489  0.00  0.00    +0.000 C 
ENDBRANCH  24  26
BRANCH  24  27
ATOM     27  C   UNL     1       7.048   6.772  17.300  0.00  0.00    +0.000 C 
ATOM     28  C   UNL     1       7.682   6.269  18.590  0.00  0.00    +0.000 C 
ENDBRANCH  24  27
ENDBRANCH  20  24
ENDBRANCH   1  21
TORSDOF 5
ENDMDL
MODEL 6
REMARK VINA RESULT:      -7.5      2.344      4.128
REMARK  Name = 
REMARK  7 active torsions:
REMARK  status: ('A' for Active; 'I' for Inactive)
REMARK    1  A    between atoms: C_1  and  C_2
REMARK    2  A    between atoms: C_2  and  C_3
REMARK    3  A    between atoms: C_3  and  C_4
REMARK    4  A    between atoms: C_3  and  N_6
REMARK    5  A    between atoms: C_4  and  C_5
REMARK    6  A    between atoms: C_7  and  C_9
REMARK    7  A    between atoms: C_12  and  N_13
REMARK                            x       y       z     vdW  Elec       q    Type
REMARK                         _______ _______ _______ _____ _____    ______ ____
ROOT
ATOM      1  C   UNL     1       3.332   6.529  18.538  0.00  0.00    +0.000 A 
ATOM      2  C   UNL     1       3.167   7.602  17.664  0.00  0.00    +0.000 A 
ATOM      3  C   UNL     1       2.308   8.656  17.997  0.00  0.00    +0.000 A 
ATOM      4  C   UNL     1       1.560   8.659  19.184  0.00  0.00    +0.000 A 
ATOM      5  C   UNL     1       1.729   7.580  20.059  0.00  0.00    +0.000 A 
ATOM      6  C   UNL     1       2.596   6.514  19.732  0.00  0.00    +0.000 A 
ENDROOT
BRANCH   4   7
ATOM      7  N   UNL     1       0.642   9.709  19.501  0.00  0.00    +0.000 N 
ATOM      8  C   UNL     1       0.521  10.247  20.761  0.00  0.00    +0.000 C 
ATOM      9  O   UNL     1       1.264   9.949  21.697  0.00  0.00    +0.000 OA
ATOM     10  N   UNL     1      -0.480  11.157  20.992  0.00  0.00    +0.000 N 
ATOM     11  C   UNL     1      -0.594  11.620  22.373  0.00  0.00    +0.000 C 
ATOM     12  C   UNL     1      -1.746  12.559  22.359  0.00  0.00    +0.000 A 
ATOM     13  C   UNL     1      -2.261  13.264  23.437  0.00  0.00    +0.000 A 
ATOM     14  C   UNL     1      -3.356  14.087  23.219  0.00  0.00    +0.000 A 
ATOM     15  C   UNL     1      -3.912  14.190  21.935  0.00  0.00    +0.000 A 
ATOM     16  C   UNL     1      -3.377  13.473  20.851  0.00  0.00    +0.000 A 
ATOM     17  C   UNL     1      -2.284  12.651  21.073  0.00  0.00    +0.000 A 
ATOM     18  C   UNL     1      -1.498  11.775  20.126  0.00  0.00    +0.000 C 
ATOM     19  H   UNL     1       0.246  10.229  18.731  0.00  0.00    +0.000 HD
ENDBRANCH   4   7
BRANCH   1  21
ATOM     20  N   UNL     1       5.332   5.746  17.387  0.00  0.00    +0.000 N 
ATOM     21  C   UNL     1       4.268   5.409  18.205  0.00  0.00    +0.000 C 
ATOM     22  O   UNL     1       4.082   4.289  18.662  0.00  0.00    +0.000 OA
ATOM     23  H   UNL     1       5.520   6.727  17.232  0.00  0.00    +0.000 HD
BRANCH  20  24
ATOM     24  C   UNL     1       6.370   4.799  16.975  0.00  0.00    +0.000 C 
BRANCH  24  26
ATOM     25  C   UNL     1       5.950   4.159  14.512  0.00  0.00    +0.000 C 
ATOM     26  C   UNL     1       6.710   5.043  15.490  0.00  0.00    +0.000 C 
ENDBRANCH  24  26
BRANCH  24  27
ATOM     27  C   UNL     1       7.588   4.848  17.917  0.00  0.00    +0.000 C 
ATOM     28  C   UNL     1       7.788   6.170  18.645  0.00  0.00    +0.000 C 
ENDBRANCH  24  27
ENDBRANCH  20  24
ENDBRANCH   1  21
TORSDOF 5
ENDMDL
MODEL 7
REMARK VINA RESULT:      -7.4      2.531      4.749
REMARK  Name = 
REMARK  7 active torsions:
REMARK  status: ('A' for Active; 'I' for Inactive)
REMARK    1  A    between atoms: C_1  and  C_2
REMARK    2  A    between atoms: C_2  and  C_3
REMARK    3  A    between atoms: C_3  and  C_4
REMARK    4  A    between atoms: C_3  and  N_6
REMARK    5  A    between atoms: C_4  and  C_5
REMARK    6  A    between atoms: C_7  and  C_9
REMARK    7  A    between atoms: C_12  and  N_13
REMARK                            x       y       z     vdW  Elec       q    Type
REMARK                         _______ _______ _______ _____ _____    ______ ____
ROOT
ATOM      1  C   UNL     1       2.807   7.301  18.611  0.00  0.00    +0.000 A 
ATOM      2  C   UNL     1       2.220   7.279  19.875  0.00  0.00    +0.000 A 
ATOM      3  C   UNL     1       1.287   8.258  20.235  0.00  0.00    +0.000 A 
ATOM      4  C   UNL     1       0.938   9.306  19.370  0.00  0.00    +0.000 A 
ATOM      5  C   UNL     1       1.529   9.324  18.103  0.00  0.00    +0.000 A 
ATOM      6  C   UNL     1       2.469   8.338  17.730  0.00  0.00    +0.000 A 
ENDROOT
BRANCH   4   7
ATOM      7  N   UNL     1       0.024  10.337  19.756  0.00  0.00    +0.000 N 
ATOM      8  C   UNL     1       0.131  11.034  20.937  0.00  0.00    +0.000 C 
ATOM      9  O   UNL     1       1.080  10.907  21.712  0.00  0.00    +0.000 OA
ATOM     10  N   UNL     1      -0.870  11.909  21.275  0.00  0.00    +0.000 N 
ATOM     11  C   UNL     1      -0.724  12.548  22.581  0.00  0.00    +0.000 C 
ATOM     12  C   UNL     1      -1.927  13.411  22.713  0.00  0.00    +0.000 A 
ATOM     13  C   UNL     1      -2.256  14.225  23.786  0.00  0.00    +0.000 A 
ATOM     14  C   UNL     1      -3.438  14.949  23.721  0.00  0.00    +0.000 A 
ATOM     15  C   UNL     1      -4.263  14.846  22.591  0.00  0.00    +0.000 A 
ATOM     16  C   UNL     1      -3.914  14.020  21.509  0.00  0.00    +0.000 A 
ATOM     17  C   UNL     1      -2.733  13.297  21.578  0.00  0.00    +0.000 A 
ATOM     18  C   UNL     1      -2.098  12.346  20.591  0.00  0.00    +0.000 C 
ATOM     19  H   UNL     1      -0.570  10.725  19.037  0.00  0.00    +0.000 HD
ENDBRANCH   4   7
BRANCH   1  21
ATOM     20  N   UNL     1       4.932   6.702  17.579  0.00  0.00    +0.000 N 
ATOM     21  C   UNL     1       3.786   6.244  18.206  0.00  0.00    +0.000 C 
ATOM     22  O   UNL     1       3.563   5.065  18.449  0.00  0.00    +0.000 OA
ATOM     23  H   UNL     1       5.126   7.694  17.609  0.00  0.00    +0.000 HD
BRANCH  20  24
ATOM     24  C   UNL     1       6.020   5.828  17.136  0.00  0.00    +0.000 C 
BRANCH  24  26
ATOM     25  C   UNL     1       5.389   4.310  15.149  0.00  0.00    +0.000 C 
ATOM     26  C   UNL     1       5.934   5.656  15.606  0.00  0.00    +0.000 C 
ENDBRANCH  24  26
BRANCH  24  27
ATOM     27  C   UNL     1       7.389   6.328  17.639  0.00  0.00    +0.000 C 
ATOM     28  C   UNL     1       7.613   7.828  17.511  0.00  0.00    +0.000 C 
ENDBRANCH  24  27
ENDBRANCH  20  24
ENDBRANCH   1  21
TORSDOF 5
ENDMDL
MODEL 8
REMARK VINA RESULT:      -7.4      3.437      5.550
REMARK  Name = 
REMARK  7 active torsions:
REMARK  status: ('A' for Active; 'I' for Inactive)
REMARK    1  A    between atoms: C_1  and  C_2
REMARK    2  A    between atoms: C_2  and  C_3
REMARK    3  A    between atoms: C_3  and  C_4
REMARK    4  A    between atoms: C_3  and  N_6
REMARK    5  A    between atoms: C_4  and  C_5
REMARK    6  A    between atoms: C_7  and  C_9
REMARK    7  A    between atoms: C_12  and  N_13
REMARK                            x       y       z     vdW  Elec       q    Type
REMARK                         _______ _______ _______ _____ _____    ______ ____
ROOT
ATOM      1  C   UNL     1       2.339   7.878  18.589  0.00  0.00    +0.000 A 
ATOM      2  C   UNL     1       1.773   8.925  17.864  0.00  0.00    +0.000 A 
ATOM      3  C   UNL     1       0.907   9.828  18.492  0.00  0.00    +0.000 A 
ATOM      4  C   UNL     1       0.549   9.698  19.843  0.00  0.00    +0.000 A 
ATOM      5  C   UNL     1       1.120   8.646  20.566  0.00  0.00    +0.000 A 
ATOM      6  C   UNL     1       1.997   7.732  19.941  0.00  0.00    +0.000 A 
ENDROOT
BRANCH   4   7
ATOM      7  N   UNL     1      -0.376  10.589  20.472  0.00  0.00    +0.000 N 
ATOM      8  C   UNL     1       0.015  11.698  21.187  0.00  0.00    +0.000 C 
ATOM      9  O   UNL     1       1.184  12.078  21.255  0.00  0.00    +0.000 OA
ATOM     10  N   UNL     1      -0.942  12.413  21.862  0.00  0.00    +0.000 N 
ATOM     11  C   UNL     1      -0.437  13.526  22.663  0.00  0.00    +0.000 C 
ATOM     12  C   UNL     1      -1.647  14.108  23.300  0.00  0.00    +0.000 A 
ATOM     13  C   UNL     1      -1.695  15.192  24.164  0.00  0.00    +0.000 A 
ATOM     14  C   UNL     1      -2.931  15.577  24.664  0.00  0.00    +0.000 A 
ATOM     15  C   UNL     1      -4.088  14.876  24.292  0.00  0.00    +0.000 A 
ATOM     16  C   UNL     1      -4.024  13.783  23.412  0.00  0.00    +0.000 A 
ATOM     17  C   UNL     1      -2.788  13.400  22.916  0.00  0.00    +0.000 A 
ATOM     18  C   UNL     1      -2.405  12.290  21.966  0.00  0.00    +0.000 C 
ATOM     19  H   UNL     1      -1.343  10.537  20.184  0.00  0.00    +0.000 HD
ENDBRANCH   4   7
BRANCH   1  21
ATOM     20  N   UNL     1       3.122   5.591  18.278  0.00  0.00    +0.000 N 
ATOM     21  C   UNL     1       3.287   6.921  17.934  0.00  0.00    +0.000 C 
ATOM     22  O   UNL     1       4.123   7.325  17.137  0.00  0.00    +0.000 OA
ATOM     23  H   UNL     1       2.283   5.329  18.776  0.00  0.00    +0.000 HD
BRANCH  20  24
ATOM     24  C   UNL     1       3.930   4.503  17.723  0.00  0.00    +0.000 C 
BRANCH  24  26
ATOM     25  C   UNL     1       6.215   4.847  18.869  0.00  0.00    +0.000 C 
ATOM     26  C   UNL     1       4.934   4.027  18.792  0.00  0.00    +0.000 C 
ENDBRANCH  24  26
BRANCH  24  27
ATOM     27  C   UNL     1       3.047   3.381  17.143  0.00  0.00    +0.000 C 
ATOM     28  C   UNL     1       3.012   2.099  17.964  0.00  0.00    +0.000 C 
ENDBRANCH  24  27
ENDBRANCH  20  24
ENDBRANCH   1  21
TORSDOF 5
ENDMDL
MODEL 9
REMARK VINA RESULT:      -7.4      2.491      4.562
REMARK  Name = 
REMARK  7 active torsions:
REMARK  status: ('A' for Active; 'I' for Inactive)
REMARK    1  A    between atoms: C_1  and  C_2
REMARK    2  A    between atoms: C_2  and  C_3
REMARK    3  A    between atoms: C_3  and  C_4
REMARK    4  A    between atoms: C_3  and  N_6
REMARK    5  A    between atoms: C_4  and  C_5
REMARK    6  A    between atoms: C_7  and  C_9
REMARK    7  A    between atoms: C_12  and  N_13
REMARK                            x       y       z     vdW  Elec       q    Type
REMARK                         _______ _______ _______ _____ _____    ______ ____
ROOT
ATOM      1  C   UNL     1       2.715   7.111  18.600  0.00  0.00    +0.000 A 
ATOM      2  C   UNL     1       2.329   6.894  19.921  0.00  0.00    +0.000 A 
ATOM      3  C   UNL     1       1.491   7.809  20.569  0.00  0.00    +0.000 A 
ATOM      4  C   UNL     1       1.044   8.982  19.941  0.00  0.00    +0.000 A 
ATOM      5  C   UNL     1       1.434   9.196  18.615  0.00  0.00    +0.000 A 
ATOM      6  C   UNL     1       2.277   8.275  17.953  0.00  0.00    +0.000 A 
ENDROOT
BRANCH   4   7
ATOM      7  N   UNL     1       0.232   9.944  20.619  0.00  0.00    +0.000 N 
ATOM      8  C   UNL     1       0.591  11.264  20.765  0.00  0.00    +0.000 C 
ATOM      9  O   UNL     1       1.588  11.754  20.233  0.00  0.00    +0.000 OA
ATOM     10  N   UNL     1      -0.193  12.075  21.545  0.00  0.00    +0.000 N 
ATOM     11  C   UNL     1       0.299  13.440  21.717  0.00  0.00    +0.000 C 
ATOM     12  C   UNL     1      -0.699  14.089  22.606  0.00  0.00    +0.000 A 
ATOM     13  C   UNL     1      -0.677  15.396  23.070  0.00  0.00    +0.000 A 
ATOM     14  C   UNL     1      -1.703  15.812  23.906  0.00  0.00    +0.000 A 
ATOM     15  C   UNL     1      -2.725  14.919  24.261  0.00  0.00    +0.000 A 
ATOM     16  C   UNL     1      -2.736  13.599  23.779  0.00  0.00    +0.000 A 
ATOM     17  C   UNL     1      -1.709  13.186  22.945  0.00  0.00    +0.000 A 
ATOM     18  C   UNL     1      -1.453  11.857  22.276  0.00  0.00    +0.000 C 
ATOM     19  H   UNL     1      -0.735   9.703  20.785  0.00  0.00    +0.000 HD
ENDBRANCH   4   7
BRANCH   1  21
ATOM     20  N   UNL     1       4.806   6.617  17.449  0.00  0.00    +0.000 N 
ATOM     21  C   UNL     1       3.589   6.126  17.888  0.00  0.00    +0.000 C 
ATOM     22  O   UNL     1       3.225   4.966  17.743  0.00  0.00    +0.000 OA
ATOM     23  H   UNL     1       5.106   7.518  17.794  0.00  0.00    +0.000 HD
BRANCH  20  24
ATOM     24  C   UNL     1       5.809   5.803  16.761  0.00  0.00    +0.000 C 
BRANCH  24  26
ATOM     25  C   UNL     1       6.081   4.566  14.514  0.00  0.00    +0.000 C 
ATOM     26  C   UNL     1       5.460   5.739  15.260  0.00  0.00    +0.000 C 
ENDBRANCH  24  26
BRANCH  24  27
ATOM     27  C   UNL     1       7.239   6.298  17.055  0.00  0.00    +0.000 C 
ATOM     28  C   UNL     1       7.665   6.205  18.514  0.00  0.00    +0.000 C 
ENDBRANCH  24  27
ENDBRANCH  20  24
ENDBRANCH   1  21
TORSDOF 5
ENDMDL
