MODEL 1
REMARK VINA RESULT:      -9.4      0.000      0.000
REMARK  Name = 
REMARK  7 active torsions:
REMARK  status: ('A' for Active; 'I' for Inactive)
REMARK    1  A    between atoms: C_1  and  C_2
REMARK    2  A    between atoms: C_7  and  N_8
REMARK    3  A    between atoms: C_10  and  C_11
REMARK    4  A    between atoms: C_15  and  N_16
REMARK    5  A    between atoms: N_16  and  C_17
REMARK    6  A    between atoms: C_17  and  C_18
REMARK    7  A    between atoms: C_17  and  C_19
REMARK                            x       y       z     vdW  Elec       q    Type
REMARK                         _______ _______ _______ _____ _____    ______ ____
ROOT
ATOM      1  N   UNL     1       2.249   6.203  19.610  0.00  0.00    +0.000 N 
ATOM      2  N   UNL     1       1.674   5.586  20.677  0.00  0.00    +0.000 NA
ATOM      3  C   UNL     1       2.001   4.297  20.558  0.00  0.00    +0.000 A 
ATOM      4  C   UNL     1       1.449   3.296  21.505  0.00  0.00    +0.000 C 
ATOM      5  C   UNL     1       2.869   4.073  19.466  0.00  0.00    +0.000 A 
ATOM      6  C   UNL     1       3.526   2.974  18.910  0.00  0.00    +0.000 A 
ATOM      7  N   UNL     1       4.230   3.106  17.754  0.00  0.00    +0.000 NA
ATOM      8  C   UNL     1       4.363   4.320  17.187  0.00  0.00    +0.000 A 
ATOM      9  C   UNL     1       3.873   5.481  17.770  0.00  0.00    +0.000 A 
ATOM     10  C   UNL     1       3.035   5.321  18.878  0.00  0.00    +0.000 A 
ENDROOT
BRANCH   1  17
ATOM     11  C   UNL     1       1.087   8.024  21.688  0.00  0.00    +0.000 C 
ATOM     12  C   UNL     1       1.360   8.426  20.263  0.00  0.00    +0.000 A 
ATOM     13  C   UNL     1       1.059   9.748  19.880  0.00  0.00    +0.000 A 
ATOM     14  C   UNL     1       1.360  10.221  18.603  0.00  0.00    +0.000 A 
ATOM     15  C   UNL     1       1.959   9.378  17.675  0.00  0.00    +0.000 A 
ATOM     16  C   UNL     1       2.242   8.057  18.022  0.00  0.00    +0.000 A 
ATOM     17  C   UNL     1       1.953   7.568  19.311  0.00  0.00    +0.000 A 
ENDBRANCH   1  17
BRANCH   8  18
ATOM     18  N   UNL     1       4.952   4.468  15.930  0.00  0.00    +0.000 N 
ATOM     19  H   UNL     1       4.600   5.305  15.476  0.00  0.00    +0.000 HD
BRANCH  18  20
ATOM     20  C   UNL     1       6.403   4.327  15.825  0.00  0.00    +0.000 C 
ATOM     21  C   UNL     1       6.888   4.683  14.409  0.00  0.00    +0.000 C 
BRANCH  20  22
ATOM     22  C   UNL     1       7.018   5.283  16.841  0.00  0.00    +0.000 A 
ATOM     23  C   UNL     1       7.069   6.673  16.605  0.00  0.00    +0.000 A 
ATOM     24  C   UNL     1       7.629   7.543  17.539  0.00  0.00    +0.000 A 
ATOM     25  C   UNL     1       8.140   7.047  18.732  0.00  0.00    +0.000 A 
ATOM     26  C   UNL     1       8.095   5.677  18.991  0.00  0.00    +0.000 A 
ATOM     27  C   UNL     1       7.539   4.802  18.053  0.00  0.00    +0.000 A 
ENDBRANCH  20  22
ENDBRANCH  18  20
ENDBRANCH   8  18
TORSDOF 4
ENDMDL
MODEL 2
REMARK VINA RESULT:      -9.3      1.655      6.613
REMARK  Name = 
REMARK  7 active torsions:
REMARK  status: ('A' for Active; 'I' for Inactive)
REMARK    1  A    between atoms: C_1  and  C_2
REMARK    2  A    between atoms: C_7  and  N_8
REMARK    3  A    between atoms: C_10  and  C_11
REMARK    4  A    between atoms: C_15  and  N_16
REMARK    5  A    between atoms: N_16  and  C_17
REMARK    6  A    between atoms: C_17  and  C_18
REMARK    7  A    between atoms: C_17  and  C_19
REMARK                            x       y       z     vdW  Elec       q    Type
REMARK                         _______ _______ _______ _____ _____    ______ ____
ROOT
ATOM      1  N   UNL     1       4.699   4.738  18.556  0.00  0.00    +0.000 N 
ATOM      2  N   UNL     1       4.757   3.442  18.145  0.00  0.00    +0.000 NA
ATOM      3  C   UNL     1       3.634   2.879  18.598  0.00  0.00    +0.000 A 
ATOM      4  C   UNL     1       3.405   1.423  18.424  0.00  0.00    +0.000 C 
ATOM      5  C   UNL     1       2.789   3.821  19.227  0.00  0.00    +0.000 A 
ATOM      6  C   UNL     1       1.531   3.800  19.832  0.00  0.00    +0.000 A 
ATOM      7  N   UNL     1       1.045   4.912  20.446  0.00  0.00    +0.000 NA
ATOM      8  C   UNL     1       1.744   6.062  20.400  0.00  0.00    +0.000 A 
ATOM      9  C   UNL     1       2.924   6.197  19.679  0.00  0.00    +0.000 A 
ATOM     10  C   UNL     1       3.487   5.022  19.171  0.00  0.00    +0.000 A 
ENDROOT
BRANCH   1  17
ATOM     11  C   UNL     1       4.811   6.778  16.362  0.00  0.00    +0.000 C 
ATOM     12  C   UNL     1       5.920   6.532  17.350  0.00  0.00    +0.000 A 
ATOM     13  C   UNL     1       7.084   7.318  17.246  0.00  0.00    +0.000 A 
ATOM     14  C   UNL     1       8.120   7.208  18.174  0.00  0.00    +0.000 A 
ATOM     15  C   UNL     1       8.019   6.301  19.220  0.00  0.00    +0.000 A 
ATOM     16  C   UNL     1       6.888   5.494  19.330  0.00  0.00    +0.000 A 
ATOM     17  C   UNL     1       5.830   5.600  18.407  0.00  0.00    +0.000 A 
ENDBRANCH   1  17
BRANCH   8  18
ATOM     18  N   UNL     1       1.348   7.177  21.139  0.00  0.00    +0.000 N 
ATOM     19  H   UNL     1       1.613   7.063  22.113  0.00  0.00    +0.000 HD
BRANCH  18  20
ATOM     20  C   UNL     1       1.662   8.504  20.612  0.00  0.00    +0.000 C 
ATOM     21  C   UNL     1       1.372   8.578  19.103  0.00  0.00    +0.000 C 
BRANCH  20  22
ATOM     22  C   UNL     1       0.783   9.500  21.360  0.00  0.00    +0.000 A 
ATOM     23  C   UNL     1       0.639  10.831  20.916  0.00  0.00    +0.000 A 
ATOM     24  C   UNL     1      -0.169  11.736  21.602  0.00  0.00    +0.000 A 
ATOM     25  C   UNL     1      -0.859  11.330  22.739  0.00  0.00    +0.000 A 
ATOM     26  C   UNL     1      -0.737  10.017  23.193  0.00  0.00    +0.000 A 
ATOM     27  C   UNL     1       0.077   9.110  22.510  0.00  0.00    +0.000 A 
ENDBRANCH  20  22
ENDBRANCH  18  20
ENDBRANCH   8  18
TORSDOF 4
ENDMDL
MODEL 3
REMARK VINA RESULT:      -9.3      1.155      2.581
REMARK  Name = 
REMARK  7 active torsions:
REMARK  status: ('A' for Active; 'I' for Inactive)
REMARK    1  A    between atoms: C_1  and  C_2
REMARK    2  A    between atoms: C_7  and  N_8
REMARK    3  A    between atoms: C_10  and  C_11
REMARK    4  A    between atoms: C_15  and  N_16
REMARK    5  A    between atoms: N_16  and  C_17
REMARK    6  A    between atoms: C_17  and  C_18
REMARK    7  A    between atoms: C_17  and  C_19
REMARK                            x       y       z     vdW  Elec       q    Type
REMARK                         _______ _______ _______ _____ _____    ______ ____
ROOT
ATOM      1  N   UNL     1       2.335   5.973  19.925  0.00  0.00    +0.000 N 
ATOM      2  N   UNL     1       1.442   5.292  20.692  0.00  0.00    +0.000 NA
ATOM      3  C   UNL     1       1.931   4.053  20.788  0.00  0.00    +0.000 A 
ATOM      4  C   UNL     1       1.153   2.993  21.475  0.00  0.00    +0.000 C 
ATOM      5  C   UNL     1       3.193   3.936  20.163  0.00  0.00    +0.000 A 
ATOM      6  C   UNL     1       4.141   2.926  19.986  0.00  0.00    +0.000 A 
ATOM      7  N   UNL     1       5.241   3.143  19.217  0.00  0.00    +0.000 NA
ATOM      8  C   UNL     1       5.460   4.362  18.690  0.00  0.00    +0.000 A 
ATOM      9  C   UNL     1       4.646   5.455  18.957  0.00  0.00    +0.000 A 
ATOM     10  C   UNL     1       3.447   5.194  19.629  0.00  0.00    +0.000 A 
ENDROOT
BRANCH   1  17
ATOM     11  C   UNL     1       1.201   8.048  21.767  0.00  0.00    +0.000 C 
ATOM     12  C   UNL     1       1.458   8.265  20.300  0.00  0.00    +0.000 A 
ATOM     13  C   UNL     1       1.156   9.528  19.756  0.00  0.00    +0.000 A 
ATOM     14  C   UNL     1       1.443   9.834  18.425  0.00  0.00    +0.000 A 
ATOM     15  C   UNL     1       2.029   8.877  17.606  0.00  0.00    +0.000 A 
ATOM     16  C   UNL     1       2.313   7.611  18.114  0.00  0.00    +0.000 A 
ATOM     17  C   UNL     1       2.038   7.290  19.458  0.00  0.00    +0.000 A 
ENDBRANCH   1  17
BRANCH   8  18
ATOM     18  N   UNL     1       6.497   4.580  17.781  0.00  0.00    +0.000 N 
ATOM     19  H   UNL     1       6.756   3.707  17.331  0.00  0.00    +0.000 HD
BRANCH  18  20
ATOM     20  C   UNL     1       6.371   5.692  16.841  0.00  0.00    +0.000 C 
ATOM     21  C   UNL     1       7.513   6.705  17.032  0.00  0.00    +0.000 C 
BRANCH  20  22
ATOM     22  C   UNL     1       6.431   5.099  15.438  0.00  0.00    +0.000 A 
ATOM     23  C   UNL     1       5.403   4.267  14.948  0.00  0.00    +0.000 A 
ATOM     24  C   UNL     1       5.462   3.730  13.662  0.00  0.00    +0.000 A 
ATOM     25  C   UNL     1       6.541   4.020  12.836  0.00  0.00    +0.000 A 
ATOM     26  C   UNL     1       7.567   4.846  13.297  0.00  0.00    +0.000 A 
ATOM     27  C   UNL     1       7.513   5.380  14.588  0.00  0.00    +0.000 A 
ENDBRANCH  20  22
ENDBRANCH  18  20
ENDBRANCH   8  18
TORSDOF 4
ENDMDL
MODEL 4
REMARK VINA RESULT:      -9.3      1.545      6.389
REMARK  Name = 
REMARK  7 active torsions:
REMARK  status: ('A' for Active; 'I' for Inactive)
REMARK    1  A    between atoms: C_1  and  C_2
REMARK    2  A    between atoms: C_7  and  N_8
REMARK    3  A    between atoms: C_10  and  C_11
REMARK    4  A    between atoms: C_15  and  N_16
REMARK    5  A    between atoms: N_16  and  C_17
REMARK    6  A    between atoms: C_17  and  C_18
REMARK    7  A    between atoms: C_17  and  C_19
REMARK                            x       y       z     vdW  Elec       q    Type
REMARK                         _______ _______ _______ _____ _____    ______ ____
ROOT
ATOM      1  N   UNL     1       4.508   4.848  18.597  0.00  0.00    +0.000 N 
ATOM      2  N   UNL     1       4.433   3.558  18.172  0.00  0.00    +0.000 NA
ATOM      3  C   UNL     1       3.284   3.090  18.667  0.00  0.00    +0.000 A 
ATOM      4  C   UNL     1       2.920   1.662  18.489  0.00  0.00    +0.000 C 
ATOM      5  C   UNL     1       2.553   4.094  19.340  0.00  0.00    +0.000 A 
ATOM      6  C   UNL     1       1.324   4.178  19.998  0.00  0.00    +0.000 A 
ATOM      7  N   UNL     1       0.965   5.320  20.642  0.00  0.00    +0.000 NA
ATOM      8  C   UNL     1       1.761   6.404  20.577  0.00  0.00    +0.000 A 
ATOM      9  C   UNL     1       2.917   6.444  19.808  0.00  0.00    +0.000 A 
ATOM     10  C   UNL     1       3.351   5.230  19.265  0.00  0.00    +0.000 A 
ENDROOT
BRANCH   1  17
ATOM     11  C   UNL     1       4.766   6.785  16.324  0.00  0.00    +0.000 C 
ATOM     12  C   UNL     1       5.860   6.488  17.315  0.00  0.00    +0.000 A 
ATOM     13  C   UNL     1       7.083   7.172  17.174  0.00  0.00    +0.000 A 
ATOM     14  C   UNL     1       8.115   7.014  18.100  0.00  0.00    +0.000 A 
ATOM     15  C   UNL     1       7.949   6.160  19.182  0.00  0.00    +0.000 A 
ATOM     16  C   UNL     1       6.757   5.452  19.329  0.00  0.00    +0.000 A 
ATOM     17  C   UNL     1       5.703   5.608  18.409  0.00  0.00    +0.000 A 
ENDBRANCH   1  17
BRANCH   8  18
ATOM     18  N   UNL     1       1.496   7.540  21.342  0.00  0.00    +0.000 N 
ATOM     19  H   UNL     1       2.331   8.113  21.417  0.00  0.00    +0.000 HD
BRANCH  18  20
ATOM     20  C   UNL     1       0.295   8.316  21.038  0.00  0.00    +0.000 C 
ATOM     21  C   UNL     1      -0.449   8.706  22.326  0.00  0.00    +0.000 C 
BRANCH  20  22
ATOM     22  C   UNL     1       0.751   9.570  20.301  0.00  0.00    +0.000 A 
ATOM     23  C   UNL     1       1.144   9.525  18.947  0.00  0.00    +0.000 A 
ATOM     24  C   UNL     1       1.556  10.677  18.277  0.00  0.00    +0.000 A 
ATOM     25  C   UNL     1       1.574  11.898  18.940  0.00  0.00    +0.000 A 
ATOM     26  C   UNL     1       1.184  11.968  20.277  0.00  0.00    +0.000 A 
ATOM     27  C   UNL     1       0.776  10.814  20.952  0.00  0.00    +0.000 A 
ENDBRANCH  20  22
ENDBRANCH  18  20
ENDBRANCH   8  18
TORSDOF 4
ENDMDL
MODEL 5
REMARK VINA RESULT:      -8.9      1.200      2.747
REMARK  Name = 
REMARK  7 active torsions:
REMARK  status: ('A' for Active; 'I' for Inactive)
REMARK    1  A    between atoms: C_1  and  C_2
REMARK    2  A    between atoms: C_7  and  N_8
REMARK    3  A    between atoms: C_10  and  C_11
REMARK    4  A    between atoms: C_15  and  N_16
REMARK    5  A    between atoms: N_16  and  C_17
REMARK    6  A    between atoms: C_17  and  C_18
REMARK    7  A    between atoms: C_17  and  C_19
REMARK                            x       y       z     vdW  Elec       q    Type
REMARK                         _______ _______ _______ _____ _____    ______ ____
ROOT
ATOM      1  N   UNL     1       2.348   5.965  19.718  0.00  0.00    +0.000 N 
ATOM      2  N   UNL     1       1.785   5.438  20.839  0.00  0.00    +0.000 NA
ATOM      3  C   UNL     1       2.085   4.138  20.806  0.00  0.00    +0.000 A 
ATOM      4  C   UNL     1       1.536   3.218  21.834  0.00  0.00    +0.000 C 
ATOM      5  C   UNL     1       2.924   3.818  19.716  0.00  0.00    +0.000 A 
ATOM      6  C   UNL     1       3.549   2.669  19.227  0.00  0.00    +0.000 A 
ATOM      7  N   UNL     1       4.230   2.704  18.050  0.00  0.00    +0.000 NA
ATOM      8  C   UNL     1       4.373   3.870  17.394  0.00  0.00    +0.000 A 
ATOM      9  C   UNL     1       3.918   5.080  17.902  0.00  0.00    +0.000 A 
ATOM     10  C   UNL     1       3.101   5.017  19.035  0.00  0.00    +0.000 A 
ENDROOT
BRANCH   1  17
ATOM     11  C   UNL     1       1.100   7.906  21.632  0.00  0.00    +0.000 C 
ATOM     12  C   UNL     1       1.439   8.224  20.200  0.00  0.00    +0.000 A 
ATOM     13  C   UNL     1       1.161   9.522  19.729  0.00  0.00    +0.000 A 
ATOM     14  C   UNL     1       1.521   9.919  18.441  0.00  0.00    +0.000 A 
ATOM     15  C   UNL     1       2.158   9.023  17.592  0.00  0.00    +0.000 A 
ATOM     16  C   UNL     1       2.420   7.724  18.027  0.00  0.00    +0.000 A 
ATOM     17  C   UNL     1       2.071   7.311  19.327  0.00  0.00    +0.000 A 
ENDBRANCH   1  17
BRANCH   8  18
ATOM     18  N   UNL     1       4.937   3.916  16.118  0.00  0.00    +0.000 N 
ATOM     19  H   UNL     1       4.207   3.994  15.416  0.00  0.00    +0.000 HD
BRANCH  18  20
ATOM     20  C   UNL     1       6.053   4.831  15.887  0.00  0.00    +0.000 C 
ATOM     21  C   UNL     1       7.224   4.517  16.834  0.00  0.00    +0.000 C 
BRANCH  20  22
ATOM     22  C   UNL     1       6.491   4.642  14.439  0.00  0.00    +0.000 A 
ATOM     23  C   UNL     1       5.853   3.710  13.594  0.00  0.00    +0.000 A 
ATOM     24  C   UNL     1       6.256   3.545  12.269  0.00  0.00    +0.000 A 
ATOM     25  C   UNL     1       7.294   4.313  11.757  0.00  0.00    +0.000 A 
ATOM     26  C   UNL     1       7.936   5.246  12.572  0.00  0.00    +0.000 A 
ATOM     27  C   UNL     1       7.538   5.409  13.902  0.00  0.00    +0.000 A 
ENDBRANCH  20  22
ENDBRANCH  18  20
ENDBRANCH   8  18
TORSDOF 4
ENDMDL
MODEL 6
REMARK VINA RESULT:      -8.8      1.419      2.871
REMARK  Name = 
REMARK  7 active torsions:
REMARK  status: ('A' for Active; 'I' for Inactive)
REMARK    1  A    between atoms: C_1  and  C_2
REMARK    2  A    between atoms: C_7  and  N_8
REMARK    3  A    between atoms: C_10  and  C_11
REMARK    4  A    between atoms: C_15  and  N_16
REMARK    5  A    between atoms: N_16  and  C_17
REMARK    6  A    between atoms: C_17  and  C_18
REMARK    7  A    between atoms: C_17  and  C_19
REMARK                            x       y       z     vdW  Elec       q    Type
REMARK                         _______ _______ _______ _____ _____    ______ ____
ROOT
ATOM      1  N   UNL     1       2.059   5.905  20.147  0.00  0.00    +0.000 N 
ATOM      2  N   UNL     1       1.135   4.929  20.356  0.00  0.00    +0.000 NA
ATOM      3  C   UNL     1       1.774   3.782  20.116  0.00  0.00    +0.000 A 
ATOM      4  C   UNL     1       1.036   2.494  20.145  0.00  0.00    +0.000 C 
ATOM      5  C   UNL     1       3.144   3.990  19.840  0.00  0.00    +0.000 A 
ATOM      6  C   UNL     1       4.250   3.185  19.558  0.00  0.00    +0.000 A 
ATOM      7  N   UNL     1       5.444   3.747  19.232  0.00  0.00    +0.000 NA
ATOM      8  C   UNL     1       5.585   5.085  19.261  0.00  0.00    +0.000 A 
ATOM      9  C   UNL     1       4.576   5.939  19.688  0.00  0.00    +0.000 A 
ATOM     10  C   UNL     1       3.314   5.369  19.885  0.00  0.00    +0.000 A 
ENDROOT
BRANCH   1  17
ATOM     11  C   UNL     1       2.271   7.544  17.645  0.00  0.00    +0.000 C 
ATOM     12  C   UNL     1       1.814   8.080  18.976  0.00  0.00    +0.000 A 
ATOM     13  C   UNL     1       1.452   9.439  19.051  0.00  0.00    +0.000 A 
ATOM     14  C   UNL     1       0.940   9.991  20.226  0.00  0.00    +0.000 A 
ATOM     15  C   UNL     1       0.789   9.197  21.355  0.00  0.00    +0.000 A 
ATOM     16  C   UNL     1       1.165   7.855  21.313  0.00  0.00    +0.000 A 
ATOM     17  C   UNL     1       1.674   7.282  20.132  0.00  0.00    +0.000 A 
ENDBRANCH   1  17
BRANCH   8  18
ATOM     18  N   UNL     1       6.748   5.699  18.794  0.00  0.00    +0.000 N 
ATOM     19  H   UNL     1       7.475   5.005  18.649  0.00  0.00    +0.000 HD
BRANCH  18  20
ATOM     20  C   UNL     1       6.633   6.648  17.688  0.00  0.00    +0.000 C 
ATOM     21  C   UNL     1       7.923   7.472  17.536  0.00  0.00    +0.000 C 
BRANCH  20  22
ATOM     22  C   UNL     1       6.386   5.832  16.425  0.00  0.00    +0.000 A 
ATOM     23  C   UNL     1       7.286   4.828  16.011  0.00  0.00    +0.000 A 
ATOM     24  C   UNL     1       7.052   4.081  14.856  0.00  0.00    +0.000 A 
ATOM     25  C   UNL     1       5.912   4.314  14.097  0.00  0.00    +0.000 A 
ATOM     26  C   UNL     1       5.005   5.298  14.489  0.00  0.00    +0.000 A 
ATOM     27  C   UNL     1       5.240   6.051  15.643  0.00  0.00    +0.000 A 
ENDBRANCH  20  22
ENDBRANCH  18  20
ENDBRANCH   8  18
TORSDOF 4
ENDMDL
MODEL 7
REMARK VINA RESULT:      -8.8      2.015      6.951
REMARK  Name = 
REMARK  7 active torsions:
REMARK  status: ('A' for Active; 'I' for Inactive)
REMARK    1  A    between atoms: C_1  and  C_2
REMARK    2  A    between atoms: C_7  and  N_8
REMARK    3  A    between atoms: C_10  and  C_11
REMARK    4  A    between atoms: C_15  and  N_16
REMARK    5  A    between atoms: N_16  and  C_17
REMARK    6  A    between atoms: C_17  and  C_18
REMARK    7  A    between atoms: C_17  and  C_19
REMARK                            x       y       z     vdW  Elec       q    Type
REMARK                         _______ _______ _______ _____ _____    ______ ____
ROOT
ATOM      1  N   UNL     1       3.859   5.005  18.620  0.00  0.00    +0.000 N 
ATOM      2  N   UNL     1       3.670   4.041  19.561  0.00  0.00    +0.000 NA
ATOM      3  C   UNL     1       2.809   4.567  20.435  0.00  0.00    +0.000 A 
ATOM      4  C   UNL     1       2.450   3.825  21.670  0.00  0.00    +0.000 C 
ATOM      5  C   UNL     1       2.355   5.841  20.026  0.00  0.00    +0.000 A 
ATOM      6  C   UNL     1       1.464   6.799  20.515  0.00  0.00    +0.000 A 
ATOM      7  N   UNL     1       1.339   8.002  19.894  0.00  0.00    +0.000 NA
ATOM      8  C   UNL     1       2.016   8.241  18.755  0.00  0.00    +0.000 A 
ATOM      9  C   UNL     1       2.794   7.278  18.126  0.00  0.00    +0.000 A 
ATOM     10  C   UNL     1       3.029   6.098  18.839  0.00  0.00    +0.000 A 
ENDROOT
BRANCH   1  17
ATOM     11  C   UNL     1       6.739   5.559  19.239  0.00  0.00    +0.000 C 
ATOM     12  C   UNL     1       6.223   5.163  17.881  0.00  0.00    +0.000 A 
ATOM     13  C   UNL     1       7.155   5.033  16.833  0.00  0.00    +0.000 A 
ATOM     14  C   UNL     1       6.768   4.588  15.568  0.00  0.00    +0.000 A 
ATOM     15  C   UNL     1       5.438   4.275  15.321  0.00  0.00    +0.000 A 
ATOM     16  C   UNL     1       4.493   4.420  16.335  0.00  0.00    +0.000 A 
ATOM     17  C   UNL     1       4.869   4.858  17.620  0.00  0.00    +0.000 A 
ENDBRANCH   1  17
BRANCH   8  18
ATOM     18  N   UNL     1       2.025   9.510  18.174  0.00  0.00    +0.000 N 
ATOM     19  H   UNL     1       1.691   9.458  17.216  0.00  0.00    +0.000 HD
BRANCH  18  20
ATOM     20  C   UNL     1       1.440  10.619  18.924  0.00  0.00    +0.000 C 
ATOM     21  C   UNL     1       2.113  11.951  18.550  0.00  0.00    +0.000 C 
BRANCH  20  22
ATOM     22  C   UNL     1      -0.041  10.667  18.565  0.00  0.00    +0.000 A 
ATOM     23  C   UNL     1      -0.935  11.520  19.246  0.00  0.00    +0.000 A 
ATOM     24  C   UNL     1      -2.288  11.562  18.911  0.00  0.00    +0.000 A 
ATOM     25  C   UNL     1      -2.775  10.763  17.884  0.00  0.00    +0.000 A 
ATOM     26  C   UNL     1      -1.909   9.916  17.192  0.00  0.00    +0.000 A 
ATOM     27  C   UNL     1      -0.554   9.868  17.530  0.00  0.00    +0.000 A 
ENDBRANCH  20  22
ENDBRANCH  18  20
ENDBRANCH   8  18
TORSDOF 4
ENDMDL
MODEL 8
REMARK VINA RESULT:      -8.8      1.287      2.899
REMARK  Name = 
REMARK  7 active torsions:
REMARK  status: ('A' for Active; 'I' for Inactive)
REMARK    1  A    between atoms: C_1  and  C_2
REMARK    2  A    between atoms: C_7  and  N_8
REMARK    3  A    between atoms: C_10  and  C_11
REMARK    4  A    between atoms: C_15  and  N_16
REMARK    5  A    between atoms: N_16  and  C_17
REMARK    6  A    between atoms: C_17  and  C_18
REMARK    7  A    between atoms: C_17  and  C_19
REMARK                            x       y       z     vdW  Elec       q    Type
REMARK                         _______ _______ _______ _____ _____    ______ ____
ROOT
ATOM      1  N   UNL     1       2.284   5.698  20.261  0.00  0.00    +0.000 N 
ATOM      2  N   UNL     1       1.391   4.937  20.949  0.00  0.00    +0.000 NA
ATOM      3  C   UNL     1       1.916   3.710  20.971  0.00  0.00    +0.000 A 
ATOM      4  C   UNL     1       1.152   2.579  21.556  0.00  0.00    +0.000 C 
ATOM      5  C   UNL     1       3.199   3.676  20.381  0.00  0.00    +0.000 A 
ATOM      6  C   UNL     1       4.184   2.709  20.163  0.00  0.00    +0.000 A 
ATOM      7  N   UNL     1       5.300   3.014  19.447  0.00  0.00    +0.000 NA
ATOM      8  C   UNL     1       5.495   4.274  19.016  0.00  0.00    +0.000 A 
ATOM      9  C   UNL     1       4.639   5.320  19.334  0.00  0.00    +0.000 A 
ATOM     10  C   UNL     1       3.429   4.976  19.947  0.00  0.00    +0.000 A 
ENDROOT
BRANCH   1  17
ATOM     11  C   UNL     1       2.675   6.641  17.442  0.00  0.00    +0.000 C 
ATOM     12  C   UNL     1       2.184   7.511  18.569  0.00  0.00    +0.000 A 
ATOM     13  C   UNL     1       1.878   8.855  18.280  0.00  0.00    +0.000 A 
ATOM     14  C   UNL     1       1.339   9.702  19.250  0.00  0.00    +0.000 A 
ATOM     15  C   UNL     1       1.106   9.226  20.533  0.00  0.00    +0.000 A 
ATOM     16  C   UNL     1       1.425   7.906  20.850  0.00  0.00    +0.000 A 
ATOM     17  C   UNL     1       1.960   7.036  19.880  0.00  0.00    +0.000 A 
ENDBRANCH   1  17
BRANCH   8  18
ATOM     18  N   UNL     1       6.551   4.588  18.159  0.00  0.00    +0.000 N 
ATOM     19  H   UNL     1       6.901   3.745  17.713  0.00  0.00    +0.000 HD
BRANCH  18  20
ATOM     20  C   UNL     1       6.379   5.700  17.227  0.00  0.00    +0.000 C 
ATOM     21  C   UNL     1       7.528   6.714  17.364  0.00  0.00    +0.000 C 
BRANCH  20  22
ATOM     22  C   UNL     1       6.372   5.108  15.823  0.00  0.00    +0.000 A 
ATOM     23  C   UNL     1       5.279   4.353  15.349  0.00  0.00    +0.000 A 
ATOM     24  C   UNL     1       5.277   3.816  14.062  0.00  0.00    +0.000 A 
ATOM     25  C   UNL     1       6.360   4.031  13.218  0.00  0.00    +0.000 A 
ATOM     26  C   UNL     1       7.449   4.780  13.662  0.00  0.00    +0.000 A 
ATOM     27  C   UNL     1       7.456   5.313  14.953  0.00  0.00    +0.000 A 
ENDBRANCH  20  22
ENDBRANCH  18  20
ENDBRANCH   8  18
TORSDOF 4
ENDMDL
MODEL 9
REMARK VINA RESULT:      -8.7      1.222      2.696
REMARK  Name = 
REMARK  7 active torsions:
REMARK  status: ('A' for Active; 'I' for Inactive)
REMARK    1  A    between atoms: C_1  and  C_2
REMARK    2  A    between atoms: C_7  and  N_8
REMARK    3  A    between atoms: C_10  and  C_11
REMARK    4  A    between atoms: C_15  and  N_16
REMARK    5  A    between atoms: N_16  and  C_17
REMARK    6  A    between atoms: C_17  and  C_18
REMARK    7  A    between atoms: C_17  and  C_19
REMARK                            x       y       z     vdW  Elec       q    Type
REMARK                         _______ _______ _______ _____ _____    ______ ____
ROOT
ATOM      1  N   UNL     1       2.399   5.674  19.737  0.00  0.00    +0.000 N 
ATOM      2  N   UNL     1       1.713   5.191  20.807  0.00  0.00    +0.000 NA
ATOM      3  C   UNL     1       1.986   3.885  20.841  0.00  0.00    +0.000 A 
ATOM      4  C   UNL     1       1.314   3.005  21.830  0.00  0.00    +0.000 C 
ATOM      5  C   UNL     1       2.925   3.517  19.852  0.00  0.00    +0.000 A 
ATOM      6  C   UNL     1       3.571   2.343  19.460  0.00  0.00    +0.000 A 
ATOM      7  N   UNL     1       4.370   2.331  18.360  0.00  0.00    +0.000 NA
ATOM      8  C   UNL     1       4.605   3.475  17.691  0.00  0.00    +0.000 A 
ATOM      9  C   UNL     1       4.127   4.708  18.117  0.00  0.00    +0.000 A 
ATOM     10  C   UNL     1       3.197   4.693  19.161  0.00  0.00    +0.000 A 
ENDROOT
BRANCH   1  17
ATOM     11  C   UNL     1       1.179   7.743  21.531  0.00  0.00    +0.000 C 
ATOM     12  C   UNL     1       1.575   7.987  20.099  0.00  0.00    +0.000 A 
ATOM     13  C   UNL     1       1.369   9.275  19.567  0.00  0.00    +0.000 A 
ATOM     14  C   UNL     1       1.786   9.604  18.277  0.00  0.00    +0.000 A 
ATOM     15  C   UNL     1       2.408   8.647  17.486  0.00  0.00    +0.000 A 
ATOM     16  C   UNL     1       2.600   7.358  17.980  0.00  0.00    +0.000 A 
ATOM     17  C   UNL     1       2.193   7.014  19.284  0.00  0.00    +0.000 A 
ENDBRANCH   1  17
BRANCH   8  18
ATOM     18  N   UNL     1       5.298   3.473  16.479  0.00  0.00    +0.000 N 
ATOM     19  H   UNL     1       4.687   3.166  15.729  0.00  0.00    +0.000 HD
BRANCH  18  20
ATOM     20  C   UNL     1       6.085   4.654  16.131  0.00  0.00    +0.000 C 
ATOM     21  C   UNL     1       7.368   4.729  16.976  0.00  0.00    +0.000 C 
BRANCH  20  22
ATOM     22  C   UNL     1       6.442   4.531  14.653  0.00  0.00    +0.000 A 
ATOM     23  C   UNL     1       7.496   5.277  14.088  0.00  0.00    +0.000 A 
ATOM     24  C   UNL     1       7.821   5.157  12.737  0.00  0.00    +0.000 A 
ATOM     25  C   UNL     1       7.107   4.284  11.925  0.00  0.00    +0.000 A 
ATOM     26  C   UNL     1       6.063   3.532  12.464  0.00  0.00    +0.000 A 
ATOM     27  C   UNL     1       5.733   3.654  13.816  0.00  0.00    +0.000 A 
ENDBRANCH  20  22
ENDBRANCH  18  20
ENDBRANCH   8  18
TORSDOF 4
ENDMDL
