MODEL 1
REMARK VINA RESULT:      -7.5      0.000      0.000
REMARK  Name = 
REMARK  3 active torsions:
REMARK  status: ('A' for Active; 'I' for Inactive)
REMARK    1  A    between atoms: C_1  and  C_2
REMARK    2  A    between atoms: C_5  and  C_6
REMARK    3  A    between atoms: N_13  and  C_14
REMARK                            x       y       z     vdW  Elec       q    Type
REMARK                         _______ _______ _______ _____ _____    ______ ____
ROOT
ATOM      1  C   UNL     1       2.532   5.944  19.264  0.00  0.00    +0.000 C 
ATOM      2  C   UNL     1       2.053   5.343  20.610  0.00  0.00    +0.000 C 
ATOM      3  C   UNL     1       2.329   3.821  20.692  0.00  0.00    +0.000 C 
ATOM      4  C   UNL     1       1.149   2.972  20.186  0.00  0.00    +0.000 C 
ATOM      5  C   UNL     1       1.505   2.622  18.742  0.00  0.00    +0.000 C 
ATOM      6  C   UNL     1       2.694   3.533  18.444  0.00  0.00    +0.000 C 
ATOM      7  C   UNL     1       2.189   4.976  18.113  0.00  0.00    +0.000 C 
ATOM      8  N   UNL     1       3.414   3.557  19.737  0.00  0.00    +0.000 NA
ATOM      9  C   UNL     1       4.182   2.360  20.043  0.00  0.00    +0.000 C 
ENDROOT
BRANCH   1  14
ATOM     10  C   UNL     1       0.669  11.478  18.883  0.00  0.00    +0.000 C 
ATOM     11  C   UNL     1       1.192  10.074  19.003  0.00  0.00    +0.000 A 
ATOM     12  C   UNL     1       1.805   9.463  17.894  0.00  0.00    +0.000 A 
ATOM     13  C   UNL     1       2.267   8.140  17.954  0.00  0.00    +0.000 A 
ATOM     14  C   UNL     1       2.131   7.398  19.128  0.00  0.00    +0.000 A 
ATOM     15  C   UNL     1       1.534   8.017  20.242  0.00  0.00    +0.000 A 
ATOM     16  C   UNL     1       1.071   9.336  20.182  0.00  0.00    +0.000 A 
ATOM     17 BR   UNL     1       0.280  10.053  21.754  0.00  0.00    +0.000 Br
ENDBRANCH   1  14
TORSDOF 1
ENDMDL
MODEL 2
REMARK VINA RESULT:      -7.2      1.016      1.558
REMARK  Name = 
REMARK  3 active torsions:
REMARK  status: ('A' for Active; 'I' for Inactive)
REMARK    1  A    between atoms: C_1  and  C_2
REMARK    2  A    between atoms: C_5  and  C_6
REMARK    3  A    between atoms: N_13  and  C_14
REMARK                            x       y       z     vdW  Elec       q    Type
REMARK                         _______ _______ _______ _____ _____    ______ ____
ROOT
ATOM      1  C   UNL     1       2.960   6.026  19.183  0.00  0.00    +0.000 C 
ATOM      2  C   UNL     1       1.912   4.907  18.949  0.00  0.00    +0.000 C 
ATOM      3  C   UNL     1       2.580   3.519  18.787  0.00  0.00    +0.000 C 
ATOM      4  C   UNL     1       2.898   3.176  17.320  0.00  0.00    +0.000 C 
ATOM      5  C   UNL     1       4.371   3.536  17.140  0.00  0.00    +0.000 C 
ATOM      6  C   UNL     1       4.696   4.324  18.407  0.00  0.00    +0.000 C 
ATOM      7  C   UNL     1       4.179   5.794  18.268  0.00  0.00    +0.000 C 
ATOM      8  N   UNL     1       3.893   3.625  19.437  0.00  0.00    +0.000 NA
ATOM      9  C   UNL     1       4.430   2.348  19.881  0.00  0.00    +0.000 C 
ENDROOT
BRANCH   1  14
ATOM     10  C   UNL     1       0.190  11.176  19.380  0.00  0.00    +0.000 C 
ATOM     11  C   UNL     1       0.944   9.877  19.351  0.00  0.00    +0.000 A 
ATOM     12  C   UNL     1       1.584   9.470  18.166  0.00  0.00    +0.000 A 
ATOM     13  C   UNL     1       2.260   8.243  18.087  0.00  0.00    +0.000 A 
ATOM     14  C   UNL     1       2.317   7.397  19.196  0.00  0.00    +0.000 A 
ATOM     15  C   UNL     1       1.692   7.814  20.385  0.00  0.00    +0.000 A 
ATOM     16  C   UNL     1       1.014   9.036  20.464  0.00  0.00    +0.000 A 
ATOM     17 BR   UNL     1       0.208   9.480  22.126  0.00  0.00    +0.000 Br
ENDBRANCH   1  14
TORSDOF 1
ENDMDL
MODEL 3
REMARK VINA RESULT:      -7.1      1.041      1.230
REMARK  Name = 
REMARK  3 active torsions:
REMARK  status: ('A' for Active; 'I' for Inactive)
REMARK    1  A    between atoms: C_1  and  C_2
REMARK    2  A    between atoms: C_5  and  C_6
REMARK    3  A    between atoms: N_13  and  C_14
REMARK                            x       y       z     vdW  Elec       q    Type
REMARK                         _______ _______ _______ _____ _____    ______ ____
ROOT
ATOM      1  C   UNL     1       2.425   6.610  19.581  0.00  0.00    +0.000 C 
ATOM      2  C   UNL     1       1.850   5.535  20.538  0.00  0.00    +0.000 C 
ATOM      3  C   UNL     1       2.380   4.120  20.199  0.00  0.00    +0.000 C 
ATOM      4  C   UNL     1       1.473   3.361  19.213  0.00  0.00    +0.000 C 
ATOM      5  C   UNL     1       2.116   3.568  17.843  0.00  0.00    +0.000 C 
ATOM      6  C   UNL     1       3.153   4.659  18.106  0.00  0.00    +0.000 C 
ATOM      7  C   UNL     1       2.456   6.059  18.141  0.00  0.00    +0.000 C 
ATOM      8  N   UNL     1       3.636   4.325  19.465  0.00  0.00    +0.000 NA
ATOM      9  C   UNL     1       4.548   3.194  19.540  0.00  0.00    +0.000 C 
ENDROOT
BRANCH   1  14
ATOM     10  C   UNL     1      -0.293  11.681  20.650  0.00  0.00    +0.000 C 
ATOM     11  C   UNL     1       0.449  10.398  20.398  0.00  0.00    +0.000 A 
ATOM     12  C   UNL     1       1.036  10.168  19.141  0.00  0.00    +0.000 A 
ATOM     13  C   UNL     1       1.699   8.966  18.854  0.00  0.00    +0.000 A 
ATOM     14  C   UNL     1       1.794   7.966  19.822  0.00  0.00    +0.000 A 
ATOM     15  C   UNL     1       1.222   8.204  21.085  0.00  0.00    +0.000 A 
ATOM     16  C   UNL     1       0.559   9.402  21.371  0.00  0.00    +0.000 A 
ATOM     17 BR   UNL     1      -0.175   9.598  23.113  0.00  0.00    +0.000 Br
ENDBRANCH   1  14
TORSDOF 1
ENDMDL
MODEL 4
REMARK VINA RESULT:      -7.0      4.598      6.125
REMARK  Name = 
REMARK  3 active torsions:
REMARK  status: ('A' for Active; 'I' for Inactive)
REMARK    1  A    between atoms: C_1  and  C_2
REMARK    2  A    between atoms: C_5  and  C_6
REMARK    3  A    between atoms: N_13  and  C_14
REMARK                            x       y       z     vdW  Elec       q    Type
REMARK                         _______ _______ _______ _____ _____    ______ ____
ROOT
ATOM      1  C   UNL     1       4.426   3.753  17.831  0.00  0.00    +0.000 C 
ATOM      2  C   UNL     1       3.411   4.849  18.245  0.00  0.00    +0.000 C 
ATOM      3  C   UNL     1       2.402   4.330  19.299  0.00  0.00    +0.000 C 
ATOM      4  C   UNL     1       1.126   3.746  18.668  0.00  0.00    +0.000 C 
ATOM      5  C   UNL     1       1.357   2.236  18.633  0.00  0.00    +0.000 C 
ATOM      6  C   UNL     1       2.843   2.103  18.962  0.00  0.00    +0.000 C 
ATOM      7  C   UNL     1       3.699   2.401  17.688  0.00  0.00    +0.000 C 
ATOM      8  N   UNL     1       3.053   3.186  19.950  0.00  0.00    +0.000 NA
ATOM      9  C   UNL     1       2.551   2.912  21.288  0.00  0.00    +0.000 C 
ENDROOT
BRANCH   1  14
ATOM     10  C   UNL     1       7.870   5.216  13.332  0.00  0.00    +0.000 C 
ATOM     11  C   UNL     1       6.954   4.881  14.476  0.00  0.00    +0.000 A 
ATOM     12  C   UNL     1       7.273   5.319  15.774  0.00  0.00    +0.000 A 
ATOM     13  C   UNL     1       6.466   4.989  16.873  0.00  0.00    +0.000 A 
ATOM     14  C   UNL     1       5.317   4.218  16.697  0.00  0.00    +0.000 A 
ATOM     15  C   UNL     1       4.989   3.796  15.395  0.00  0.00    +0.000 A 
ATOM     16  C   UNL     1       5.795   4.122  14.299  0.00  0.00    +0.000 A 
ATOM     17 BR   UNL     1       5.246   3.487  12.595  0.00  0.00    +0.000 Br
ENDBRANCH   1  14
TORSDOF 1
ENDMDL
MODEL 5
REMARK VINA RESULT:      -6.8      2.993      4.086
REMARK  Name = 
REMARK  3 active torsions:
REMARK  status: ('A' for Active; 'I' for Inactive)
REMARK    1  A    between atoms: C_1  and  C_2
REMARK    2  A    between atoms: C_5  and  C_6
REMARK    3  A    between atoms: N_13  and  C_14
REMARK                            x       y       z     vdW  Elec       q    Type
REMARK                         _______ _______ _______ _____ _____    ______ ____
ROOT
ATOM      1  C   UNL     1       3.886   5.867  17.985  0.00  0.00    +0.000 C 
ATOM      2  C   UNL     1       4.609   6.830  17.008  0.00  0.00    +0.000 C 
ATOM      3  C   UNL     1       5.730   6.111  16.217  0.00  0.00    +0.000 C 
ATOM      4  C   UNL     1       7.101   6.197  16.912  0.00  0.00    +0.000 C 
ATOM      5  C   UNL     1       7.245   4.876  17.667  0.00  0.00    +0.000 C 
ATOM      6  C   UNL     1       5.842   4.277  17.593  0.00  0.00    +0.000 C 
ATOM      7  C   UNL     1       4.919   4.945  18.664  0.00  0.00    +0.000 C 
ATOM      8  N   UNL     1       5.389   4.682  16.242  0.00  0.00    +0.000 NA
ATOM      9  C   UNL     1       5.963   3.925  15.141  0.00  0.00    +0.000 C 
ENDROOT
BRANCH   1  14
ATOM     10  C   UNL     1       0.254   8.997  21.340  0.00  0.00    +0.000 C 
ATOM     11  C   UNL     1       1.145   8.178  20.449  0.00  0.00    +0.000 A 
ATOM     12  C   UNL     1       1.517   6.879  20.840  0.00  0.00    +0.000 A 
ATOM     13  C   UNL     1       2.382   6.101  20.057  0.00  0.00    +0.000 A 
ATOM     14  C   UNL     1       2.892   6.604  18.859  0.00  0.00    +0.000 A 
ATOM     15  C   UNL     1       2.504   7.897  18.460  0.00  0.00    +0.000 A 
ATOM     16  C   UNL     1       1.644   8.674  19.243  0.00  0.00    +0.000 A 
ATOM     17 BR   UNL     1       1.204  10.406  18.596  0.00  0.00    +0.000 Br
ENDBRANCH   1  14
TORSDOF 1
ENDMDL
MODEL 6
REMARK VINA RESULT:      -6.7      2.109      3.022
REMARK  Name = 
REMARK  3 active torsions:
REMARK  status: ('A' for Active; 'I' for Inactive)
REMARK    1  A    between atoms: C_1  and  C_2
REMARK    2  A    between atoms: C_5  and  C_6
REMARK    3  A    between atoms: N_13  and  C_14
REMARK                            x       y       z     vdW  Elec       q    Type
REMARK                         _______ _______ _______ _____ _____    ______ ____
ROOT
ATOM      1  C   UNL     1       3.038   6.793  18.289  0.00  0.00    +0.000 C 
ATOM      2  C   UNL     1       4.150   7.224  17.298  0.00  0.00    +0.000 C 
ATOM      3  C   UNL     1       5.137   6.068  17.002  0.00  0.00    +0.000 C 
ATOM      4  C   UNL     1       6.346   6.054  17.955  0.00  0.00    +0.000 C 
ATOM      5  C   UNL     1       5.990   5.030  19.032  0.00  0.00    +0.000 C 
ATOM      6  C   UNL     1       4.506   4.765  18.784  0.00  0.00    +0.000 C 
ATOM      7  C   UNL     1       3.648   5.916  19.402  0.00  0.00    +0.000 C 
ATOM      8  N   UNL     1       4.409   4.829  17.307  0.00  0.00    +0.000 NA
ATOM      9  C   UNL     1       4.918   3.663  16.600  0.00  0.00    +0.000 C 
ENDROOT
BRANCH   1  14
ATOM     10  C   UNL     1      -0.543  11.087  20.014  0.00  0.00    +0.000 C 
ATOM     11  C   UNL     1       0.418  10.013  19.586  0.00  0.00    +0.000 A 
ATOM     12  C   UNL     1       0.791   9.912  18.233  0.00  0.00    +0.000 A 
ATOM     13  C   UNL     1       1.651   8.898  17.788  0.00  0.00    +0.000 A 
ATOM     14  C   UNL     1       2.163   7.962  18.688  0.00  0.00    +0.000 A 
ATOM     15  C   UNL     1       1.804   8.077  20.044  0.00  0.00    +0.000 A 
ATOM     16  C   UNL     1       0.944   9.086  20.488  0.00  0.00    +0.000 A 
ATOM     17 BR   UNL     1       0.532   9.127  22.343  0.00  0.00    +0.000 Br
ENDBRANCH   1  14
TORSDOF 1
ENDMDL
MODEL 7
REMARK VINA RESULT:      -6.6      4.783      6.370
REMARK  Name = 
REMARK  3 active torsions:
REMARK  status: ('A' for Active; 'I' for Inactive)
REMARK    1  A    between atoms: C_1  and  C_2
REMARK    2  A    between atoms: C_5  and  C_6
REMARK    3  A    between atoms: N_13  and  C_14
REMARK                            x       y       z     vdW  Elec       q    Type
REMARK                         _______ _______ _______ _____ _____    ______ ____
ROOT
ATOM      1  C   UNL     1       3.793   3.991  17.045  0.00  0.00    +0.000 C 
ATOM      2  C   UNL     1       4.132   2.665  17.774  0.00  0.00    +0.000 C 
ATOM      3  C   UNL     1       3.073   2.311  18.847  0.00  0.00    +0.000 C 
ATOM      4  C   UNL     1       3.422   2.868  20.239  0.00  0.00    +0.000 C 
ATOM      5  C   UNL     1       2.625   4.166  20.357  0.00  0.00    +0.000 C 
ATOM      6  C   UNL     1       2.126   4.400  18.933  0.00  0.00    +0.000 C 
ATOM      7  C   UNL     1       3.268   5.022  18.064  0.00  0.00    +0.000 C 
ATOM      8  N   UNL     1       1.850   3.026  18.457  0.00  0.00    +0.000 NA
ATOM      9  C   UNL     1       0.631   2.422  18.973  0.00  0.00    +0.000 C 
ENDROOT
BRANCH   1  14
ATOM     10  C   UNL     1       8.129   5.259  13.327  0.00  0.00    +0.000 C 
ATOM     11  C   UNL     1       6.985   4.970  14.258  0.00  0.00    +0.000 A 
ATOM     12  C   UNL     1       6.961   5.561  15.534  0.00  0.00    +0.000 A 
ATOM     13  C   UNL     1       5.933   5.282  16.447  0.00  0.00    +0.000 A 
ATOM     14  C   UNL     1       4.902   4.407  16.102  0.00  0.00    +0.000 A 
ATOM     15  C   UNL     1       4.919   3.831  14.818  0.00  0.00    +0.000 A 
ATOM     16  C   UNL     1       5.945   4.107  13.908  0.00  0.00    +0.000 A 
ATOM     17 BR   UNL     1       5.854   3.259  12.210  0.00  0.00    +0.000 Br
ENDBRANCH   1  14
TORSDOF 1
ENDMDL
MODEL 8
REMARK VINA RESULT:      -6.6      1.538      1.960
REMARK  Name = 
REMARK  3 active torsions:
REMARK  status: ('A' for Active; 'I' for Inactive)
REMARK    1  A    between atoms: C_1  and  C_2
REMARK    2  A    between atoms: C_5  and  C_6
REMARK    3  A    between atoms: N_13  and  C_14
REMARK                            x       y       z     vdW  Elec       q    Type
REMARK                         _______ _______ _______ _____ _____    ______ ____
ROOT
ATOM      1  C   UNL     1       2.931   6.460  18.092  0.00  0.00    +0.000 C 
ATOM      2  C   UNL     1       4.162   6.139  18.978  0.00  0.00    +0.000 C 
ATOM      3  C   UNL     1       4.795   4.774  18.610  0.00  0.00    +0.000 C 
ATOM      4  C   UNL     1       4.219   3.607  19.433  0.00  0.00    +0.000 C 
ATOM      5  C   UNL     1       3.154   2.978  18.536  0.00  0.00    +0.000 C 
ATOM      6  C   UNL     1       2.996   4.001  17.413  0.00  0.00    +0.000 C 
ATOM      7  C   UNL     1       2.090   5.183  17.891  0.00  0.00    +0.000 C 
ATOM      8  N   UNL     1       4.379   4.495  17.229  0.00  0.00    +0.000 NA
ATOM      9  C   UNL     1       5.273   3.593  16.521  0.00  0.00    +0.000 C 
ENDROOT
BRANCH   1  14
ATOM     10  C   UNL     1      -0.004  11.132  20.038  0.00  0.00    +0.000 C 
ATOM     11  C   UNL     1       0.795   9.956  19.553  0.00  0.00    +0.000 A 
ATOM     12  C   UNL     1       1.125   9.853  18.190  0.00  0.00    +0.000 A 
ATOM     13  C   UNL     1       1.831   8.748  17.692  0.00  0.00    +0.000 A 
ATOM     14  C   UNL     1       2.230   7.722  18.549  0.00  0.00    +0.000 A 
ATOM     15  C   UNL     1       1.915   7.835  19.916  0.00  0.00    +0.000 A 
ATOM     16  C   UNL     1       1.207   8.935  20.412  0.00  0.00    +0.000 A 
ATOM     17 BR   UNL     1       0.840   8.965  22.277  0.00  0.00    +0.000 Br
ENDBRANCH   1  14
TORSDOF 1
ENDMDL
MODEL 9
REMARK VINA RESULT:      -6.5      1.691      2.227
REMARK  Name = 
REMARK  3 active torsions:
REMARK  status: ('A' for Active; 'I' for Inactive)
REMARK    1  A    between atoms: C_1  and  C_2
REMARK    2  A    between atoms: C_5  and  C_6
REMARK    3  A    between atoms: N_13  and  C_14
REMARK                            x       y       z     vdW  Elec       q    Type
REMARK                         _______ _______ _______ _____ _____    ______ ____
ROOT
ATOM      1  C   UNL     1       3.013   7.139  18.849  0.00  0.00    +0.000 C 
ATOM      2  C   UNL     1       2.421   5.735  19.139  0.00  0.00    +0.000 C 
ATOM      3  C   UNL     1       3.430   4.607  18.814  0.00  0.00    +0.000 C 
ATOM      4  C   UNL     1       3.299   4.084  17.372  0.00  0.00    +0.000 C 
ATOM      5  C   UNL     1       4.379   4.822  16.584  0.00  0.00    +0.000 C 
ATOM      6  C   UNL     1       4.836   5.911  17.552  0.00  0.00    +0.000 C 
ATOM      7  C   UNL     1       3.820   7.099  17.535  0.00  0.00    +0.000 C 
ATOM      8  N   UNL     1       4.760   5.228  18.864  0.00  0.00    +0.000 NA
ATOM      9  C   UNL     1       5.835   4.287  19.138  0.00  0.00    +0.000 C 
ENDROOT
BRANCH   1  14
ATOM     10  C   UNL     1      -1.186  11.119  19.724  0.00  0.00    +0.000 C 
ATOM     11  C   UNL     1      -0.071  10.132  19.516  0.00  0.00    +0.000 A 
ATOM     12  C   UNL     1       0.470   9.955  18.229  0.00  0.00    +0.000 A 
ATOM     13  C   UNL     1       1.480   9.013  17.987  0.00  0.00    +0.000 A 
ATOM     14  C   UNL     1       1.977   8.229  19.029  0.00  0.00    +0.000 A 
ATOM     15  C   UNL     1       1.448   8.420  20.318  0.00  0.00    +0.000 A 
ATOM     16  C   UNL     1       0.438   9.358  20.560  0.00  0.00    +0.000 A 
ATOM     17 BR   UNL     1      -0.195   9.515  22.345  0.00  0.00    +0.000 Br
ENDBRANCH   1  14
TORSDOF 1
ENDMDL
