MODEL 1
REMARK VINA RESULT:      -7.8      0.000      0.000
REMARK  Name = 
REMARK  11 active torsions:
REMARK  status: ('A' for Active; 'I' for Inactive)
REMARK    1  A    between atoms: C_2  and  C_3
REMARK    2  A    between atoms: C_6  and  O_7
REMARK    3  A    between atoms: O_7  and  C_8
REMARK    4  A    between atoms: C_8  and  C_9
REMARK    5  A    between atoms: C_9  and  O_10
REMARK    6  A    between atoms: C_9  and  C_11
REMARK    7  A    between atoms: C_11  and  N_12
REMARK    8  A    between atoms: C_15  and  C_16
REMARK    9  A    between atoms: C_16  and  O_17
REMARK   10  A    between atoms: C_16  and  C_18
REMARK   11  A    between atoms: C_16  and  C_24
REMARK                            x       y       z     vdW  Elec       q    Type
REMARK                         _______ _______ _______ _____ _____    ______ ____
ROOT
ATOM      1  N   UNL     1       3.079   4.517  18.877  0.00  0.00    +0.000 NA
ATOM      2  C   UNL     1       3.949   5.684  18.646  0.00  0.00    +0.000 C 
ATOM      3  C   UNL     1       3.959   6.145  17.193  0.00  0.00    +0.000 C 
ATOM      4  C   UNL     1       4.356   5.036  16.206  0.00  0.00    +0.000 C 
ATOM      5  C   UNL     1       3.371   3.868  16.467  0.00  0.00    +0.000 C 
ATOM      6  C   UNL     1       3.301   3.421  17.925  0.00  0.00    +0.000 C 
ENDROOT
BRANCH   1   7
ATOM      7  C   UNL     1       3.271   3.995  20.246  0.00  0.00    +0.000 C 
BRANCH   7   8
ATOM      8  C   UNL     1       2.143   4.313  21.243  0.00  0.00    +0.000 C 
BRANCH   8   9
ATOM      9  O   UNL     1       1.349   3.128  21.424  0.00  0.00    +0.000 OA
ATOM     10  H   UNL     1       0.504   3.259  20.963  0.00  0.00    +0.000 HD
ENDBRANCH   8   9
BRANCH   8  11
ATOM     11  C   UNL     1       1.283   5.489  20.757  0.00  0.00    +0.000 C 
BRANCH  11  12
ATOM     12  O   UNL     1       2.015   6.696  20.984  0.00  0.00    +0.000 OA
BRANCH  12  16
ATOM     13  C   UNL     1       0.226  10.167  19.576  0.00  0.00    +0.000 A 
ATOM     14  C   UNL     1       1.225   9.511  18.854  0.00  0.00    +0.000 A 
ATOM     15  C   UNL     1       1.805   8.354  19.372  0.00  0.00    +0.000 A 
ATOM     16  C   UNL     1       1.400   7.855  20.611  0.00  0.00    +0.000 A 
ATOM     17  C   UNL     1       0.401   8.509  21.333  0.00  0.00    +0.000 A 
ATOM     18  C   UNL     1      -0.187   9.665  20.815  0.00  0.00    +0.000 A 
BRANCH  13  20
ATOM     19  N   UNL     1      -0.882  12.300  18.608  0.00  0.00    +0.000 NA
ATOM     20  C   UNL     1      -0.386  11.346  19.043  0.00  0.00    +0.000 C 
ENDBRANCH  13  20
ENDBRANCH  12  16
ENDBRANCH  11  12
ENDBRANCH   8  11
ENDBRANCH   7   8
ENDBRANCH   1   7
BRANCH   4  21
ATOM     21  C   UNL     1       5.889   4.618  16.224  0.00  0.00    +0.000 C 
BRANCH  21  22
ATOM     22  C   UNL     1       6.465   4.494  14.788  0.00  0.00    +0.000 A 
ATOM     23  C   UNL     1       7.539   5.289  14.344  0.00  0.00    +0.000 A 
ATOM     24  C   UNL     1       7.929   5.299  13.003  0.00  0.00    +0.000 A 
ATOM     25  C   UNL     1       7.281   4.483  12.083  0.00  0.00    +0.000 A 
ATOM     26  C   UNL     1       6.274   3.624  12.512  0.00  0.00    +0.000 A 
ATOM     27  C   UNL     1       5.887   3.611  13.854  0.00  0.00    +0.000 A 
ENDBRANCH  21  22
BRANCH  21  28
ATOM     28  C   UNL     1       6.758   5.557  17.084  0.00  0.00    +0.000 A 
ATOM     29  C   UNL     1       6.920   6.919  16.749  0.00  0.00    +0.000 A 
ATOM     30  C   UNL     1       7.674   7.788  17.545  0.00  0.00    +0.000 A 
ATOM     31  C   UNL     1       8.287   7.314  18.698  0.00  0.00    +0.000 A 
ATOM     32  C   UNL     1       8.157   5.971  19.046  0.00  0.00    +0.000 A 
ATOM     33  C   UNL     1       7.403   5.101  18.247  0.00  0.00    +0.000 A 
ENDBRANCH  21  28
BRANCH  21  34
ATOM     34  O   UNL     1       5.959   3.316  16.831  0.00  0.00    +0.000 OA
ATOM     35  H   UNL     1       6.888   3.130  17.033  0.00  0.00    +0.000 HD
ENDBRANCH  21  34
ENDBRANCH   4  21
TORSDOF 11
ENDMDL
MODEL 2
REMARK VINA RESULT:      -7.8      3.144      7.239
REMARK  Name = 
REMARK  11 active torsions:
REMARK  status: ('A' for Active; 'I' for Inactive)
REMARK    1  A    between atoms: C_2  and  C_3
REMARK    2  A    between atoms: C_6  and  O_7
REMARK    3  A    between atoms: O_7  and  C_8
REMARK    4  A    between atoms: C_8  and  C_9
REMARK    5  A    between atoms: C_9  and  O_10
REMARK    6  A    between atoms: C_9  and  C_11
REMARK    7  A    between atoms: C_11  and  N_12
REMARK    8  A    between atoms: C_15  and  C_16
REMARK    9  A    between atoms: C_16  and  O_17
REMARK   10  A    between atoms: C_16  and  C_18
REMARK   11  A    between atoms: C_16  and  C_24
REMARK                            x       y       z     vdW  Elec       q    Type
REMARK                         _______ _______ _______ _____ _____    ______ ____
ROOT
ATOM      1  N   UNL     1       6.447   5.013  17.125  0.00  0.00    +0.000 NA
ATOM      2  C   UNL     1       5.429   4.050  17.579  0.00  0.00    +0.000 C 
ATOM      3  C   UNL     1       4.038   4.343  17.026  0.00  0.00    +0.000 C 
ATOM      4  C   UNL     1       3.544   5.763  17.342  0.00  0.00    +0.000 C 
ATOM      5  C   UNL     1       4.633   6.719  16.792  0.00  0.00    +0.000 C 
ATOM      6  C   UNL     1       6.045   6.416  17.288  0.00  0.00    +0.000 C 
ENDROOT
BRANCH   1   7
ATOM      7  C   UNL     1       7.716   4.802  17.852  0.00  0.00    +0.000 C 
BRANCH   7   8
ATOM      8  C   UNL     1       8.044   5.847  18.933  0.00  0.00    +0.000 C 
BRANCH   8   9
ATOM      9  O   UNL     1       7.176   5.625  20.058  0.00  0.00    +0.000 OA
ATOM     10  H   UNL     1       6.792   4.737  19.970  0.00  0.00    +0.000 HD
ENDBRANCH   8   9
BRANCH   8  11
ATOM     11  C   UNL     1       7.895   7.276  18.391  0.00  0.00    +0.000 C 
BRANCH  11  12
ATOM     12  O   UNL     1       8.872   8.098  19.038  0.00  0.00    +0.000 OA
BRANCH  12  16
ATOM     13  C   UNL     1       8.918  12.198  18.396  0.00  0.00    +0.000 A 
ATOM     14  C   UNL     1       9.558  11.620  19.493  0.00  0.00    +0.000 A 
ATOM     15  C   UNL     1       9.506  10.238  19.674  0.00  0.00    +0.000 A 
ATOM     16  C   UNL     1       8.810   9.434  18.771  0.00  0.00    +0.000 A 
ATOM     17  C   UNL     1       8.171  10.011  17.673  0.00  0.00    +0.000 A 
ATOM     18  C   UNL     1       8.226  11.394  17.485  0.00  0.00    +0.000 A 
BRANCH  13  20
ATOM     19  N   UNL     1       9.034  14.762  18.034  0.00  0.00    +0.000 NA
ATOM     20  C   UNL     1       8.981  13.614  18.194  0.00  0.00    +0.000 C 
ENDBRANCH  13  20
ENDBRANCH  12  16
ENDBRANCH  11  12
ENDBRANCH   8  11
ENDBRANCH   7   8
ENDBRANCH   1   7
BRANCH   4  21
ATOM     21  C   UNL     1       3.144   6.028  18.857  0.00  0.00    +0.000 C 
BRANCH  21  22
ATOM     22  C   UNL     1       2.278   7.308  19.003  0.00  0.00    +0.000 A 
ATOM     23  C   UNL     1       1.982   8.138  17.905  0.00  0.00    +0.000 A 
ATOM     24  C   UNL     1       1.359   9.376  18.077  0.00  0.00    +0.000 A 
ATOM     25  C   UNL     1       0.981   9.794  19.348  0.00  0.00    +0.000 A 
ATOM     26  C   UNL     1       1.182   8.955  20.439  0.00  0.00    +0.000 A 
ATOM     27  C   UNL     1       1.802   7.715  20.265  0.00  0.00    +0.000 A 
ENDBRANCH  21  22
BRANCH  21  28
ATOM     28  C   UNL     1       2.451   4.819  19.516  0.00  0.00    +0.000 A 
ATOM     29  C   UNL     1       1.484   4.059  18.823  0.00  0.00    +0.000 A 
ATOM     30  C   UNL     1       0.879   2.937  19.398  0.00  0.00    +0.000 A 
ATOM     31  C   UNL     1       1.227   2.546  20.685  0.00  0.00    +0.000 A 
ATOM     32  C   UNL     1       2.168   3.285  21.399  0.00  0.00    +0.000 A 
ATOM     33  C   UNL     1       2.771   4.411  20.822  0.00  0.00    +0.000 A 
ENDBRANCH  21  28
BRANCH  21  34
ATOM     34  O   UNL     1       4.368   6.250  19.580  0.00  0.00    +0.000 OA
ATOM     35  H   UNL     1       4.148   6.697  20.410  0.00  0.00    +0.000 HD
ENDBRANCH  21  34
ENDBRANCH   4  21
TORSDOF 11
ENDMDL
MODEL 3
REMARK VINA RESULT:      -7.7      0.346      1.233
REMARK  Name = 
REMARK  11 active torsions:
REMARK  status: ('A' for Active; 'I' for Inactive)
REMARK    1  A    between atoms: C_2  and  C_3
REMARK    2  A    between atoms: C_6  and  O_7
REMARK    3  A    between atoms: O_7  and  C_8
REMARK    4  A    between atoms: C_8  and  C_9
REMARK    5  A    between atoms: C_9  and  O_10
REMARK    6  A    between atoms: C_9  and  C_11
REMARK    7  A    between atoms: C_11  and  N_12
REMARK    8  A    between atoms: C_15  and  C_16
REMARK    9  A    between atoms: C_16  and  O_17
REMARK   10  A    between atoms: C_16  and  C_18
REMARK   11  A    between atoms: C_16  and  C_24
REMARK                            x       y       z     vdW  Elec       q    Type
REMARK                         _______ _______ _______ _____ _____    ______ ____
ROOT
ATOM      1  N   UNL     1       3.004   4.244  18.929  0.00  0.00    +0.000 NA
ATOM      2  C   UNL     1       3.866   5.421  18.716  0.00  0.00    +0.000 C 
ATOM      3  C   UNL     1       3.795   5.965  17.293  0.00  0.00    +0.000 C 
ATOM      4  C   UNL     1       4.128   4.914  16.222  0.00  0.00    +0.000 C 
ATOM      5  C   UNL     1       3.153   3.735  16.473  0.00  0.00    +0.000 C 
ATOM      6  C   UNL     1       3.164   3.205  17.904  0.00  0.00    +0.000 C 
ENDROOT
BRANCH   1   7
ATOM      7  C   UNL     1       3.272   3.643  20.252  0.00  0.00    +0.000 C 
BRANCH   7   8
ATOM      8  C   UNL     1       2.475   4.239  21.426  0.00  0.00    +0.000 C 
BRANCH   8   9
ATOM      9  O   UNL     1       1.777   3.172  22.089  0.00  0.00    +0.000 OA
ATOM     10  H   UNL     1       2.067   3.153  23.016  0.00  0.00    +0.000 HD
ENDBRANCH   8   9
BRANCH   8  11
ATOM     11  C   UNL     1       1.501   5.325  20.946  0.00  0.00    +0.000 C 
BRANCH  11  12
ATOM     12  O   UNL     1       2.108   6.599  21.183  0.00  0.00    +0.000 OA
BRANCH  12  16
ATOM     13  C   UNL     1       0.076   9.952  19.819  0.00  0.00    +0.000 A 
ATOM     14  C   UNL     1      -0.251   9.337  21.029  0.00  0.00    +0.000 A 
ATOM     15  C   UNL     1       0.452   8.205  21.441  0.00  0.00    +0.000 A 
ATOM     16  C   UNL     1       1.472   7.680  20.646  0.00  0.00    +0.000 A 
ATOM     17  C   UNL     1       1.801   8.295  19.438  0.00  0.00    +0.000 A 
ATOM     18  C   UNL     1       1.103   9.432  19.024  0.00  0.00    +0.000 A 
BRANCH  13  20
ATOM     19  N   UNL     1      -1.206  12.070  19.055  0.00  0.00    +0.000 NA
ATOM     20  C   UNL     1      -0.631  11.123  19.397  0.00  0.00    +0.000 C 
ENDBRANCH  13  20
ENDBRANCH  12  16
ENDBRANCH  11  12
ENDBRANCH   8  11
ENDBRANCH   7   8
ENDBRANCH   1   7
BRANCH   4  21
ATOM     21  C   UNL     1       5.657   4.492  16.128  0.00  0.00    +0.000 C 
BRANCH  21  22
ATOM     22  C   UNL     1       6.155   4.476  14.658  0.00  0.00    +0.000 A 
ATOM     23  C   UNL     1       5.502   3.732  13.657  0.00  0.00    +0.000 A 
ATOM     24  C   UNL     1       6.059   3.579  12.386  0.00  0.00    +0.000 A 
ATOM     25  C   UNL     1       7.262   4.201  12.073  0.00  0.00    +0.000 A 
ATOM     26  C   UNL     1       7.884   5.013  13.016  0.00  0.00    +0.000 A 
ATOM     27  C   UNL     1       7.324   5.169  14.286  0.00  0.00    +0.000 A 
ENDBRANCH  21  22
BRANCH  21  28
ATOM     28  C   UNL     1       6.576   5.361  17.009  0.00  0.00    +0.000 A 
ATOM     29  C   UNL     1       6.787   6.728  16.726  0.00  0.00    +0.000 A 
ATOM     30  C   UNL     1       7.587   7.533  17.542  0.00  0.00    +0.000 A 
ATOM     31  C   UNL     1       8.199   6.990  18.665  0.00  0.00    +0.000 A 
ATOM     32  C   UNL     1       8.021   5.640  18.961  0.00  0.00    +0.000 A 
ATOM     33  C   UNL     1       7.221   4.834  18.141  0.00  0.00    +0.000 A 
ENDBRANCH  21  28
BRANCH  21  34
ATOM     34  O   UNL     1       5.750   3.147  16.631  0.00  0.00    +0.000 OA
ATOM     35  H   UNL     1       6.496   3.110  17.247  0.00  0.00    +0.000 HD
ENDBRANCH  21  34
ENDBRANCH   4  21
TORSDOF 11
ENDMDL
MODEL 4
REMARK VINA RESULT:      -7.7      0.262      1.215
REMARK  Name = 
REMARK  11 active torsions:
REMARK  status: ('A' for Active; 'I' for Inactive)
REMARK    1  A    between atoms: C_2  and  C_3
REMARK    2  A    between atoms: C_6  and  O_7
REMARK    3  A    between atoms: O_7  and  C_8
REMARK    4  A    between atoms: C_8  and  C_9
REMARK    5  A    between atoms: C_9  and  O_10
REMARK    6  A    between atoms: C_9  and  C_11
REMARK    7  A    between atoms: C_11  and  N_12
REMARK    8  A    between atoms: C_15  and  C_16
REMARK    9  A    between atoms: C_16  and  O_17
REMARK   10  A    between atoms: C_16  and  C_18
REMARK   11  A    between atoms: C_16  and  C_24
REMARK                            x       y       z     vdW  Elec       q    Type
REMARK                         _______ _______ _______ _____ _____    ______ ____
ROOT
ATOM      1  N   UNL     1       3.001   4.172  18.767  0.00  0.00    +0.000 NA
ATOM      2  C   UNL     1       3.834   5.384  18.670  0.00  0.00    +0.000 C 
ATOM      3  C   UNL     1       3.875   5.972  17.263  0.00  0.00    +0.000 C 
ATOM      4  C   UNL     1       4.344   4.969  16.198  0.00  0.00    +0.000 C 
ATOM      5  C   UNL     1       3.395   3.750  16.321  0.00  0.00    +0.000 C 
ATOM      6  C   UNL     1       3.293   3.173  17.731  0.00  0.00    +0.000 C 
ENDROOT
BRANCH   1   7
ATOM      7  C   UNL     1       3.167   3.538  20.091  0.00  0.00    +0.000 C 
BRANCH   7   8
ATOM      8  C   UNL     1       2.507   4.276  21.269  0.00  0.00    +0.000 C 
BRANCH   8   9
ATOM      9  O   UNL     1       1.898   3.299  22.132  0.00  0.00    +0.000 OA
ATOM     10  H   UNL     1       1.919   2.441  21.677  0.00  0.00    +0.000 HD
ENDBRANCH   8   9
BRANCH   8  11
ATOM     11  C   UNL     1       1.475   5.301  20.778  0.00  0.00    +0.000 C 
BRANCH  11  12
ATOM     12  O   UNL     1       1.804   6.569  21.352  0.00  0.00    +0.000 OA
BRANCH  12  16
ATOM     13  C   UNL     1       0.312  10.019  19.591  0.00  0.00    +0.000 A 
ATOM     14  C   UNL     1      -0.155   9.564  20.825  0.00  0.00    +0.000 A 
ATOM     15  C   UNL     1       0.367   8.393  21.372  0.00  0.00    +0.000 A 
ATOM     16  C   UNL     1       1.347   7.670  20.689  0.00  0.00    +0.000 A 
ATOM     17  C   UNL     1       1.817   8.125  19.457  0.00  0.00    +0.000 A 
ATOM     18  C   UNL     1       1.299   9.301  18.907  0.00  0.00    +0.000 A 
BRANCH  13  20
ATOM     19  N   UNL     1      -0.629  12.210  18.578  0.00  0.00    +0.000 NA
ATOM     20  C   UNL     1      -0.208  11.229  19.029  0.00  0.00    +0.000 C 
ENDBRANCH  13  20
ENDBRANCH  12  16
ENDBRANCH  11  12
ENDBRANCH   8  11
ENDBRANCH   7   8
ENDBRANCH   1   7
BRANCH   4  21
ATOM     21  C   UNL     1       5.890   4.603  16.234  0.00  0.00    +0.000 C 
BRANCH  21  22
ATOM     22  C   UNL     1       6.486   4.498  14.805  0.00  0.00    +0.000 A 
ATOM     23  C   UNL     1       7.562   5.303  14.385  0.00  0.00    +0.000 A 
ATOM     24  C   UNL     1       7.971   5.329  13.050  0.00  0.00    +0.000 A 
ATOM     25  C   UNL     1       7.339   4.521  12.112  0.00  0.00    +0.000 A 
ATOM     26  C   UNL     1       6.331   3.652  12.517  0.00  0.00    +0.000 A 
ATOM     27  C   UNL     1       5.926   3.622  13.854  0.00  0.00    +0.000 A 
ENDBRANCH  21  22
BRANCH  21  28
ATOM     28  C   UNL     1       6.716   5.571  17.103  0.00  0.00    +0.000 A 
ATOM     29  C   UNL     1       7.373   5.130  18.273  0.00  0.00    +0.000 A 
ATOM     30  C   UNL     1       8.158   5.992  19.045  0.00  0.00    +0.000 A 
ATOM     31  C   UNL     1       8.304   7.321  18.668  0.00  0.00    +0.000 A 
ATOM     32  C   UNL     1       7.655   7.788  17.527  0.00  0.00    +0.000 A 
ATOM     33  C   UNL     1       6.867   6.925  16.755  0.00  0.00    +0.000 A 
ENDBRANCH  21  28
BRANCH  21  34
ATOM     34  O   UNL     1       5.997   3.304  16.844  0.00  0.00    +0.000 OA
ATOM     35  H   UNL     1       6.931   3.144  17.043  0.00  0.00    +0.000 HD
ENDBRANCH  21  34
ENDBRANCH   4  21
TORSDOF 11
ENDMDL
MODEL 5
REMARK VINA RESULT:      -7.6      1.708      4.174
REMARK  Name = 
REMARK  11 active torsions:
REMARK  status: ('A' for Active; 'I' for Inactive)
REMARK    1  A    between atoms: C_2  and  C_3
REMARK    2  A    between atoms: C_6  and  O_7
REMARK    3  A    between atoms: O_7  and  C_8
REMARK    4  A    between atoms: C_8  and  C_9
REMARK    5  A    between atoms: C_9  and  O_10
REMARK    6  A    between atoms: C_9  and  C_11
REMARK    7  A    between atoms: C_11  and  N_12
REMARK    8  A    between atoms: C_15  and  C_16
REMARK    9  A    between atoms: C_16  and  O_17
REMARK   10  A    between atoms: C_16  and  C_18
REMARK   11  A    between atoms: C_16  and  C_24
REMARK                            x       y       z     vdW  Elec       q    Type
REMARK                         _______ _______ _______ _____ _____    ______ ____
ROOT
ATOM      1  N   UNL     1       2.509   5.008  19.137  0.00  0.00    +0.000 NA
ATOM      2  C   UNL     1       2.408   4.639  17.714  0.00  0.00    +0.000 C 
ATOM      3  C   UNL     1       3.474   3.640  17.278  0.00  0.00    +0.000 C 
ATOM      4  C   UNL     1       4.908   4.117  17.560  0.00  0.00    +0.000 C 
ATOM      5  C   UNL     1       4.954   4.434  19.076  0.00  0.00    +0.000 C 
ATOM      6  C   UNL     1       3.864   5.391  19.551  0.00  0.00    +0.000 C 
ENDROOT
BRANCH   1   7
ATOM      7  C   UNL     1       1.590   6.124  19.446  0.00  0.00    +0.000 C 
BRANCH   7   8
ATOM      8  C   UNL     1       2.264   7.475  19.744  0.00  0.00    +0.000 C 
BRANCH   8   9
ATOM      9  O   UNL     1       1.886   7.888  21.068  0.00  0.00    +0.000 OA
ATOM     10  H   UNL     1       2.154   7.191  21.689  0.00  0.00    +0.000 HD
ENDBRANCH   8   9
BRANCH   8  11
ATOM     11  C   UNL     1       1.878   8.534  18.701  0.00  0.00    +0.000 C 
BRANCH  11  12
ATOM     12  O   UNL     1       1.190   9.590  19.377  0.00  0.00    +0.000 OA
BRANCH  12  16
ATOM     13  C   UNL     1      -2.459  10.957  17.947  0.00  0.00    +0.000 A 
ATOM     14  C   UNL     1      -1.916  11.430  19.143  0.00  0.00    +0.000 A 
ATOM     15  C   UNL     1      -0.692  10.932  19.590  0.00  0.00    +0.000 A 
ATOM     16  C   UNL     1      -0.014   9.960  18.853  0.00  0.00    +0.000 A 
ATOM     17  C   UNL     1      -0.556   9.488  17.658  0.00  0.00    +0.000 A 
ATOM     18  C   UNL     1      -1.779   9.987  17.204  0.00  0.00    +0.000 A 
BRANCH  13  20
ATOM     19  N   UNL     1      -4.717  11.896  17.090  0.00  0.00    +0.000 NA
ATOM     20  C   UNL     1      -3.708  11.474  17.474  0.00  0.00    +0.000 C 
ENDBRANCH  13  20
ENDBRANCH  12  16
ENDBRANCH  11  12
ENDBRANCH   8  11
ENDBRANCH   7   8
ENDBRANCH   1   7
BRANCH   4  21
ATOM     21  C   UNL     1       5.435   5.291  16.627  0.00  0.00    +0.000 C 
BRANCH  21  22
ATOM     22  C   UNL     1       6.578   6.091  17.307  0.00  0.00    +0.000 A 
ATOM     23  C   UNL     1       7.432   5.506  18.262  0.00  0.00    +0.000 A 
ATOM     24  C   UNL     1       8.335   6.277  18.997  0.00  0.00    +0.000 A 
ATOM     25  C   UNL     1       8.433   7.644  18.765  0.00  0.00    +0.000 A 
ATOM     26  C   UNL     1       7.663   8.232  17.767  0.00  0.00    +0.000 A 
ATOM     27  C   UNL     1       6.763   7.460  17.029  0.00  0.00    +0.000 A 
ENDBRANCH  21  22
BRANCH  21  28
ATOM     28  C   UNL     1       5.864   4.802  15.230  0.00  0.00    +0.000 A 
ATOM     29  C   UNL     1       4.972   4.098  14.392  0.00  0.00    +0.000 A 
ATOM     30  C   UNL     1       5.340   3.685  13.107  0.00  0.00    +0.000 A 
ATOM     31  C   UNL     1       6.613   3.965  12.628  0.00  0.00    +0.000 A 
ATOM     32  C   UNL     1       7.520   4.646  13.438  0.00  0.00    +0.000 A 
ATOM     33  C   UNL     1       7.151   5.056  14.726  0.00  0.00    +0.000 A 
ENDBRANCH  21  28
BRANCH  21  34
ATOM     34  O   UNL     1       4.333   6.194  16.430  0.00  0.00    +0.000 OA
ATOM     35  H   UNL     1       3.512   5.693  16.543  0.00  0.00    +0.000 HD
ENDBRANCH  21  34
ENDBRANCH   4  21
TORSDOF 11
ENDMDL
MODEL 6
REMARK VINA RESULT:      -7.6      0.192      1.199
REMARK  Name = 
REMARK  11 active torsions:
REMARK  status: ('A' for Active; 'I' for Inactive)
REMARK    1  A    between atoms: C_2  and  C_3
REMARK    2  A    between atoms: C_6  and  O_7
REMARK    3  A    between atoms: O_7  and  C_8
REMARK    4  A    between atoms: C_8  and  C_9
REMARK    5  A    between atoms: C_9  and  O_10
REMARK    6  A    between atoms: C_9  and  C_11
REMARK    7  A    between atoms: C_11  and  N_12
REMARK    8  A    between atoms: C_15  and  C_16
REMARK    9  A    between atoms: C_16  and  O_17
REMARK   10  A    between atoms: C_16  and  C_18
REMARK   11  A    between atoms: C_16  and  C_24
REMARK                            x       y       z     vdW  Elec       q    Type
REMARK                         _______ _______ _______ _____ _____    ______ ____
ROOT
ATOM      1  N   UNL     1       3.091   4.572  18.938  0.00  0.00    +0.000 NA
ATOM      2  C   UNL     1       3.908   5.747  18.587  0.00  0.00    +0.000 C 
ATOM      3  C   UNL     1       3.818   6.119  17.110  0.00  0.00    +0.000 C 
ATOM      4  C   UNL     1       4.192   4.963  16.168  0.00  0.00    +0.000 C 
ATOM      5  C   UNL     1       3.262   3.786  16.557  0.00  0.00    +0.000 C 
ATOM      6  C   UNL     1       3.292   3.427  18.041  0.00  0.00    +0.000 C 
ENDROOT
BRANCH   1   7
ATOM      7  C   UNL     1       3.380   4.139  20.322  0.00  0.00    +0.000 C 
BRANCH   7   8
ATOM      8  C   UNL     1       2.256   4.386  21.343  0.00  0.00    +0.000 C 
BRANCH   8   9
ATOM      9  O   UNL     1       1.532   3.157  21.526  0.00  0.00    +0.000 OA
ATOM     10  H   UNL     1       1.198   3.138  22.438  0.00  0.00    +0.000 HD
ENDBRANCH   8   9
BRANCH   8  11
ATOM     11  C   UNL     1       1.322   5.516  20.884  0.00  0.00    +0.000 C 
BRANCH  11  12
ATOM     12  O   UNL     1       1.880   6.757  21.327  0.00  0.00    +0.000 OA
BRANCH  12  16
ATOM     13  C   UNL     1       0.205  10.123  19.569  0.00  0.00    +0.000 A 
ATOM     14  C   UNL     1       1.216   9.393  18.941  0.00  0.00    +0.000 A 
ATOM     15  C   UNL     1       1.756   8.275  19.575  0.00  0.00    +0.000 A 
ATOM     16  C   UNL     1       1.299   7.890  20.836  0.00  0.00    +0.000 A 
ATOM     17  C   UNL     1       0.288   8.617  21.464  0.00  0.00    +0.000 A 
ATOM     18  C   UNL     1      -0.260   9.734  20.829  0.00  0.00    +0.000 A 
BRANCH  13  20
ATOM     19  N   UNL     1      -0.829  12.187  18.392  0.00  0.00    +0.000 NA
ATOM     20  C   UNL     1      -0.367  11.262  18.917  0.00  0.00    +0.000 C 
ENDBRANCH  13  20
ENDBRANCH  12  16
ENDBRANCH  11  12
ENDBRANCH   8  11
ENDBRANCH   7   8
ENDBRANCH   1   7
BRANCH   4  21
ATOM     21  C   UNL     1       5.736   4.591  16.119  0.00  0.00    +0.000 C 
BRANCH  21  22
ATOM     22  C   UNL     1       6.275   4.583  14.663  0.00  0.00    +0.000 A 
ATOM     23  C   UNL     1       5.715   3.762  13.666  0.00  0.00    +0.000 A 
ATOM     24  C   UNL     1       6.318   3.627  12.413  0.00  0.00    +0.000 A 
ATOM     25  C   UNL     1       7.473   4.341  12.116  0.00  0.00    +0.000 A 
ATOM     26  C   UNL     1       7.998   5.225  13.053  0.00  0.00    +0.000 A 
ATOM     27  C   UNL     1       7.391   5.364  14.304  0.00  0.00    +0.000 A 
ENDBRANCH  21  22
BRANCH  21  28
ATOM     28  C   UNL     1       6.601   5.495  17.019  0.00  0.00    +0.000 A 
ATOM     29  C   UNL     1       7.254   4.985  18.162  0.00  0.00    +0.000 A 
ATOM     30  C   UNL     1       8.073   5.788  18.961  0.00  0.00    +0.000 A 
ATOM     31  C   UNL     1       8.259   7.127  18.638  0.00  0.00    +0.000 A 
ATOM     32  C   UNL     1       7.616   7.662  17.524  0.00  0.00    +0.000 A 
ATOM     33  C   UNL     1       6.793   6.857  16.725  0.00  0.00    +0.000 A 
ENDBRANCH  21  28
BRANCH  21  34
ATOM     34  O   UNL     1       5.859   3.253  16.633  0.00  0.00    +0.000 OA
ATOM     35  H   UNL     1       6.750   2.934  16.424  0.00  0.00    +0.000 HD
ENDBRANCH  21  34
ENDBRANCH   4  21
TORSDOF 11
ENDMDL
MODEL 7
REMARK VINA RESULT:      -7.4      1.543      3.980
REMARK  Name = 
REMARK  11 active torsions:
REMARK  status: ('A' for Active; 'I' for Inactive)
REMARK    1  A    between atoms: C_2  and  C_3
REMARK    2  A    between atoms: C_6  and  O_7
REMARK    3  A    between atoms: O_7  and  C_8
REMARK    4  A    between atoms: C_8  and  C_9
REMARK    5  A    between atoms: C_9  and  O_10
REMARK    6  A    between atoms: C_9  and  C_11
REMARK    7  A    between atoms: C_11  and  N_12
REMARK    8  A    between atoms: C_15  and  C_16
REMARK    9  A    between atoms: C_16  and  O_17
REMARK   10  A    between atoms: C_16  and  C_18
REMARK   11  A    between atoms: C_16  and  C_24
REMARK                            x       y       z     vdW  Elec       q    Type
REMARK                         _______ _______ _______ _____ _____    ______ ____
ROOT
ATOM      1  N   UNL     1       2.676   4.582  19.073  0.00  0.00    +0.000 NA
ATOM      2  C   UNL     1       2.510   4.370  17.624  0.00  0.00    +0.000 C 
ATOM      3  C   UNL     1       3.541   3.412  17.037  0.00  0.00    +0.000 C 
ATOM      4  C   UNL     1       4.992   3.841  17.306  0.00  0.00    +0.000 C 
ATOM      5  C   UNL     1       5.108   3.992  18.844  0.00  0.00    +0.000 C 
ATOM      6  C   UNL     1       4.053   4.905  19.466  0.00  0.00    +0.000 C 
ENDROOT
BRANCH   1   7
ATOM      7  C   UNL     1       1.789   5.669  19.539  0.00  0.00    +0.000 C 
BRANCH   7   8
ATOM      8  C   UNL     1       2.409   7.077  19.545  0.00  0.00    +0.000 C 
BRANCH   8   9
ATOM      9  O   UNL     1       2.104   7.702  20.803  0.00  0.00    +0.000 OA
ATOM     10  H   UNL     1       2.661   7.293  21.485  0.00  0.00    +0.000 HD
ENDBRANCH   8   9
BRANCH   8  11
ATOM     11  C   UNL     1       1.895   7.918  18.368  0.00  0.00    +0.000 C 
BRANCH  11  12
ATOM     12  O   UNL     1       1.932   9.294  18.758  0.00  0.00    +0.000 OA
BRANCH  12  16
ATOM     13  C   UNL     1      -1.613  11.358  19.389  0.00  0.00    +0.000 A 
ATOM     14  C   UNL     1      -0.571  11.389  20.317  0.00  0.00    +0.000 A 
ATOM     15  C   UNL     1       0.597  10.670  20.068  0.00  0.00    +0.000 A 
ATOM     16  C   UNL     1       0.725   9.914  18.901  0.00  0.00    +0.000 A 
ATOM     17  C   UNL     1      -0.315   9.884  17.972  0.00  0.00    +0.000 A 
ATOM     18  C   UNL     1      -1.485  10.607  18.216  0.00  0.00    +0.000 A 
BRANCH  13  20
ATOM     19  N   UNL     1      -3.777  12.716  19.825  0.00  0.00    +0.000 NA
ATOM     20  C   UNL     1      -2.810  12.107  19.630  0.00  0.00    +0.000 C 
ENDBRANCH  13  20
ENDBRANCH  12  16
ENDBRANCH  11  12
ENDBRANCH   8  11
ENDBRANCH   7   8
ENDBRANCH   1   7
BRANCH   4  21
ATOM     21  C   UNL     1       5.498   5.102  16.483  0.00  0.00    +0.000 C 
BRANCH  21  22
ATOM     22  C   UNL     1       6.610   5.872  17.243  0.00  0.00    +0.000 A 
ATOM     23  C   UNL     1       7.401   5.256  18.231  0.00  0.00    +0.000 A 
ATOM     24  C   UNL     1       8.271   5.998  19.033  0.00  0.00    +0.000 A 
ATOM     25  C   UNL     1       8.400   7.368  18.837  0.00  0.00    +0.000 A 
ATOM     26  C   UNL     1       7.696   7.988  17.809  0.00  0.00    +0.000 A 
ATOM     27  C   UNL     1       6.829   7.244  17.005  0.00  0.00    +0.000 A 
ENDBRANCH  21  22
BRANCH  21  28
ATOM     28  C   UNL     1       5.956   4.745  15.055  0.00  0.00    +0.000 A 
ATOM     29  C   UNL     1       7.194   5.195  14.547  0.00  0.00    +0.000 A 
ATOM     30  C   UNL     1       7.635   4.842  13.267  0.00  0.00    +0.000 A 
ATOM     31  C   UNL     1       6.847   4.030  12.462  0.00  0.00    +0.000 A 
ATOM     32  C   UNL     1       5.615   3.583  12.931  0.00  0.00    +0.000 A 
ATOM     33  C   UNL     1       5.172   3.938  14.212  0.00  0.00    +0.000 A 
ENDBRANCH  21  28
BRANCH  21  34
ATOM     34  O   UNL     1       4.373   5.991  16.347  0.00  0.00    +0.000 OA
ATOM     35  H   UNL     1       4.162   6.063  15.405  0.00  0.00    +0.000 HD
ENDBRANCH  21  34
ENDBRANCH   4  21
TORSDOF 11
ENDMDL
MODEL 8
REMARK VINA RESULT:      -7.4      5.713      9.865
REMARK  Name = 
REMARK  11 active torsions:
REMARK  status: ('A' for Active; 'I' for Inactive)
REMARK    1  A    between atoms: C_2  and  C_3
REMARK    2  A    between atoms: C_6  and  O_7
REMARK    3  A    between atoms: O_7  and  C_8
REMARK    4  A    between atoms: C_8  and  C_9
REMARK    5  A    between atoms: C_9  and  O_10
REMARK    6  A    between atoms: C_9  and  C_11
REMARK    7  A    between atoms: C_11  and  N_12
REMARK    8  A    between atoms: C_15  and  C_16
REMARK    9  A    between atoms: C_16  and  O_17
REMARK   10  A    between atoms: C_16  and  C_18
REMARK   11  A    between atoms: C_16  and  C_24
REMARK                            x       y       z     vdW  Elec       q    Type
REMARK                         _______ _______ _______ _____ _____    ______ ____
ROOT
ATOM      1  N   UNL     1       0.912  14.500  20.634  0.00  0.00    +0.000 NA
ATOM      2  C   UNL     1       1.729  13.275  20.601  0.00  0.00    +0.000 C 
ATOM      3  C   UNL     1       1.859  12.679  19.204  0.00  0.00    +0.000 C 
ATOM      4  C   UNL     1       0.505  12.382  18.541  0.00  0.00    +0.000 C 
ATOM      5  C   UNL     1      -0.276  13.720  18.562  0.00  0.00    +0.000 C 
ATOM      6  C   UNL     1      -0.376  14.367  19.941  0.00  0.00    +0.000 C 
ENDROOT
BRANCH   1   7
ATOM      7  C   UNL     1       0.653  14.909  22.030  0.00  0.00    +0.000 C 
BRANCH   7   8
ATOM      8  C   UNL     1      -0.796  15.322  22.344  0.00  0.00    +0.000 C 
BRANCH   8   9
ATOM      9  O   UNL     1      -0.930  16.732  22.095  0.00  0.00    +0.000 OA
ATOM     10  H   UNL     1      -0.735  16.892  21.157  0.00  0.00    +0.000 HD
ENDBRANCH   8   9
BRANCH   8  11
ATOM     11  C   UNL     1      -1.176  14.976  23.791  0.00  0.00    +0.000 C 
BRANCH  11  12
ATOM     12  O   UNL     1      -2.454  15.557  24.063  0.00  0.00    +0.000 OA
BRANCH  12  16
ATOM     13  C   UNL     1      -5.804  13.112  23.897  0.00  0.00    +0.000 A 
ATOM     14  C   UNL     1      -5.819  14.412  23.389  0.00  0.00    +0.000 A 
ATOM     15  C   UNL     1      -4.672  15.201  23.478  0.00  0.00    +0.000 A 
ATOM     16  C   UNL     1      -3.516  14.701  24.079  0.00  0.00    +0.000 A 
ATOM     17  C   UNL     1      -3.500  13.401  24.585  0.00  0.00    +0.000 A 
ATOM     18  C   UNL     1      -4.645  12.606  24.494  0.00  0.00    +0.000 A 
BRANCH  13  20
ATOM     19  N   UNL     1      -7.917  11.622  23.716  0.00  0.00    +0.000 NA
ATOM     20  C   UNL     1      -6.972  12.290  23.796  0.00  0.00    +0.000 C 
ENDBRANCH  13  20
ENDBRANCH  12  16
ENDBRANCH  11  12
ENDBRANCH   8  11
ENDBRANCH   7   8
ENDBRANCH   1   7
BRANCH   4  21
ATOM     21  C   UNL     1      -0.295  11.146  19.139  0.00  0.00    +0.000 C 
BRANCH  21  22
ATOM     22  C   UNL     1      -1.584  10.852  18.327  0.00  0.00    +0.000 A 
ATOM     23  C   UNL     1      -1.577  10.017  17.193  0.00  0.00    +0.000 A 
ATOM     24  C   UNL     1      -2.698   9.904  16.368  0.00  0.00    +0.000 A 
ATOM     25  C   UNL     1      -3.865  10.593  16.679  0.00  0.00    +0.000 A 
ATOM     26  C   UNL     1      -3.926  11.356  17.841  0.00  0.00    +0.000 A 
ATOM     27  C   UNL     1      -2.806  11.465  18.669  0.00  0.00    +0.000 A 
ENDBRANCH  21  22
BRANCH  21  28
ATOM     28  C   UNL     1       0.571   9.877  19.272  0.00  0.00    +0.000 A 
ATOM     29  C   UNL     1       1.337   9.394  18.189  0.00  0.00    +0.000 A 
ATOM     30  C   UNL     1       2.155   8.267  18.312  0.00  0.00    +0.000 A 
ATOM     31  C   UNL     1       2.227   7.592  19.524  0.00  0.00    +0.000 A 
ATOM     32  C   UNL     1       1.471   8.037  20.606  0.00  0.00    +0.000 A 
ATOM     33  C   UNL     1       0.649   9.164  20.481  0.00  0.00    +0.000 A 
ENDBRANCH  21  28
BRANCH  21  34
ATOM     34  O   UNL     1      -0.698  11.515  20.470  0.00  0.00    +0.000 OA
ATOM     35  H   UNL     1       0.099  11.750  20.969  0.00  0.00    +0.000 HD
ENDBRANCH  21  34
ENDBRANCH   4  21
TORSDOF 11
ENDMDL
MODEL 9
REMARK VINA RESULT:      -7.4      5.486      9.609
REMARK  Name = 
REMARK  11 active torsions:
REMARK  status: ('A' for Active; 'I' for Inactive)
REMARK    1  A    between atoms: C_2  and  C_3
REMARK    2  A    between atoms: C_6  and  O_7
REMARK    3  A    between atoms: O_7  and  C_8
REMARK    4  A    between atoms: C_8  and  C_9
REMARK    5  A    between atoms: C_9  and  O_10
REMARK    6  A    between atoms: C_9  and  C_11
REMARK    7  A    between atoms: C_11  and  N_12
REMARK    8  A    between atoms: C_15  and  C_16
REMARK    9  A    between atoms: C_16  and  O_17
REMARK   10  A    between atoms: C_16  and  C_18
REMARK   11  A    between atoms: C_16  and  C_24
REMARK                            x       y       z     vdW  Elec       q    Type
REMARK                         _______ _______ _______ _____ _____    ______ ____
ROOT
ATOM      1  N   UNL     1       1.392  14.639  20.411  0.00  0.00    +0.000 NA
ATOM      2  C   UNL     1       2.238  13.435  20.342  0.00  0.00    +0.000 C 
ATOM      3  C   UNL     1       2.257  12.794  18.959  0.00  0.00    +0.000 C 
ATOM      4  C   UNL     1       0.857  12.439  18.433  0.00  0.00    +0.000 C 
ATOM      5  C   UNL     1       0.043  13.757  18.483  0.00  0.00    +0.000 C 
ATOM      6  C   UNL     1       0.051  14.449  19.844  0.00  0.00    +0.000 C 
ENDROOT
BRANCH   1   7
ATOM      7  C   UNL     1       1.250  15.090  21.811  0.00  0.00    +0.000 C 
BRANCH   7   8
ATOM      8  C   UNL     1       0.124  16.106  22.071  0.00  0.00    +0.000 C 
BRANCH   8   9
ATOM      9  O   UNL     1       0.568  17.399  21.627  0.00  0.00    +0.000 OA
ATOM     10  H   UNL     1       1.266  17.266  20.965  0.00  0.00    +0.000 HD
ENDBRANCH   8   9
BRANCH   8  11
ATOM     11  C   UNL     1      -0.272  16.134  23.555  0.00  0.00    +0.000 C 
BRANCH  11  12
ATOM     12  O   UNL     1      -0.430  14.783  23.996  0.00  0.00    +0.000 OA
BRANCH  12  16
ATOM     13  C   UNL     1      -4.216  13.260  23.235  0.00  0.00    +0.000 A 
ATOM     14  C   UNL     1      -4.031  14.440  23.957  0.00  0.00    +0.000 A 
ATOM     15  C   UNL     1      -2.740  14.907  24.199  0.00  0.00    +0.000 A 
ATOM     16  C   UNL     1      -1.633  14.197  23.730  0.00  0.00    +0.000 A 
ATOM     17  C   UNL     1      -1.817  13.019  23.006  0.00  0.00    +0.000 A 
ATOM     18  C   UNL     1      -3.109  12.550  22.758  0.00  0.00    +0.000 A 
BRANCH  13  20
ATOM     19  N   UNL     1      -6.610  12.394  22.751  0.00  0.00    +0.000 NA
ATOM     20  C   UNL     1      -5.539  12.782  22.969  0.00  0.00    +0.000 C 
ENDBRANCH  13  20
ENDBRANCH  12  16
ENDBRANCH  11  12
ENDBRANCH   8  11
ENDBRANCH   7   8
ENDBRANCH   1   7
BRANCH   4  21
ATOM     21  C   UNL     1       0.151  11.205  19.143  0.00  0.00    +0.000 C 
BRANCH  21  22
ATOM     22  C   UNL     1      -1.280  10.970  18.590  0.00  0.00    +0.000 A 
ATOM     23  C   UNL     1      -1.530  10.100  17.512  0.00  0.00    +0.000 A 
ATOM     24  C   UNL     1      -2.787  10.034  16.908  0.00  0.00    +0.000 A 
ATOM     25  C   UNL     1      -3.835  10.808  17.395  0.00  0.00    +0.000 A 
ATOM     26  C   UNL     1      -3.638  11.610  18.514  0.00  0.00    +0.000 A 
ATOM     27  C   UNL     1      -2.381  11.672  19.121  0.00  0.00    +0.000 A 
ENDBRANCH  21  22
BRANCH  21  28
ATOM     28  C   UNL     1       0.986   9.911  19.069  0.00  0.00    +0.000 A 
ATOM     29  C   UNL     1       1.083   9.036  20.173  0.00  0.00    +0.000 A 
ATOM     30  C   UNL     1       1.805   7.841  20.102  0.00  0.00    +0.000 A 
ATOM     31  C   UNL     1       2.453   7.491  18.924  0.00  0.00    +0.000 A 
ATOM     32  C   UNL     1       2.387   8.342  17.823  0.00  0.00    +0.000 A 
ATOM     33  C   UNL     1       1.665   9.541  17.895  0.00  0.00    +0.000 A 
ENDBRANCH  21  28
BRANCH  21  34
ATOM     34  O   UNL     1       0.027  11.540  20.537  0.00  0.00    +0.000 OA
ATOM     35  H   UNL     1      -0.046  12.503  20.606  0.00  0.00    +0.000 HD
ENDBRANCH  21  34
ENDBRANCH   4  21
TORSDOF 11
ENDMDL
