MODEL 1
REMARK VINA RESULT:      -6.1      0.000      0.000
REMARK  Name = 
REMARK  4 active torsions:
REMARK  status: ('A' for Active; 'I' for Inactive)
REMARK    1  A    between atoms: C_1  and  C_2
REMARK    2  A    between atoms: C_2  and  N_3
REMARK    3  A    between atoms: C_9  and  C_11
REMARK    4  A    between atoms: C_14  and  C_15
REMARK                            x       y       z     vdW  Elec       q    Type
REMARK                         _______ _______ _______ _____ _____    ______ ____
ROOT
ATOM      1  N   UNL     1       4.655   4.991  18.435  0.00  0.00    +0.000 N 
ATOM      2  C   UNL     1       4.111   6.282  18.758  0.00  0.00    +0.000 C 
ATOM      3  C   UNL     1       2.588   6.107  18.640  0.00  0.00    +0.000 C 
ATOM      4  C   UNL     1       1.931   7.263  17.879  0.00  0.00    +0.000 C 
ATOM      5  C   UNL     1       1.974   8.574  18.646  0.00  0.00    +0.000 C 
ATOM      6  N   UNL     1       1.404   8.436  19.978  0.00  0.00    +0.000 N 
ATOM      7  C   UNL     1       0.474   9.319  20.568  0.00  0.00    +0.000 C 
ATOM      8  O   UNL     1      -0.010   9.055  21.670  0.00  0.00    +0.000 OA
ATOM      9  C   UNL     1       1.939   7.343  20.794  0.00  0.00    +0.000 C 
ATOM     10  C   UNL     1       1.936   6.005  20.039  0.00  0.00    +0.000 C 
ATOM     11  C   UNL     1       2.407   4.808  17.824  0.00  0.00    +0.000 C 
ATOM     12  C   UNL     1       3.757   4.147  17.818  0.00  0.00    +0.000 C 
ATOM     13  O   UNL     1       3.992   3.041  17.361  0.00  0.00    +0.000 OA
ENDROOT
BRANCH   7  14
ATOM     14  C   UNL     1       0.098  10.536  19.857  0.00  0.00    +0.000 A 
ATOM     15  C   UNL     1      -0.852  10.774  18.884  0.00  0.00    +0.000 A 
ATOM     16  N   UNL     1      -0.963  12.075  18.440  0.00  0.00    +0.000 NA
ATOM     17  C   UNL     1      -0.035  12.811  19.013  0.00  0.00    +0.000 A 
ATOM     18  C   UNL     1       0.184  14.251  18.716  0.00  0.00    +0.000 C 
ATOM     19  S   UNL     1       0.971  11.992  20.138  0.00  0.00    +0.000 S 
ENDBRANCH   7  14
BRANCH   1  21
ATOM     20  C   UNL     1       7.004   4.765  17.819  0.00  0.00    +0.000 C 
ATOM     21  C   UNL     1       5.955   4.553  18.902  0.00  0.00    +0.000 C 
ENDBRANCH   1  21
TORSDOF 2
ENDMDL
MODEL 2
REMARK VINA RESULT:      -6.1      4.594      7.976
REMARK  Name = 
REMARK  4 active torsions:
REMARK  status: ('A' for Active; 'I' for Inactive)
REMARK    1  A    between atoms: C_1  and  C_2
REMARK    2  A    between atoms: C_2  and  N_3
REMARK    3  A    between atoms: C_9  and  C_11
REMARK    4  A    between atoms: C_14  and  C_15
REMARK                            x       y       z     vdW  Elec       q    Type
REMARK                         _______ _______ _______ _____ _____    ______ ____
ROOT
ATOM      1  N   UNL     1       2.006   4.629  20.421  0.00  0.00    +0.000 N 
ATOM      2  C   UNL     1       2.838   4.191  19.333  0.00  0.00    +0.000 C 
ATOM      3  C   UNL     1       3.573   5.457  18.865  0.00  0.00    +0.000 C 
ATOM      4  C   UNL     1       3.576   5.593  17.340  0.00  0.00    +0.000 C 
ATOM      5  C   UNL     1       4.432   4.540  16.655  0.00  0.00    +0.000 C 
ATOM      6  N   UNL     1       5.790   4.526  17.181  0.00  0.00    +0.000 N 
ATOM      7  C   UNL     1       6.969   4.496  16.406  0.00  0.00    +0.000 C 
ATOM      8  O   UNL     1       8.068   4.576  16.957  0.00  0.00    +0.000 OA
ATOM      9  C   UNL     1       5.911   4.423  18.637  0.00  0.00    +0.000 C 
ATOM     10  C   UNL     1       5.038   5.457  19.363  0.00  0.00    +0.000 C 
ATOM     11  C   UNL     1       2.760   6.625  19.467  0.00  0.00    +0.000 C 
ATOM     12  C   UNL     1       1.853   5.997  20.488  0.00  0.00    +0.000 C 
ATOM     13  O   UNL     1       1.128   6.612  21.252  0.00  0.00    +0.000 OA
ENDROOT
BRANCH   7  14
ATOM     14  C   UNL     1       6.864   4.371  14.956  0.00  0.00    +0.000 A 
ATOM     15  C   UNL     1       7.484   5.054  13.930  0.00  0.00    +0.000 A 
ATOM     16  N   UNL     1       7.170   4.653  12.648  0.00  0.00    +0.000 NA
ATOM     17  C   UNL     1       6.243   3.722  12.699  0.00  0.00    +0.000 A 
ATOM     18  C   UNL     1       5.615   3.108  11.498  0.00  0.00    +0.000 C 
ATOM     19  S   UNL     1       5.747   3.255  14.275  0.00  0.00    +0.000 S 
ENDBRANCH   7  14
BRANCH   1  21
ATOM     20  C   UNL     1       2.502   2.554  21.600  0.00  0.00    +0.000 C 
ATOM     21  C   UNL     1       1.550   3.733  21.464  0.00  0.00    +0.000 C 
ENDBRANCH   1  21
TORSDOF 2
ENDMDL
MODEL 3
REMARK VINA RESULT:      -5.9      2.846      7.565
REMARK  Name = 
REMARK  4 active torsions:
REMARK  status: ('A' for Active; 'I' for Inactive)
REMARK    1  A    between atoms: C_1  and  C_2
REMARK    2  A    between atoms: C_2  and  N_3
REMARK    3  A    between atoms: C_9  and  C_11
REMARK    4  A    between atoms: C_14  and  C_15
REMARK                            x       y       z     vdW  Elec       q    Type
REMARK                         _______ _______ _______ _____ _____    ______ ____
ROOT
ATOM      1  N   UNL     1      -0.980  10.922  18.501  0.00  0.00    +0.000 N 
ATOM      2  C   UNL     1      -0.196   9.774  18.132  0.00  0.00    +0.000 C 
ATOM      3  C   UNL     1       1.168   9.998  18.805  0.00  0.00    +0.000 C 
ATOM      4  C   UNL     1       2.335   9.702  17.858  0.00  0.00    +0.000 C 
ATOM      5  C   UNL     1       2.461   8.226  17.519  0.00  0.00    +0.000 C 
ATOM      6  N   UNL     1       2.542   7.405  18.719  0.00  0.00    +0.000 N 
ATOM      7  C   UNL     1       3.475   6.369  18.942  0.00  0.00    +0.000 C 
ATOM      8  O   UNL     1       3.509   5.798  20.033  0.00  0.00    +0.000 OA
ATOM      9  C   UNL     1       1.488   7.618  19.713  0.00  0.00    +0.000 C 
ATOM     10  C   UNL     1       1.314   9.105  20.060  0.00  0.00    +0.000 C 
ATOM     11  C   UNL     1       1.186  11.501  19.162  0.00  0.00    +0.000 C 
ATOM     12  C   UNL     1      -0.235  11.966  19.005  0.00  0.00    +0.000 C 
ATOM     13  O   UNL     1      -0.643  13.076  19.300  0.00  0.00    +0.000 OA
ENDROOT
BRANCH   7  14
ATOM     14  C   UNL     1       4.390   5.992  17.870  0.00  0.00    +0.000 A 
ATOM     15  C   UNL     1       5.414   6.682  17.254  0.00  0.00    +0.000 A 
ATOM     16  N   UNL     1       6.110   6.003  16.276  0.00  0.00    +0.000 NA
ATOM     17  C   UNL     1       5.556   4.826  16.087  0.00  0.00    +0.000 A 
ATOM     18  C   UNL     1       6.005   3.852  15.056  0.00  0.00    +0.000 C 
ATOM     19  S   UNL     1       4.219   4.464  17.100  0.00  0.00    +0.000 S 
ENDBRANCH   7  14
BRANCH   1  21
ATOM     20  C   UNL     1      -2.963   9.872  17.547  0.00  0.00    +0.000 C 
ATOM     21  C   UNL     1      -2.428  10.899  18.535  0.00  0.00    +0.000 C 
ENDBRANCH   1  21
TORSDOF 2
ENDMDL
MODEL 4
REMARK VINA RESULT:      -5.8      2.613      7.486
REMARK  Name = 
REMARK  4 active torsions:
REMARK  status: ('A' for Active; 'I' for Inactive)
REMARK    1  A    between atoms: C_1  and  C_2
REMARK    2  A    between atoms: C_2  and  N_3
REMARK    3  A    between atoms: C_9  and  C_11
REMARK    4  A    between atoms: C_14  and  C_15
REMARK                            x       y       z     vdW  Elec       q    Type
REMARK                         _______ _______ _______ _____ _____    ______ ____
ROOT
ATOM      1  N   UNL     1      -0.806  11.034  18.442  0.00  0.00    +0.000 N 
ATOM      2  C   UNL     1      -0.185   9.761  18.187  0.00  0.00    +0.000 C 
ATOM      3  C   UNL     1       1.243   9.903  18.738  0.00  0.00    +0.000 C 
ATOM      4  C   UNL     1       2.293   9.349  17.770  0.00  0.00    +0.000 C 
ATOM      5  C   UNL     1       2.227   7.836  17.632  0.00  0.00    +0.000 C 
ATOM      6  N   UNL     1       2.308   7.175  18.926  0.00  0.00    +0.000 N 
ATOM      7  C   UNL     1       3.134   6.072  19.233  0.00  0.00    +0.000 C 
ATOM      8  O   UNL     1       3.188   5.647  20.388  0.00  0.00    +0.000 OA
ATOM      9  C   UNL     1       1.365   7.641  19.944  0.00  0.00    +0.000 C 
ATOM     10  C   UNL     1       1.385   9.170  20.092  0.00  0.00    +0.000 C 
ATOM     11  C   UNL     1       1.455  11.427  18.882  0.00  0.00    +0.000 C 
ATOM     12  C   UNL     1       0.088  12.036  18.750  0.00  0.00    +0.000 C 
ATOM     13  O   UNL     1      -0.171  13.217  18.913  0.00  0.00    +0.000 OA
ENDROOT
BRANCH   7  14
ATOM     14  C   UNL     1       3.916   5.451  18.169  0.00  0.00    +0.000 A 
ATOM     15  C   UNL     1       3.643   4.390  17.330  0.00  0.00    +0.000 A 
ATOM     16  N   UNL     1       4.613   4.078  16.400  0.00  0.00    +0.000 NA
ATOM     17  C   UNL     1       5.662   4.846  16.591  0.00  0.00    +0.000 A 
ATOM     18  C   UNL     1       6.925   4.738  15.812  0.00  0.00    +0.000 C 
ATOM     19  S   UNL     1       5.514   6.002  17.852  0.00  0.00    +0.000 S 
ENDBRANCH   7  14
BRANCH   1  21
ATOM     20  C   UNL     1      -2.961  10.191  17.673  0.00  0.00    +0.000 C 
ATOM     21  C   UNL     1      -2.241  11.190  18.567  0.00  0.00    +0.000 C 
ENDBRANCH   1  21
TORSDOF 2
ENDMDL
MODEL 5
REMARK VINA RESULT:      -5.8      2.196      3.048
REMARK  Name = 
REMARK  4 active torsions:
REMARK  status: ('A' for Active; 'I' for Inactive)
REMARK    1  A    between atoms: C_1  and  C_2
REMARK    2  A    between atoms: C_2  and  N_3
REMARK    3  A    between atoms: C_9  and  C_11
REMARK    4  A    between atoms: C_14  and  C_15
REMARK                            x       y       z     vdW  Elec       q    Type
REMARK                         _______ _______ _______ _____ _____    ______ ____
ROOT
ATOM      1  N   UNL     1       2.720   3.834  18.790  0.00  0.00    +0.000 N 
ATOM      2  C   UNL     1       1.982   5.064  18.902  0.00  0.00    +0.000 C 
ATOM      3  C   UNL     1       3.042   6.130  19.224  0.00  0.00    +0.000 C 
ATOM      4  C   UNL     1       2.597   7.064  20.354  0.00  0.00    +0.000 C 
ATOM      5  C   UNL     1       1.444   7.970  19.951  0.00  0.00    +0.000 C 
ATOM      6  N   UNL     1       1.749   8.721  18.742  0.00  0.00    +0.000 N 
ATOM      7  C   UNL     1       1.536  10.105  18.561  0.00  0.00    +0.000 C 
ATOM      8  O   UNL     1       1.913  10.654  17.525  0.00  0.00    +0.000 OA
ATOM      9  C   UNL     1       2.209   7.933  17.597  0.00  0.00    +0.000 C 
ATOM     10  C   UNL     1       3.358   6.985  17.974  0.00  0.00    +0.000 C 
ATOM     11  C   UNL     1       4.273   5.326  19.699  0.00  0.00    +0.000 C 
ATOM     12  C   UNL     1       3.994   3.901  19.310  0.00  0.00    +0.000 C 
ATOM     13  O   UNL     1       4.783   2.978  19.424  0.00  0.00    +0.000 OA
ENDROOT
BRANCH   7  14
ATOM     14  C   UNL     1       0.869  10.865  19.613  0.00  0.00    +0.000 A 
ATOM     15  C   UNL     1       1.367  11.616  20.659  0.00  0.00    +0.000 A 
ATOM     16  N   UNL     1       0.437  12.237  21.465  0.00  0.00    +0.000 NA
ATOM     17  C   UNL     1      -0.772  11.887  21.085  0.00  0.00    +0.000 A 
ATOM     18  C   UNL     1      -2.018  12.316  21.776  0.00  0.00    +0.000 C 
ATOM     19  S   UNL     1      -0.848  10.845  19.723  0.00  0.00    +0.000 S 
ENDBRANCH   7  14
BRANCH   1  21
ATOM     20  C   UNL     1       0.974   2.139  18.638  0.00  0.00    +0.000 C 
ATOM     21  C   UNL     1       2.242   2.706  18.016  0.00  0.00    +0.000 C 
ENDBRANCH   1  21
TORSDOF 2
ENDMDL
MODEL 6
REMARK VINA RESULT:      -5.8      4.563      7.919
REMARK  Name = 
REMARK  4 active torsions:
REMARK  status: ('A' for Active; 'I' for Inactive)
REMARK    1  A    between atoms: C_1  and  C_2
REMARK    2  A    between atoms: C_2  and  N_3
REMARK    3  A    between atoms: C_9  and  C_11
REMARK    4  A    between atoms: C_14  and  C_15
REMARK                            x       y       z     vdW  Elec       q    Type
REMARK                         _______ _______ _______ _____ _____    ______ ____
ROOT
ATOM      1  N   UNL     1       1.912   4.606  20.325  0.00  0.00    +0.000 N 
ATOM      2  C   UNL     1       2.738   4.167  19.231  0.00  0.00    +0.000 C 
ATOM      3  C   UNL     1       3.534   5.415  18.816  0.00  0.00    +0.000 C 
ATOM      4  C   UNL     1       3.564   5.601  17.295  0.00  0.00    +0.000 C 
ATOM      5  C   UNL     1       4.381   4.534  16.586  0.00  0.00    +0.000 C 
ATOM      6  N   UNL     1       5.730   4.443  17.127  0.00  0.00    +0.000 N 
ATOM      7  C   UNL     1       6.917   4.386  16.365  0.00  0.00    +0.000 C 
ATOM      8  O   UNL     1       8.011   4.399  16.931  0.00  0.00    +0.000 OA
ATOM      9  C   UNL     1       5.828   4.286  18.580  0.00  0.00    +0.000 C 
ATOM     10  C   UNL     1       4.991   5.334  19.330  0.00  0.00    +0.000 C 
ATOM     11  C   UNL     1       2.765   6.597  19.447  0.00  0.00    +0.000 C 
ATOM     12  C   UNL     1       1.818   5.977  20.435  0.00  0.00    +0.000 C 
ATOM     13  O   UNL     1       1.111   6.597  21.211  0.00  0.00    +0.000 OA
ENDROOT
BRANCH   7  14
ATOM     14  C   UNL     1       6.826   4.314  14.910  0.00  0.00    +0.000 A 
ATOM     15  C   UNL     1       6.164   3.437  14.075  0.00  0.00    +0.000 A 
ATOM     16  N   UNL     1       6.270   3.680  12.722  0.00  0.00    +0.000 NA
ATOM     17  C   UNL     1       7.085   4.692  12.525  0.00  0.00    +0.000 A 
ATOM     18  C   UNL     1       7.486   5.187  11.180  0.00  0.00    +0.000 C 
ATOM     19  S   UNL     1       7.718   5.422  13.944  0.00  0.00    +0.000 S 
ENDBRANCH   7  14
BRANCH   1  21
ATOM     20  C   UNL     1       2.423   2.605  21.619  0.00  0.00    +0.000 C 
ATOM     21  C   UNL     1       1.403   3.697  21.331  0.00  0.00    +0.000 C 
ENDBRANCH   1  21
TORSDOF 2
ENDMDL
MODEL 7
REMARK VINA RESULT:      -5.7      1.328      1.577
REMARK  Name = 
REMARK  4 active torsions:
REMARK  status: ('A' for Active; 'I' for Inactive)
REMARK    1  A    between atoms: C_1  and  C_2
REMARK    2  A    between atoms: C_2  and  N_3
REMARK    3  A    between atoms: C_9  and  C_11
REMARK    4  A    between atoms: C_14  and  C_15
REMARK                            x       y       z     vdW  Elec       q    Type
REMARK                         _______ _______ _______ _____ _____    ______ ____
ROOT
ATOM      1  N   UNL     1       3.943   4.092  18.760  0.00  0.00    +0.000 N 
ATOM      2  C   UNL     1       3.650   5.426  19.213  0.00  0.00    +0.000 C 
ATOM      3  C   UNL     1       2.169   5.643  18.862  0.00  0.00    +0.000 C 
ATOM      4  C   UNL     1       1.923   7.011  18.218  0.00  0.00    +0.000 C 
ATOM      5  C   UNL     1       2.123   8.164  19.187  0.00  0.00    +0.000 C 
ATOM      6  N   UNL     1       1.319   8.001  20.389  0.00  0.00    +0.000 N 
ATOM      7  C   UNL     1       0.520   9.003  20.983  0.00  0.00    +0.000 C 
ATOM      8  O   UNL     1      -0.190   8.728  21.952  0.00  0.00    +0.000 OA
ATOM      9  C   UNL     1       1.453   6.718  21.081  0.00  0.00    +0.000 C 
ATOM     10  C   UNL     1       1.283   5.527  20.125  0.00  0.00    +0.000 C 
ATOM     11  C   UNL     1       1.847   4.541  17.828  0.00  0.00    +0.000 C 
ATOM     12  C   UNL     1       2.998   3.577  17.899  0.00  0.00    +0.000 C 
ATOM     13  O   UNL     1       3.059   2.515  17.304  0.00  0.00    +0.000 OA
ENDROOT
BRANCH   7  14
ATOM     14  C   UNL     1       0.550  10.355  20.435  0.00  0.00    +0.000 A 
ATOM     15  C   UNL     1       1.301  11.464  20.770  0.00  0.00    +0.000 A 
ATOM     16  N   UNL     1       1.091  12.597  20.013  0.00  0.00    +0.000 NA
ATOM     17  C   UNL     1       0.117  12.376  19.159  0.00  0.00    +0.000 A 
ATOM     18  C   UNL     1      -0.423  13.404  18.229  0.00  0.00    +0.000 C 
ATOM     19  S   UNL     1      -0.553  10.795  19.191  0.00  0.00    +0.000 S 
ENDBRANCH   7  14
BRANCH   1  21
ATOM     20  C   UNL     1       4.460   2.296  20.327  0.00  0.00    +0.000 C 
ATOM     21  C   UNL     1       5.015   3.296  19.322  0.00  0.00    +0.000 C 
ENDBRANCH   1  21
TORSDOF 2
ENDMDL
MODEL 8
REMARK VINA RESULT:      -5.6      2.092      3.039
REMARK  Name = 
REMARK  4 active torsions:
REMARK  status: ('A' for Active; 'I' for Inactive)
REMARK    1  A    between atoms: C_1  and  C_2
REMARK    2  A    between atoms: C_2  and  N_3
REMARK    3  A    between atoms: C_9  and  C_11
REMARK    4  A    between atoms: C_14  and  C_15
REMARK                            x       y       z     vdW  Elec       q    Type
REMARK                         _______ _______ _______ _____ _____    ______ ____
ROOT
ATOM      1  N   UNL     1       3.088   4.336  18.097  0.00  0.00    +0.000 N 
ATOM      2  C   UNL     1       2.184   5.362  18.545  0.00  0.00    +0.000 C 
ATOM      3  C   UNL     1       3.093   6.497  19.043  0.00  0.00    +0.000 C 
ATOM      4  C   UNL     1       2.626   7.063  20.388  0.00  0.00    +0.000 C 
ATOM      5  C   UNL     1       1.312   7.821  20.285  0.00  0.00    +0.000 C 
ATOM      6  N   UNL     1       1.372   8.864  19.272  0.00  0.00    +0.000 N 
ATOM      7  C   UNL     1       0.930  10.195  19.438  0.00  0.00    +0.000 C 
ATOM      8  O   UNL     1       1.111  11.019  18.541  0.00  0.00    +0.000 OA
ATOM      9  C   UNL     1       1.830   8.444  17.946  0.00  0.00    +0.000 C 
ATOM     10  C   UNL     1       3.144   7.651  18.014  0.00  0.00    +0.000 C 
ATOM     11  C   UNL     1       4.475   5.834  19.235  0.00  0.00    +0.000 C 
ATOM     12  C   UNL     1       4.383   4.506  18.538  0.00  0.00    +0.000 C 
ATOM     13  O   UNL     1       5.312   3.733  18.379  0.00  0.00    +0.000 OA
ENDROOT
BRANCH   7  14
ATOM     14  C   UNL     1       0.264  10.573  20.680  0.00  0.00    +0.000 A 
ATOM     15  C   UNL     1       0.489  10.204  21.991  0.00  0.00    +0.000 A 
ATOM     16  N   UNL     1      -0.326  10.785  22.940  0.00  0.00    +0.000 NA
ATOM     17  C   UNL     1      -1.230  11.528  22.341  0.00  0.00    +0.000 A 
ATOM     18  C   UNL     1      -2.318  12.249  23.054  0.00  0.00    +0.000 C 
ATOM     19  S   UNL     1      -1.112  11.603  20.630  0.00  0.00    +0.000 S 
ENDBRANCH   7  14
BRANCH   1  21
ATOM     20  C   UNL     1       2.198   2.087  17.794  0.00  0.00    +0.000 C 
ATOM     21  C   UNL     1       2.714   3.344  17.110  0.00  0.00    +0.000 C 
ENDBRANCH   1  21
TORSDOF 2
ENDMDL
MODEL 9
REMARK VINA RESULT:      -5.5      1.968      2.761
REMARK  Name = 
REMARK  4 active torsions:
REMARK  status: ('A' for Active; 'I' for Inactive)
REMARK    1  A    between atoms: C_1  and  C_2
REMARK    2  A    between atoms: C_2  and  N_3
REMARK    3  A    between atoms: C_9  and  C_11
REMARK    4  A    between atoms: C_14  and  C_15
REMARK                            x       y       z     vdW  Elec       q    Type
REMARK                         _______ _______ _______ _____ _____    ______ ____
ROOT
ATOM      1  N   UNL     1       3.165   4.088  18.251  0.00  0.00    +0.000 N 
ATOM      2  C   UNL     1       2.313   5.246  18.305  0.00  0.00    +0.000 C 
ATOM      3  C   UNL     1       3.165   6.330  18.983  0.00  0.00    +0.000 C 
ATOM      4  C   UNL     1       2.384   7.091  20.059  0.00  0.00    +0.000 C 
ATOM      5  C   UNL     1       1.281   7.963  19.482  0.00  0.00    +0.000 C 
ATOM      6  N   UNL     1       1.792   8.873  18.467  0.00  0.00    +0.000 N 
ATOM      7  C   UNL     1       1.502  10.252  18.383  0.00  0.00    +0.000 C 
ATOM      8  O   UNL     1       2.062  10.946  17.532  0.00  0.00    +0.000 OA
ATOM      9  C   UNL     1       2.579   8.260  17.395  0.00  0.00    +0.000 C 
ATOM     10  C   UNL     1       3.688   7.349  17.942  0.00  0.00    +0.000 C 
ATOM     11  C   UNL     1       4.318   5.555  19.660  0.00  0.00    +0.000 C 
ATOM     12  C   UNL     1       4.270   4.173  19.071  0.00  0.00    +0.000 C 
ATOM     13  O   UNL     1       5.090   3.295  19.279  0.00  0.00    +0.000 OA
ENDROOT
BRANCH   7  14
ATOM     14  C   UNL     1       0.540  10.836  19.311  0.00  0.00    +0.000 A 
ATOM     15  C   UNL     1      -0.817  11.062  19.204  0.00  0.00    +0.000 A 
ATOM     16  N   UNL     1      -1.435  11.617  20.304  0.00  0.00    +0.000 NA
ATOM     17  C   UNL     1      -0.531  11.894  21.217  0.00  0.00    +0.000 A 
ATOM     18  C   UNL     1      -0.834  12.566  22.510  0.00  0.00    +0.000 C 
ATOM     19  S   UNL     1       1.081  11.459  20.820  0.00  0.00    +0.000 S 
ENDBRANCH   7  14
BRANCH   1  21
ATOM     20  C   UNL     1       2.212   1.875  17.882  0.00  0.00    +0.000 C 
ATOM     21  C   UNL     1       2.988   3.034  17.273  0.00  0.00    +0.000 C 
ENDBRANCH   1  21
TORSDOF 2
ENDMDL
