MODEL 1
REMARK VINA RESULT:      -7.6      0.000      0.000
REMARK  Name = 
REMARK  6 active torsions:
REMARK  status: ('A' for Active; 'I' for Inactive)
REMARK    1  A    between atoms: C_1  and  C_2
REMARK    2  A    between atoms: C_2  and  C_3
REMARK    3  A    between atoms: C_2  and  C_16
REMARK    4  A    between atoms: C_6  and  C_7
REMARK    5  A    between atoms: C_16  and  N_17
REMARK    6  A    between atoms: C_16  and  C_18
REMARK                            x       y       z     vdW  Elec       q    Type
REMARK                         _______ _______ _______ _____ _____    ______ ____
ROOT
ATOM      1  C   UNL     1       2.009   2.136  18.656  0.00  0.00    +0.000 C 
ATOM      2  C   UNL     1       2.917   3.362  18.454  0.00  0.00    +0.000 C 
ENDROOT
BRANCH   2   3
ATOM      3  C   UNL     1       2.541   4.467  19.381  0.00  0.00    +0.000 A 
ATOM      4  N   UNL     1       2.542   4.319  20.710  0.00  0.00    +0.000 NA
ATOM      5  O   UNL     1       2.157   5.581  21.167  0.00  0.00    +0.000 OA
ATOM      6  C   UNL     1       1.987   6.371  20.064  0.00  0.00    +0.000 A 
ATOM      7  N   UNL     1       2.171   5.710  18.939  0.00  0.00    +0.000 NA
BRANCH   6   8
ATOM      8  C   UNL     1       1.556   7.752  20.256  0.00  0.00    +0.000 A 
ATOM      9  C   UNL     1       1.048   8.097  21.528  0.00  0.00    +0.000 A 
ATOM     10  C   UNL     1       0.654   9.403  21.825  0.00  0.00    +0.000 A 
ATOM     11  C   UNL     1       0.751  10.389  20.850  0.00  0.00    +0.000 A 
ATOM     12 CL   UNL     1       0.289  12.004  21.214  0.00  0.00    +0.000 Cl
ATOM     13  C   UNL     1       1.214  10.071  19.576  0.00  0.00    +0.000 A 
ATOM     14  C   UNL     1       1.609   8.759  19.276  0.00  0.00    +0.000 A 
ATOM     15 CL   UNL     1       2.096   8.477  17.637  0.00  0.00    +0.000 Cl
ENDBRANCH   6   8
ENDBRANCH   2   3
BRANCH   2  16
ATOM     16  C   UNL     1       4.411   2.976  18.560  0.00  0.00    +0.000 C 
BRANCH  16  17
ATOM     17  C   UNL     1       5.448   4.092  18.261  0.00  0.00    +0.000 C 
ATOM     18  O   UNL     1       6.058   4.605  19.210  0.00  0.00    +0.000 OA
ATOM     19  N   UNL     1       5.803   4.360  16.971  0.00  0.00    +0.000 N 
ATOM     20  C   UNL     1       5.166   3.927  15.743  0.00  0.00    +0.000 C 
ATOM     21  C   UNL     1       6.270   4.019  14.707  0.00  0.00    +0.000 C 
ATOM     22  C   UNL     1       7.104   5.200  15.186  0.00  0.00    +0.000 C 
ATOM     23  C   UNL     1       7.003   5.134  16.700  0.00  0.00    +0.000 C 
ENDBRANCH  16  17
BRANCH  16  24
ATOM     24  N   UNL     1       4.799   2.406  19.893  0.00  0.00    +0.000 NA
ATOM     25  H   UNL     1       3.945   2.426  20.476  0.00  0.00    +0.000 HD
ATOM     26  H   UNL     1       5.350   3.160  20.353  0.00  0.00    +0.000 HD
ENDBRANCH  16  24
ENDBRANCH   2  16
TORSDOF 5
ENDMDL
MODEL 2
REMARK VINA RESULT:      -7.6      1.219      1.687
REMARK  Name = 
REMARK  6 active torsions:
REMARK  status: ('A' for Active; 'I' for Inactive)
REMARK    1  A    between atoms: C_1  and  C_2
REMARK    2  A    between atoms: C_2  and  C_3
REMARK    3  A    between atoms: C_2  and  C_16
REMARK    4  A    between atoms: C_6  and  C_7
REMARK    5  A    between atoms: C_16  and  N_17
REMARK    6  A    between atoms: C_16  and  C_18
REMARK                            x       y       z     vdW  Elec       q    Type
REMARK                         _______ _______ _______ _____ _____    ______ ____
ROOT
ATOM      1  C   UNL     1       1.993   2.144  19.291  0.00  0.00    +0.000 C 
ATOM      2  C   UNL     1       2.863   3.252  18.670  0.00  0.00    +0.000 C 
ENDROOT
BRANCH   2   3
ATOM      3  C   UNL     1       2.572   4.574  19.292  0.00  0.00    +0.000 A 
ATOM      4  N   UNL     1       2.544   4.753  20.616  0.00  0.00    +0.000 NA
ATOM      5  O   UNL     1       2.264   6.115  20.745  0.00  0.00    +0.000 OA
ATOM      6  C   UNL     1       2.175   6.625  19.479  0.00  0.00    +0.000 A 
ATOM      7  N   UNL     1       2.315   5.700  18.552  0.00  0.00    +0.000 NA
BRANCH   6   8
ATOM      8  C   UNL     1       1.861   8.042  19.321  0.00  0.00    +0.000 A 
ATOM      9  C   UNL     1       2.281   8.666  18.126  0.00  0.00    +0.000 A 
ATOM     10  C   UNL     1       1.988  10.005  17.861  0.00  0.00    +0.000 A 
ATOM     11  C   UNL     1       1.274  10.749  18.793  0.00  0.00    +0.000 A 
ATOM     12 CL   UNL     1       0.888  12.391  18.464  0.00  0.00    +0.000 Cl
ATOM     13  C   UNL     1       0.878  10.171  19.995  0.00  0.00    +0.000 A 
ATOM     14  C   UNL     1       1.174   8.827  20.264  0.00  0.00    +0.000 A 
ATOM     15 CL   UNL     1       0.691   8.248  21.824  0.00  0.00    +0.000 Cl
ENDBRANCH   6   8
ENDBRANCH   2   3
BRANCH   2  16
ATOM     16  C   UNL     1       4.364   2.883  18.726  0.00  0.00    +0.000 C 
BRANCH  16  17
ATOM     17  C   UNL     1       5.379   4.025  18.452  0.00  0.00    +0.000 C 
ATOM     18  O   UNL     1       5.994   4.515  19.410  0.00  0.00    +0.000 OA
ATOM     19  N   UNL     1       5.712   4.344  17.167  0.00  0.00    +0.000 N 
ATOM     20  C   UNL     1       5.065   3.943  15.934  0.00  0.00    +0.000 C 
ATOM     21  C   UNL     1       6.152   4.089  14.887  0.00  0.00    +0.000 C 
ATOM     22  C   UNL     1       6.975   5.267  15.396  0.00  0.00    +0.000 C 
ATOM     23  C   UNL     1       6.896   5.146  16.908  0.00  0.00    +0.000 C 
ENDBRANCH  16  17
BRANCH  16  24
ATOM     24  N   UNL     1       4.789   2.262  20.024  0.00  0.00    +0.000 NA
ATOM     25  H   UNL     1       4.273   1.370  20.103  0.00  0.00    +0.000 HD
ATOM     26  H   UNL     1       4.303   2.819  20.756  0.00  0.00    +0.000 HD
ENDBRANCH  16  24
ENDBRANCH   2  16
TORSDOF 5
ENDMDL
MODEL 3
REMARK VINA RESULT:      -7.5      3.754      8.097
REMARK  Name = 
REMARK  6 active torsions:
REMARK  status: ('A' for Active; 'I' for Inactive)
REMARK    1  A    between atoms: C_1  and  C_2
REMARK    2  A    between atoms: C_2  and  C_3
REMARK    3  A    between atoms: C_2  and  C_16
REMARK    4  A    between atoms: C_6  and  C_7
REMARK    5  A    between atoms: C_16  and  N_17
REMARK    6  A    between atoms: C_16  and  C_18
REMARK                            x       y       z     vdW  Elec       q    Type
REMARK                         _______ _______ _______ _____ _____    ______ ____
ROOT
ATOM      1  C   UNL     1      -0.071   8.928  21.283  0.00  0.00    +0.000 C 
ATOM      2  C   UNL     1       0.997   9.252  20.222  0.00  0.00    +0.000 C 
ENDROOT
BRANCH   2   3
ATOM      3  C   UNL     1       1.755   8.030  19.834  0.00  0.00    +0.000 A 
ATOM      4  N   UNL     1       1.857   6.965  20.635  0.00  0.00    +0.000 NA
ATOM      5  O   UNL     1       2.616   6.071  19.876  0.00  0.00    +0.000 OA
ATOM      6  C   UNL     1       2.874   6.682  18.680  0.00  0.00    +0.000 A 
ATOM      7  N   UNL     1       2.399   7.910  18.629  0.00  0.00    +0.000 NA
BRANCH   6   8
ATOM      8  C   UNL     1       3.683   5.970  17.695  0.00  0.00    +0.000 A 
ATOM      9  C   UNL     1       4.599   6.734  16.940  0.00  0.00    +0.000 A 
ATOM     10  C   UNL     1       5.450   6.137  16.007  0.00  0.00    +0.000 A 
ATOM     11  C   UNL     1       5.392   4.764  15.805  0.00  0.00    +0.000 A 
ATOM     12 CL   UNL     1       6.451   4.019  14.675  0.00  0.00    +0.000 Cl
ATOM     13  C   UNL     1       4.474   3.990  16.509  0.00  0.00    +0.000 A 
ATOM     14  C   UNL     1       3.618   4.587  17.445  0.00  0.00    +0.000 A 
ATOM     15 CL   UNL     1       2.473   3.529  18.200  0.00  0.00    +0.000 Cl
ENDBRANCH   6   8
ENDBRANCH   2   3
BRANCH   2  16
ATOM     16  C   UNL     1       0.376   9.981  19.008  0.00  0.00    +0.000 C 
BRANCH  16  17
ATOM     17  C   UNL     1      -0.783  10.972  19.300  0.00  0.00    +0.000 C 
ATOM     18  O   UNL     1      -0.557  11.954  20.021  0.00  0.00    +0.000 OA
ATOM     19  N   UNL     1      -1.963  10.854  18.625  0.00  0.00    +0.000 N 
ATOM     20  C   UNL     1      -2.438   9.754  17.810  0.00  0.00    +0.000 C 
ATOM     21  C   UNL     1      -3.465  10.393  16.895  0.00  0.00    +0.000 C 
ATOM     22  C   UNL     1      -4.065  11.497  17.758  0.00  0.00    +0.000 C 
ATOM     23  C   UNL     1      -2.907  11.959  18.625  0.00  0.00    +0.000 C 
ENDBRANCH  16  17
BRANCH  16  24
ATOM     24  N   UNL     1       1.370  10.748  18.185  0.00  0.00    +0.000 NA
ATOM     25  H   UNL     1       2.029  10.050  17.802  0.00  0.00    +0.000 HD
ATOM     26  H   UNL     1       1.985  11.216  18.881  0.00  0.00    +0.000 HD
ENDBRANCH  16  24
ENDBRANCH   2  16
TORSDOF 5
ENDMDL
MODEL 4
REMARK VINA RESULT:      -7.3      2.199      3.040
REMARK  Name = 
REMARK  6 active torsions:
REMARK  status: ('A' for Active; 'I' for Inactive)
REMARK    1  A    between atoms: C_1  and  C_2
REMARK    2  A    between atoms: C_2  and  C_3
REMARK    3  A    between atoms: C_2  and  C_16
REMARK    4  A    between atoms: C_6  and  C_7
REMARK    5  A    between atoms: C_16  and  N_17
REMARK    6  A    between atoms: C_16  and  C_18
REMARK                            x       y       z     vdW  Elec       q    Type
REMARK                         _______ _______ _______ _____ _____    ______ ____
ROOT
ATOM      1  C   UNL     1       3.834   3.168  17.419  0.00  0.00    +0.000 C 
ATOM      2  C   UNL     1       4.525   4.264  16.587  0.00  0.00    +0.000 C 
ENDROOT
BRANCH   2   3
ATOM      3  C   UNL     1       4.206   5.620  17.117  0.00  0.00    +0.000 A 
ATOM      4  N   UNL     1       5.040   6.656  16.982  0.00  0.00    +0.000 NA
ATOM      5  O   UNL     1       4.342   7.702  17.590  0.00  0.00    +0.000 OA
ATOM      6  C   UNL     1       3.144   7.193  18.008  0.00  0.00    +0.000 A 
ATOM      7  N   UNL     1       3.037   5.901  17.775  0.00  0.00    +0.000 NA
BRANCH   6   8
ATOM      8  C   UNL     1       2.218   8.079  18.707  0.00  0.00    +0.000 A 
ATOM      9  C   UNL     1       1.886   9.296  18.073  0.00  0.00    +0.000 A 
ATOM     10  C   UNL     1       0.974  10.188  18.639  0.00  0.00    +0.000 A 
ATOM     11  C   UNL     1       0.381   9.882  19.858  0.00  0.00    +0.000 A 
ATOM     12 CL   UNL     1      -0.761  10.964  20.552  0.00  0.00    +0.000 Cl
ATOM     13  C   UNL     1       0.714   8.706  20.525  0.00  0.00    +0.000 A 
ATOM     14  C   UNL     1       1.632   7.811  19.958  0.00  0.00    +0.000 A 
ATOM     15 CL   UNL     1       2.019   6.421  20.919  0.00  0.00    +0.000 Cl
ENDBRANCH   6   8
ENDBRANCH   2   3
BRANCH   2  16
ATOM     16  C   UNL     1       6.045   4.008  16.476  0.00  0.00    +0.000 C 
BRANCH  16  17
ATOM     17  C   UNL     1       6.823   4.839  15.420  0.00  0.00    +0.000 C 
ATOM     18  O   UNL     1       7.670   5.655  15.813  0.00  0.00    +0.000 OA
ATOM     19  N   UNL     1       6.700   4.538  14.094  0.00  0.00    +0.000 N 
ATOM     20  C   UNL     1       5.728   3.684  13.443  0.00  0.00    +0.000 C 
ATOM     21  C   UNL     1       6.408   3.278  12.149  0.00  0.00    +0.000 C 
ATOM     22  C   UNL     1       7.251   4.498  11.797  0.00  0.00    +0.000 C 
ATOM     23  C   UNL     1       7.669   5.059  13.145  0.00  0.00    +0.000 C 
ENDBRANCH  16  17
BRANCH  16  24
ATOM     24  N   UNL     1       6.789   4.192  17.767  0.00  0.00    +0.000 NA
ATOM     25  H   UNL     1       6.084   4.124  18.520  0.00  0.00    +0.000 HD
ATOM     26  H   UNL     1       7.001   5.210  17.808  0.00  0.00    +0.000 HD
ENDBRANCH  16  24
ENDBRANCH   2  16
TORSDOF 5
ENDMDL
MODEL 5
REMARK VINA RESULT:      -7.3      5.507      7.046
REMARK  Name = 
REMARK  6 active torsions:
REMARK  status: ('A' for Active; 'I' for Inactive)
REMARK    1  A    between atoms: C_1  and  C_2
REMARK    2  A    between atoms: C_2  and  C_3
REMARK    3  A    between atoms: C_2  and  C_16
REMARK    4  A    between atoms: C_6  and  C_7
REMARK    5  A    between atoms: C_16  and  N_17
REMARK    6  A    between atoms: C_16  and  C_18
REMARK                            x       y       z     vdW  Elec       q    Type
REMARK                         _______ _______ _______ _____ _____    ______ ____
ROOT
ATOM      1  C   UNL     1       7.127   5.694  16.660  0.00  0.00    +0.000 C 
ATOM      2  C   UNL     1       7.651   6.280  17.984  0.00  0.00    +0.000 C 
ENDROOT
BRANCH   2   3
ATOM      3  C   UNL     1       7.812   7.758  17.889  0.00  0.00    +0.000 A 
ATOM      4  N   UNL     1       7.053   8.512  17.087  0.00  0.00    +0.000 NA
ATOM      5  O   UNL     1       7.523   9.804  17.332  0.00  0.00    +0.000 OA
ATOM      6  C   UNL     1       8.503   9.700  18.279  0.00  0.00    +0.000 A 
ATOM      7  N   UNL     1       8.744   8.450  18.619  0.00  0.00    +0.000 NA
BRANCH   6   8
ATOM      8  C   UNL     1       9.190  10.915  18.707  0.00  0.00    +0.000 A 
ATOM      9  C   UNL     1      10.175  10.780  19.709  0.00  0.00    +0.000 A 
ATOM     10  C   UNL     1      10.919  11.875  20.152  0.00  0.00    +0.000 A 
ATOM     11  C   UNL     1      10.684  13.131  19.605  0.00  0.00    +0.000 A 
ATOM     12 CL   UNL     1      11.612  14.480  20.127  0.00  0.00    +0.000 Cl
ATOM     13  C   UNL     1       9.695  13.301  18.640  0.00  0.00    +0.000 A 
ATOM     14  C   UNL     1       8.945  12.203  18.197  0.00  0.00    +0.000 A 
ATOM     15 CL   UNL     1       7.696  12.558  17.050  0.00  0.00    +0.000 Cl
ENDBRANCH   6   8
ENDBRANCH   2   3
BRANCH   2  16
ATOM     16  C   UNL     1       6.766   5.850  19.176  0.00  0.00    +0.000 C 
BRANCH  16  17
ATOM     17  C   UNL     1       5.631   4.834  18.879  0.00  0.00    +0.000 C 
ATOM     18  O   UNL     1       5.811   3.642  19.167  0.00  0.00    +0.000 OA
ATOM     19  N   UNL     1       4.404   5.282  18.482  0.00  0.00    +0.000 N 
ATOM     20  C   UNL     1       4.022   6.605  18.031  0.00  0.00    +0.000 C 
ATOM     21  C   UNL     1       2.530   6.664  18.291  0.00  0.00    +0.000 C 
ATOM     22  C   UNL     1       2.078   5.225  18.072  0.00  0.00    +0.000 C 
ATOM     23  C   UNL     1       3.258   4.392  18.542  0.00  0.00    +0.000 C 
ENDBRANCH  16  17
BRANCH  16  24
ATOM     24  N   UNL     1       7.535   5.275  20.330  0.00  0.00    +0.000 NA
ATOM     25  H   UNL     1       7.734   6.064  20.968  0.00  0.00    +0.000 HD
ATOM     26  H   UNL     1       8.489   5.102  19.952  0.00  0.00    +0.000 HD
ENDBRANCH  16  24
ENDBRANCH   2  16
TORSDOF 5
ENDMDL
MODEL 6
REMARK VINA RESULT:      -7.2      3.893      8.793
REMARK  Name = 
REMARK  6 active torsions:
REMARK  status: ('A' for Active; 'I' for Inactive)
REMARK    1  A    between atoms: C_1  and  C_2
REMARK    2  A    between atoms: C_2  and  C_3
REMARK    3  A    between atoms: C_2  and  C_16
REMARK    4  A    between atoms: C_6  and  C_7
REMARK    5  A    between atoms: C_16  and  N_17
REMARK    6  A    between atoms: C_16  and  C_18
REMARK                            x       y       z     vdW  Elec       q    Type
REMARK                         _______ _______ _______ _____ _____    ______ ____
ROOT
ATOM      1  C   UNL     1      -0.315   8.192  21.646  0.00  0.00    +0.000 C 
ATOM      2  C   UNL     1       0.803   9.151  21.199  0.00  0.00    +0.000 C 
ENDROOT
BRANCH   2   3
ATOM      3  C   UNL     1       1.434   8.687  19.931  0.00  0.00    +0.000 A 
ATOM      4  N   UNL     1       1.363   9.389  18.796  0.00  0.00    +0.000 NA
ATOM      5  O   UNL     1       2.094   8.609  17.897  0.00  0.00    +0.000 OA
ATOM      6  C   UNL     1       2.554   7.525  18.592  0.00  0.00    +0.000 A 
ATOM      7  N   UNL     1       2.132   7.510  19.840  0.00  0.00    +0.000 NA
BRANCH   6   8
ATOM      8  C   UNL     1       3.337   6.521  17.877  0.00  0.00    +0.000 A 
ATOM      9  C   UNL     1       4.485   6.970  17.189  0.00  0.00    +0.000 A 
ATOM     10  C   UNL     1       5.325   6.081  16.515  0.00  0.00    +0.000 A 
ATOM     11  C   UNL     1       5.026   4.725  16.509  0.00  0.00    +0.000 A 
ATOM     12 CL   UNL     1       6.066   3.620  15.702  0.00  0.00    +0.000 Cl
ATOM     13  C   UNL     1       3.881   4.257  17.149  0.00  0.00    +0.000 A 
ATOM     14  C   UNL     1       3.036   5.148  17.824  0.00  0.00    +0.000 A 
ATOM     15 CL   UNL     1       1.607   4.453  18.515  0.00  0.00    +0.000 Cl
ENDBRANCH   6   8
ENDBRANCH   2   3
BRANCH   2  16
ATOM     16  C   UNL     1       0.290  10.607  21.113  0.00  0.00    +0.000 C 
BRANCH  16  17
ATOM     17  C   UNL     1      -0.700  11.070  22.214  0.00  0.00    +0.000 C 
ATOM     18  O   UNL     1      -0.442  10.801  23.397  0.00  0.00    +0.000 OA
ATOM     19  N   UNL     1      -1.728  11.910  21.894  0.00  0.00    +0.000 N 
ATOM     20  C   UNL     1      -2.229  12.275  20.585  0.00  0.00    +0.000 C 
ATOM     21  C   UNL     1      -2.922  13.603  20.816  0.00  0.00    +0.000 C 
ATOM     22  C   UNL     1      -3.465  13.475  22.234  0.00  0.00    +0.000 C 
ATOM     23  C   UNL     1      -2.433  12.619  22.949  0.00  0.00    +0.000 C 
ENDBRANCH  16  17
BRANCH  16  24
ATOM     24  N   UNL     1       1.382  11.637  21.089  0.00  0.00    +0.000 NA
ATOM     25  H   UNL     1       1.606  11.799  20.092  0.00  0.00    +0.000 HD
ATOM     26  H   UNL     1       2.237  11.123  21.385  0.00  0.00    +0.000 HD
ENDBRANCH  16  24
ENDBRANCH   2  16
TORSDOF 5
ENDMDL
MODEL 7
REMARK VINA RESULT:      -7.2      1.871      2.515
REMARK  Name = 
REMARK  6 active torsions:
REMARK  status: ('A' for Active; 'I' for Inactive)
REMARK    1  A    between atoms: C_1  and  C_2
REMARK    2  A    between atoms: C_2  and  C_3
REMARK    3  A    between atoms: C_2  and  C_16
REMARK    4  A    between atoms: C_6  and  C_7
REMARK    5  A    between atoms: C_16  and  N_17
REMARK    6  A    between atoms: C_16  and  C_18
REMARK                            x       y       z     vdW  Elec       q    Type
REMARK                         _______ _______ _______ _____ _____    ______ ____
ROOT
ATOM      1  C   UNL     1       3.005   2.789  18.535  0.00  0.00    +0.000 C 
ATOM      2  C   UNL     1       3.183   4.108  17.761  0.00  0.00    +0.000 C 
ENDROOT
BRANCH   2   3
ATOM      3  C   UNL     1       2.693   5.267  18.559  0.00  0.00    +0.000 A 
ATOM      4  N   UNL     1       2.406   5.171  19.861  0.00  0.00    +0.000 NA
ATOM      5  O   UNL     1       2.015   6.471  20.194  0.00  0.00    +0.000 OA
ATOM      6  C   UNL     1       2.131   7.225  19.059  0.00  0.00    +0.000 A 
ATOM      7  N   UNL     1       2.503   6.512  18.016  0.00  0.00    +0.000 NA
BRANCH   6   8
ATOM      8  C   UNL     1       1.757   8.635  19.120  0.00  0.00    +0.000 A 
ATOM      9  C   UNL     1       2.211   9.468  18.075  0.00  0.00    +0.000 A 
ATOM     10  C   UNL     1       1.868  10.820  18.019  0.00  0.00    +0.000 A 
ATOM     11  C   UNL     1       1.069  11.367  19.016  0.00  0.00    +0.000 A 
ATOM     12 CL   UNL     1       0.622  13.025  18.942  0.00  0.00    +0.000 Cl
ATOM     13  C   UNL     1       0.635  10.579  20.078  0.00  0.00    +0.000 A 
ATOM     14  C   UNL     1       0.981   9.222  20.136  0.00  0.00    +0.000 A 
ATOM     15 CL   UNL     1       0.442   8.368  21.544  0.00  0.00    +0.000 Cl
ENDBRANCH   6   8
ENDBRANCH   2   3
BRANCH   2  16
ATOM     16  C   UNL     1       4.644   4.286  17.286  0.00  0.00    +0.000 C 
BRANCH  16  17
ATOM     17  C   UNL     1       5.683   4.717  18.355  0.00  0.00    +0.000 C 
ATOM     18  O   UNL     1       5.952   3.930  19.274  0.00  0.00    +0.000 OA
ATOM     19  N   UNL     1       6.410   5.858  18.174  0.00  0.00    +0.000 N 
ATOM     20  C   UNL     1       6.200   6.928  17.220  0.00  0.00    +0.000 C 
ATOM     21  C   UNL     1       7.565   7.574  17.088  0.00  0.00    +0.000 C 
ATOM     22  C   UNL     1       8.169   7.407  18.477  0.00  0.00    +0.000 C 
ATOM     23  C   UNL     1       7.607   6.083  18.967  0.00  0.00    +0.000 C 
ENDBRANCH  16  17
BRANCH  16  24
ATOM     24  N   UNL     1       5.221   3.068  16.626  0.00  0.00    +0.000 NA
ATOM     25  H   UNL     1       5.465   2.413  17.387  0.00  0.00    +0.000 HD
ATOM     26  H   UNL     1       6.174   3.357  16.323  0.00  0.00    +0.000 HD
ENDBRANCH  16  24
ENDBRANCH   2  16
TORSDOF 5
ENDMDL
MODEL 8
REMARK VINA RESULT:      -7.1      2.821      4.681
REMARK  Name = 
REMARK  6 active torsions:
REMARK  status: ('A' for Active; 'I' for Inactive)
REMARK    1  A    between atoms: C_1  and  C_2
REMARK    2  A    between atoms: C_2  and  C_3
REMARK    3  A    between atoms: C_2  and  C_16
REMARK    4  A    between atoms: C_6  and  C_7
REMARK    5  A    between atoms: C_16  and  N_17
REMARK    6  A    between atoms: C_16  and  C_18
REMARK                            x       y       z     vdW  Elec       q    Type
REMARK                         _______ _______ _______ _____ _____    ______ ____
ROOT
ATOM      1  C   UNL     1       3.032   7.797  17.362  0.00  0.00    +0.000 C 
ATOM      2  C   UNL     1       2.649   7.881  18.851  0.00  0.00    +0.000 C 
ENDROOT
BRANCH   2   3
ATOM      3  C   UNL     1       1.555   8.869  19.068  0.00  0.00    +0.000 A 
ATOM      4  N   UNL     1       0.886   9.432  18.057  0.00  0.00    +0.000 NA
ATOM      5  O   UNL     1      -0.038  10.252  18.708  0.00  0.00    +0.000 OA
ATOM      6  C   UNL     1       0.153  10.081  20.051  0.00  0.00    +0.000 A 
ATOM      7  N   UNL     1       1.157   9.269  20.318  0.00  0.00    +0.000 NA
BRANCH   6   8
ATOM      8  C   UNL     1      -0.675  10.849  20.976  0.00  0.00    +0.000 A 
ATOM      9  C   UNL     1      -1.445  11.899  20.430  0.00  0.00    +0.000 A 
ATOM     10  C   UNL     1      -2.303  12.662  21.225  0.00  0.00    +0.000 A 
ATOM     11  C   UNL     1      -2.401  12.393  22.585  0.00  0.00    +0.000 A 
ATOM     12 CL   UNL     1      -3.473  13.312  23.566  0.00  0.00    +0.000 Cl
ATOM     13  C   UNL     1      -1.627  11.387  23.157  0.00  0.00    +0.000 A 
ATOM     14  C   UNL     1      -0.763  10.622  22.361  0.00  0.00    +0.000 A 
ATOM     15 CL   UNL     1       0.198   9.453  23.204  0.00  0.00    +0.000 Cl
ENDBRANCH   6   8
ENDBRANCH   2   3
BRANCH   2  16
ATOM     16  C   UNL     1       2.314   6.484  19.423  0.00  0.00    +0.000 C 
BRANCH  16  17
ATOM     17  C   UNL     1       3.359   5.361  19.192  0.00  0.00    +0.000 C 
ATOM     18  O   UNL     1       4.520   5.538  19.589  0.00  0.00    +0.000 OA
ATOM     19  N   UNL     1       2.955   4.141  18.729  0.00  0.00    +0.000 N 
ATOM     20  C   UNL     1       1.680   3.765  18.153  0.00  0.00    +0.000 C 
ATOM     21  C   UNL     1       1.607   2.267  18.373  0.00  0.00    +0.000 C 
ATOM     22  C   UNL     1       3.063   1.825  18.273  0.00  0.00    +0.000 C 
ATOM     23  C   UNL     1       3.844   2.997  18.842  0.00  0.00    +0.000 C 
ENDBRANCH  16  17
BRANCH  16  24
ATOM     24  N   UNL     1       2.033   6.481  20.897  0.00  0.00    +0.000 NA
ATOM     25  H   UNL     1       2.941   6.320  21.365  0.00  0.00    +0.000 HD
ATOM     26  H   UNL     1       1.570   5.567  21.077  0.00  0.00    +0.000 HD
ENDBRANCH  16  24
ENDBRANCH   2  16
TORSDOF 5
ENDMDL
MODEL 9
REMARK VINA RESULT:      -7.1      2.085      4.170
REMARK  Name = 
REMARK  6 active torsions:
REMARK  status: ('A' for Active; 'I' for Inactive)
REMARK    1  A    between atoms: C_1  and  C_2
REMARK    2  A    between atoms: C_2  and  C_3
REMARK    3  A    between atoms: C_2  and  C_16
REMARK    4  A    between atoms: C_6  and  C_7
REMARK    5  A    between atoms: C_16  and  N_17
REMARK    6  A    between atoms: C_16  and  C_18
REMARK                            x       y       z     vdW  Elec       q    Type
REMARK                         _______ _______ _______ _____ _____    ______ ____
ROOT
ATOM      1  C   UNL     1       5.528   3.796  15.659  0.00  0.00    +0.000 C 
ATOM      2  C   UNL     1       5.060   4.087  17.097  0.00  0.00    +0.000 C 
ENDROOT
BRANCH   2   3
ATOM      3  C   UNL     1       4.501   5.464  17.211  0.00  0.00    +0.000 A 
ATOM      4  N   UNL     1       4.871   6.457  16.396  0.00  0.00    +0.000 NA
ATOM      5  O   UNL     1       4.097   7.532  16.839  0.00  0.00    +0.000 OA
ATOM      6  C   UNL     1       3.319   7.068  17.863  0.00  0.00    +0.000 A 
ATOM      7  N   UNL     1       3.568   5.808  18.155  0.00  0.00    +0.000 NA
BRANCH   6   8
ATOM      8  C   UNL     1       2.420   8.004  18.533  0.00  0.00    +0.000 A 
ATOM      9  C   UNL     1       2.145   9.220  17.870  0.00  0.00    +0.000 A 
ATOM     10  C   UNL     1       1.262  10.159  18.407  0.00  0.00    +0.000 A 
ATOM     11  C   UNL     1       0.644   9.902  19.624  0.00  0.00    +0.000 A 
ATOM     12 CL   UNL     1      -0.463  11.042  20.281  0.00  0.00    +0.000 Cl
ATOM     13  C   UNL     1       0.922   8.727  20.318  0.00  0.00    +0.000 A 
ATOM     14  C   UNL     1       1.810   7.785  19.781  0.00  0.00    +0.000 A 
ATOM     15 CL   UNL     1       2.130   6.402  20.774  0.00  0.00    +0.000 Cl
ENDBRANCH   6   8
ENDBRANCH   2   3
BRANCH   2  16
ATOM     16  C   UNL     1       4.080   3.001  17.598  0.00  0.00    +0.000 C 
BRANCH  16  17
ATOM     17  C   UNL     1       4.043   2.738  19.127  0.00  0.00    +0.000 C 
ATOM     18  O   UNL     1       5.110   2.753  19.758  0.00  0.00    +0.000 OA
ATOM     19  N   UNL     1       2.844   2.678  19.777  0.00  0.00    +0.000 N 
ATOM     20  C   UNL     1       1.512   2.570  19.218  0.00  0.00    +0.000 C 
ATOM     21  C   UNL     1       0.613   3.118  20.309  0.00  0.00    +0.000 C 
ATOM     22  C   UNL     1       1.332   2.718  21.592  0.00  0.00    +0.000 C 
ATOM     23  C   UNL     1       2.804   2.785  21.225  0.00  0.00    +0.000 C 
ENDBRANCH  16  17
BRANCH  16  24
ATOM     24  N   UNL     1       2.654   3.235  17.190  0.00  0.00    +0.000 NA
ATOM     25  H   UNL     1       2.236   3.829  17.926  0.00  0.00    +0.000 HD
ATOM     26  H   UNL     1       2.171   2.335  17.387  0.00  0.00    +0.000 HD
ENDBRANCH  16  24
ENDBRANCH   2  16
TORSDOF 5
ENDMDL
