MODEL 1
REMARK VINA RESULT:      -8.4      0.000      0.000
REMARK  Name = 
REMARK  4 active torsions:
REMARK  status: ('A' for Active; 'I' for Inactive)
REMARK    1  A    between atoms: C_2  and  C_5
REMARK    2  A    between atoms: C_9  and  C_10
REMARK    3  A    between atoms: C_10  and  N_11
REMARK    4  A    between atoms: N_11  and  C_12
REMARK                            x       y       z     vdW  Elec       q    Type
REMARK                         _______ _______ _______ _____ _____    ______ ____
ROOT
ATOM      1  N   UNL     1       4.470   2.970  17.465  0.00  0.00    +0.000 N 
ATOM      2  H   UNL     1       4.706   1.987  17.283  0.00  0.00    +0.000 HD
ENDROOT
BRANCH   1   3
ATOM      3  C   UNL     1       5.425   3.820  16.890  0.00  0.00    +0.000 A 
ATOM      4  C   UNL     1       5.674   3.905  15.570  0.00  0.00    +0.000 A 
ATOM      5  C   UNL     1       6.744   4.846  15.133  0.00  0.00    +0.000 A 
ATOM      6 CL   UNL     1       7.107   4.964  13.447  0.00  0.00    +0.000 Cl
ATOM      7  N   UNL     1       7.454   5.598  15.918  0.00  0.00    +0.000 NA
ATOM      8  C   UNL     1       7.178   5.500  17.253  0.00  0.00    +0.000 A 
ATOM      9  C   UNL     1       7.731   6.133  18.343  0.00  0.00    +0.000 A 
ATOM     10  C   UNL     1       7.045   5.617  19.452  0.00  0.00    +0.000 A 
ATOM     11  N   UNL     1       6.125   4.710  19.119  0.00  0.00    +0.000 NA
ATOM     12  N   UNL     1       6.192   4.644  17.758  0.00  0.00    +0.000 N 
ENDBRANCH   1   3
BRANCH   1  13
ATOM     13  C   UNL     1       3.041   3.243  17.455  0.00  0.00    +0.000 C 
BRANCH  13  18
ATOM     14  C   UNL     1       2.230   6.701  18.890  0.00  0.00    +0.000 A 
ATOM     15  C   UNL     1       1.893   6.362  20.209  0.00  0.00    +0.000 A 
ATOM     16  C   UNL     1       1.952   5.035  20.635  0.00  0.00    +0.000 A 
ATOM     17  C   UNL     1       2.344   4.033  19.748  0.00  0.00    +0.000 A 
ATOM     18  C   UNL     1       2.682   4.342  18.423  0.00  0.00    +0.000 A 
ATOM     19  C   UNL     1       2.621   5.681  18.004  0.00  0.00    +0.000 A 
BRANCH  14  21
ATOM     20  F   UNL     1       1.243   8.345  17.440  0.00  0.00    +0.000 F 
ATOM     21  C   UNL     1       2.169   8.133  18.417  0.00  0.00    +0.000 C 
ATOM     22  F   UNL     1       3.355   8.562  17.901  0.00  0.00    +0.000 F 
ATOM     23  F   UNL     1       1.859   9.003  19.417  0.00  0.00    +0.000 F 
ENDBRANCH  14  21
ENDBRANCH  13  18
ENDBRANCH   1  13
TORSDOF 4
ENDMDL
MODEL 2
REMARK VINA RESULT:      -7.9      1.711      2.787
REMARK  Name = 
REMARK  4 active torsions:
REMARK  status: ('A' for Active; 'I' for Inactive)
REMARK    1  A    between atoms: C_2  and  C_5
REMARK    2  A    between atoms: C_9  and  C_10
REMARK    3  A    between atoms: C_10  and  N_11
REMARK    4  A    between atoms: N_11  and  C_12
REMARK                            x       y       z     vdW  Elec       q    Type
REMARK                         _______ _______ _______ _____ _____    ______ ____
ROOT
ATOM      1  N   UNL     1       5.827   3.567  18.890  0.00  0.00    +0.000 N 
ATOM      2  H   UNL     1       5.778   2.696  18.349  0.00  0.00    +0.000 HD
ENDROOT
BRANCH   1   3
ATOM      3  C   UNL     1       6.402   4.591  18.123  0.00  0.00    +0.000 A 
ATOM      4  C   UNL     1       6.997   5.684  18.634  0.00  0.00    +0.000 A 
ATOM      5  C   UNL     1       7.534   6.686  17.670  0.00  0.00    +0.000 A 
ATOM      6 CL   UNL     1       8.285   8.114  18.291  0.00  0.00    +0.000 Cl
ATOM      7  N   UNL     1       7.483   6.591  16.376  0.00  0.00    +0.000 NA
ATOM      8  C   UNL     1       6.880   5.469  15.881  0.00  0.00    +0.000 A 
ATOM      9  C   UNL     1       6.652   5.058  14.587  0.00  0.00    +0.000 A 
ATOM     10  C   UNL     1       5.984   3.830  14.708  0.00  0.00    +0.000 A 
ATOM     11  N   UNL     1       5.780   3.470  15.976  0.00  0.00    +0.000 NA
ATOM     12  N   UNL     1       6.346   4.473  16.708  0.00  0.00    +0.000 N 
ENDBRANCH   1   3
BRANCH   1  13
ATOM     13  C   UNL     1       4.696   3.770  19.782  0.00  0.00    +0.000 C 
BRANCH  13  18
ATOM     14  C   UNL     1       2.345   6.425  18.329  0.00  0.00    +0.000 A 
ATOM     15  C   UNL     1       1.442   5.614  17.626  0.00  0.00    +0.000 A 
ATOM     16  C   UNL     1       1.576   4.226  17.644  0.00  0.00    +0.000 A 
ATOM     17  C   UNL     1       2.616   3.633  18.359  0.00  0.00    +0.000 A 
ATOM     18  C   UNL     1       3.537   4.418  19.066  0.00  0.00    +0.000 A 
ATOM     19  C   UNL     1       3.393   5.815  19.044  0.00  0.00    +0.000 A 
BRANCH  14  21
ATOM     20  F   UNL     1       3.334   8.571  17.889  0.00  0.00    +0.000 F 
ATOM     21  C   UNL     1       2.212   7.928  18.317  0.00  0.00    +0.000 C 
ATOM     22  F   UNL     1       1.943   8.436  19.552  0.00  0.00    +0.000 F 
ATOM     23  F   UNL     1       1.205   8.359  17.508  0.00  0.00    +0.000 F 
ENDBRANCH  14  21
ENDBRANCH  13  18
ENDBRANCH   1  13
TORSDOF 4
ENDMDL
MODEL 3
REMARK VINA RESULT:      -7.9      2.784      3.407
REMARK  Name = 
REMARK  4 active torsions:
REMARK  status: ('A' for Active; 'I' for Inactive)
REMARK    1  A    between atoms: C_2  and  C_5
REMARK    2  A    between atoms: C_9  and  C_10
REMARK    3  A    between atoms: C_10  and  N_11
REMARK    4  A    between atoms: N_11  and  C_12
REMARK                            x       y       z     vdW  Elec       q    Type
REMARK                         _______ _______ _______ _____ _____    ______ ____
ROOT
ATOM      1  N   UNL     1       4.448   7.215  17.413  0.00  0.00    +0.000 N 
ATOM      2  H   UNL     1       4.800   7.536  18.323  0.00  0.00    +0.000 HD
ENDROOT
BRANCH   1   3
ATOM      3  C   UNL     1       5.320   6.272  16.852  0.00  0.00    +0.000 A 
ATOM      4  C   UNL     1       5.213   5.782  15.604  0.00  0.00    +0.000 A 
ATOM      5  C   UNL     1       6.216   4.764  15.178  0.00  0.00    +0.000 A 
ATOM      6 CL   UNL     1       6.095   4.095  13.589  0.00  0.00    +0.000 Cl
ATOM      7  N   UNL     1       7.190   4.313  15.909  0.00  0.00    +0.000 NA
ATOM      8  C   UNL     1       7.282   4.830  17.171  0.00  0.00    +0.000 A 
ATOM      9  C   UNL     1       8.170   4.578  18.191  0.00  0.00    +0.000 A 
ATOM     10  C   UNL     1       7.754   5.403  19.247  0.00  0.00    +0.000 A 
ATOM     11  N   UNL     1       6.676   6.129  18.949  0.00  0.00    +0.000 NA
ATOM     12  N   UNL     1       6.388   5.790  17.659  0.00  0.00    +0.000 N 
ENDBRANCH   1   3
BRANCH   1  13
ATOM     13  C   UNL     1       2.999   7.109  17.348  0.00  0.00    +0.000 C 
BRANCH  13  18
ATOM     14  C   UNL     1       1.760   3.893  19.023  0.00  0.00    +0.000 A 
ATOM     15  C   UNL     1       1.599   4.334  20.344  0.00  0.00    +0.000 A 
ATOM     16  C   UNL     1       1.863   5.661  20.684  0.00  0.00    +0.000 A 
ATOM     17  C   UNL     1       2.295   6.559  19.708  0.00  0.00    +0.000 A 
ATOM     18  C   UNL     1       2.469   6.145  18.382  0.00  0.00    +0.000 A 
ATOM     19  C   UNL     1       2.200   4.807  18.049  0.00  0.00    +0.000 A 
BRANCH  14  21
ATOM     20  F   UNL     1       0.154   2.193  18.464  0.00  0.00    +0.000 F 
ATOM     21  C   UNL     1       1.479   2.459  18.643  0.00  0.00    +0.000 C 
ATOM     22  F   UNL     1       1.909   1.577  19.587  0.00  0.00    +0.000 F 
ATOM     23  F   UNL     1       2.091   2.095  17.483  0.00  0.00    +0.000 F 
ENDBRANCH  14  21
ENDBRANCH  13  18
ENDBRANCH   1  13
TORSDOF 4
ENDMDL
MODEL 4
REMARK VINA RESULT:      -7.8      1.522      2.557
REMARK  Name = 
REMARK  4 active torsions:
REMARK  status: ('A' for Active; 'I' for Inactive)
REMARK    1  A    between atoms: C_2  and  C_5
REMARK    2  A    between atoms: C_9  and  C_10
REMARK    3  A    between atoms: C_10  and  N_11
REMARK    4  A    between atoms: N_11  and  C_12
REMARK                            x       y       z     vdW  Elec       q    Type
REMARK                         _______ _______ _______ _____ _____    ______ ____
ROOT
ATOM      1  N   UNL     1       4.878   3.223  17.821  0.00  0.00    +0.000 N 
ATOM      2  H   UNL     1       5.212   2.277  17.599  0.00  0.00    +0.000 HD
ENDROOT
BRANCH   1   3
ATOM      3  C   UNL     1       5.797   4.185  17.379  0.00  0.00    +0.000 A 
ATOM      4  C   UNL     1       6.408   5.079  18.177  0.00  0.00    +0.000 A 
ATOM      5  C   UNL     1       7.340   6.049  17.534  0.00  0.00    +0.000 A 
ATOM      6 CL   UNL     1       8.126   7.226  18.525  0.00  0.00    +0.000 Cl
ATOM      7  N   UNL     1       7.617   6.101  16.267  0.00  0.00    +0.000 NA
ATOM      8  C   UNL     1       6.989   5.179  15.476  0.00  0.00    +0.000 A 
ATOM      9  C   UNL     1       7.046   4.959  14.119  0.00  0.00    +0.000 A 
ATOM     10  C   UNL     1       6.176   3.882  13.889  0.00  0.00    +0.000 A 
ATOM     11  N   UNL     1       5.587   3.440  15.001  0.00  0.00    +0.000 NA
ATOM     12  N   UNL     1       6.098   4.229  15.990  0.00  0.00    +0.000 N 
ENDBRANCH   1   3
BRANCH   1  13
ATOM     13  C   UNL     1       3.436   3.377  17.711  0.00  0.00    +0.000 C 
BRANCH  13  18
ATOM     14  C   UNL     1       2.253   6.796  18.974  0.00  0.00    +0.000 A 
ATOM     15  C   UNL     1       1.864   6.468  20.281  0.00  0.00    +0.000 A 
ATOM     16  C   UNL     1       2.007   5.165  20.756  0.00  0.00    +0.000 A 
ATOM     17  C   UNL     1       2.535   4.174  19.930  0.00  0.00    +0.000 A 
ATOM     18  C   UNL     1       2.927   4.471  18.618  0.00  0.00    +0.000 A 
ATOM     19  C   UNL     1       2.781   5.786  18.148  0.00  0.00    +0.000 A 
BRANCH  14  21
ATOM     20  F   UNL     1       1.720   9.102  19.397  0.00  0.00    +0.000 F 
ATOM     21  C   UNL     1       2.102   8.202  18.448  0.00  0.00    +0.000 C 
ATOM     22  F   UNL     1       1.169   8.290  17.458  0.00  0.00    +0.000 F 
ATOM     23  F   UNL     1       3.257   8.690  17.918  0.00  0.00    +0.000 F 
ENDBRANCH  14  21
ENDBRANCH  13  18
ENDBRANCH   1  13
TORSDOF 4
ENDMDL
MODEL 5
REMARK VINA RESULT:      -7.8      3.206      4.282
REMARK  Name = 
REMARK  4 active torsions:
REMARK  status: ('A' for Active; 'I' for Inactive)
REMARK    1  A    between atoms: C_2  and  C_5
REMARK    2  A    between atoms: C_9  and  C_10
REMARK    3  A    between atoms: C_10  and  N_11
REMARK    4  A    between atoms: N_11  and  C_12
REMARK                            x       y       z     vdW  Elec       q    Type
REMARK                         _______ _______ _______ _____ _____    ______ ____
ROOT
ATOM      1  N   UNL     1       4.002   6.854  17.276  0.00  0.00    +0.000 N 
ATOM      2  H   UNL     1       4.138   7.764  16.820  0.00  0.00    +0.000 HD
ENDROOT
BRANCH   1   3
ATOM      3  C   UNL     1       5.219   6.164  17.371  0.00  0.00    +0.000 A 
ATOM      4  C   UNL     1       6.020   6.177  18.452  0.00  0.00    +0.000 A 
ATOM      5  C   UNL     1       7.293   5.405  18.372  0.00  0.00    +0.000 A 
ATOM      6 CL   UNL     1       8.358   5.418  19.732  0.00  0.00    +0.000 Cl
ATOM      7  N   UNL     1       7.692   4.713  17.348  0.00  0.00    +0.000 NA
ATOM      8  C   UNL     1       6.858   4.708  16.265  0.00  0.00    +0.000 A 
ATOM      9  C   UNL     1       6.969   4.098  15.037  0.00  0.00    +0.000 A 
ATOM     10  C   UNL     1       5.808   4.467  14.341  0.00  0.00    +0.000 A 
ATOM     11  N   UNL     1       5.006   5.263  15.049  0.00  0.00    +0.000 NA
ATOM     12  N   UNL     1       5.643   5.404  16.247  0.00  0.00    +0.000 N 
ENDBRANCH   1   3
BRANCH   1  13
ATOM     13  C   UNL     1       3.003   6.871  18.333  0.00  0.00    +0.000 C 
BRANCH  13  18
ATOM     14  C   UNL     1       2.049   3.673  20.215  0.00  0.00    +0.000 A 
ATOM     15  C   UNL     1       1.417   2.950  19.192  0.00  0.00    +0.000 A 
ATOM     16  C   UNL     1       1.324   3.478  17.905  0.00  0.00    +0.000 A 
ATOM     17  C   UNL     1       1.857   4.737  17.626  0.00  0.00    +0.000 A 
ATOM     18  C   UNL     1       2.489   5.484  18.630  0.00  0.00    +0.000 A 
ATOM     19  C   UNL     1       2.579   4.943  19.922  0.00  0.00    +0.000 A 
BRANCH  14  21
ATOM     20  F   UNL     1       1.016   2.497  22.040  0.00  0.00    +0.000 F 
ATOM     21  C   UNL     1       2.154   3.112  21.612  0.00  0.00    +0.000 C 
ATOM     22  F   UNL     1       2.427   4.072  22.539  0.00  0.00    +0.000 F 
ATOM     23  F   UNL     1       3.145   2.185  21.731  0.00  0.00    +0.000 F 
ENDBRANCH  14  21
ENDBRANCH  13  18
ENDBRANCH   1  13
TORSDOF 4
ENDMDL
MODEL 6
REMARK VINA RESULT:      -7.8      1.037      1.445
REMARK  Name = 
REMARK  4 active torsions:
REMARK  status: ('A' for Active; 'I' for Inactive)
REMARK    1  A    between atoms: C_2  and  C_5
REMARK    2  A    between atoms: C_9  and  C_10
REMARK    3  A    between atoms: C_10  and  N_11
REMARK    4  A    between atoms: N_11  and  C_12
REMARK                            x       y       z     vdW  Elec       q    Type
REMARK                         _______ _______ _______ _____ _____    ______ ____
ROOT
ATOM      1  N   UNL     1       4.643   2.774  17.295  0.00  0.00    +0.000 N 
ATOM      2  H   UNL     1       5.024   1.822  17.236  0.00  0.00    +0.000 HD
ENDROOT
BRANCH   1   3
ATOM      3  C   UNL     1       5.548   3.701  16.758  0.00  0.00    +0.000 A 
ATOM      4  C   UNL     1       5.829   3.821  15.448  0.00  0.00    +0.000 A 
ATOM      5  C   UNL     1       6.838   4.845  15.053  0.00  0.00    +0.000 A 
ATOM      6 CL   UNL     1       7.241   5.012  13.381  0.00  0.00    +0.000 Cl
ATOM      7  N   UNL     1       7.465   5.639  15.867  0.00  0.00    +0.000 NA
ATOM      8  C   UNL     1       7.157   5.503  17.193  0.00  0.00    +0.000 A 
ATOM      9  C   UNL     1       7.628   6.163  18.305  0.00  0.00    +0.000 A 
ATOM     10  C   UNL     1       6.949   5.582  19.387  0.00  0.00    +0.000 A 
ATOM     11  N   UNL     1       6.111   4.613  19.017  0.00  0.00    +0.000 NA
ATOM     12  N   UNL     1       6.224   4.569  17.658  0.00  0.00    +0.000 N 
ENDBRANCH   1   3
BRANCH   1  13
ATOM     13  C   UNL     1       3.205   2.844  17.090  0.00  0.00    +0.000 C 
BRANCH  13  18
ATOM     14  C   UNL     1       1.914   5.381  19.655  0.00  0.00    +0.000 A 
ATOM     15  C   UNL     1       1.099   4.559  20.445  0.00  0.00    +0.000 A 
ATOM     16  C   UNL     1       0.988   3.197  20.168  0.00  0.00    +0.000 A 
ATOM     17  C   UNL     1       1.687   2.642  19.096  0.00  0.00    +0.000 A 
ATOM     18  C   UNL     1       2.505   3.441  18.286  0.00  0.00    +0.000 A 
ATOM     19  C   UNL     1       2.611   4.812  18.574  0.00  0.00    +0.000 A 
BRANCH  14  21
ATOM     20  F   UNL     1       1.430   7.241  21.100  0.00  0.00    +0.000 F 
ATOM     21  C   UNL     1       2.042   6.857  19.944  0.00  0.00    +0.000 C 
ATOM     22  F   UNL     1       1.496   7.629  18.963  0.00  0.00    +0.000 F 
ATOM     23  F   UNL     1       3.338   7.259  20.059  0.00  0.00    +0.000 F 
ENDBRANCH  14  21
ENDBRANCH  13  18
ENDBRANCH   1  13
TORSDOF 4
ENDMDL
MODEL 7
REMARK VINA RESULT:      -7.7      2.867      3.617
REMARK  Name = 
REMARK  4 active torsions:
REMARK  status: ('A' for Active; 'I' for Inactive)
REMARK    1  A    between atoms: C_2  and  C_5
REMARK    2  A    between atoms: C_9  and  C_10
REMARK    3  A    between atoms: C_10  and  N_11
REMARK    4  A    between atoms: N_11  and  C_12
REMARK                            x       y       z     vdW  Elec       q    Type
REMARK                         _______ _______ _______ _____ _____    ______ ____
ROOT
ATOM      1  N   UNL     1       4.040   6.608  18.008  0.00  0.00    +0.000 N 
ATOM      2  H   UNL     1       4.293   6.845  18.975  0.00  0.00    +0.000 HD
ENDROOT
BRANCH   1   3
ATOM      3  C   UNL     1       5.098   5.947  17.369  0.00  0.00    +0.000 A 
ATOM      4  C   UNL     1       5.094   5.572  16.078  0.00  0.00    +0.000 A 
ATOM      5  C   UNL     1       6.298   4.854  15.567  0.00  0.00    +0.000 A 
ATOM      6 CL   UNL     1       6.318   4.337  13.919  0.00  0.00    +0.000 Cl
ATOM      7  N   UNL     1       7.355   4.566  16.263  0.00  0.00    +0.000 NA
ATOM      8  C   UNL     1       7.339   4.963  17.571  0.00  0.00    +0.000 A 
ATOM      9  C   UNL     1       8.269   4.818  18.575  0.00  0.00    +0.000 A 
ATOM     10  C   UNL     1       7.687   5.419  19.701  0.00  0.00    +0.000 A 
ATOM     11  N   UNL     1       6.469   5.907  19.460  0.00  0.00    +0.000 NA
ATOM     12  N   UNL     1       6.254   5.642  18.139  0.00  0.00    +0.000 N 
ENDBRANCH   1   3
BRANCH   1  13
ATOM     13  C   UNL     1       2.643   6.237  17.841  0.00  0.00    +0.000 C 
BRANCH  13  18
ATOM     14  C   UNL     1       2.126   3.249  20.183  0.00  0.00    +0.000 A 
ATOM     15  C   UNL     1       1.768   2.255  19.260  0.00  0.00    +0.000 A 
ATOM     16  C   UNL     1       1.720   2.542  17.896  0.00  0.00    +0.000 A 
ATOM     17  C   UNL     1       2.025   3.824  17.440  0.00  0.00    +0.000 A 
ATOM     18  C   UNL     1       2.380   4.837  18.340  0.00  0.00    +0.000 A 
ATOM     19  C   UNL     1       2.427   4.540  19.711  0.00  0.00    +0.000 A 
BRANCH  14  21
ATOM     20  F   UNL     1       1.049   2.363  22.141  0.00  0.00    +0.000 F 
ATOM     21  C   UNL     1       2.181   2.952  21.662  0.00  0.00    +0.000 C 
ATOM     22  F   UNL     1       2.360   4.075  22.412  0.00  0.00    +0.000 F 
ATOM     23  F   UNL     1       3.203   2.115  21.991  0.00  0.00    +0.000 F 
ENDBRANCH  14  21
ENDBRANCH  13  18
ENDBRANCH   1  13
TORSDOF 4
ENDMDL
MODEL 8
REMARK VINA RESULT:      -7.7      2.654      3.201
REMARK  Name = 
REMARK  4 active torsions:
REMARK  status: ('A' for Active; 'I' for Inactive)
REMARK    1  A    between atoms: C_2  and  C_5
REMARK    2  A    between atoms: C_9  and  C_10
REMARK    3  A    between atoms: C_10  and  N_11
REMARK    4  A    between atoms: N_11  and  C_12
REMARK                            x       y       z     vdW  Elec       q    Type
REMARK                         _______ _______ _______ _____ _____    ______ ____
ROOT
ATOM      1  N   UNL     1       4.672   2.874  16.784  0.00  0.00    +0.000 N 
ATOM      2  H   UNL     1       4.995   1.922  16.574  0.00  0.00    +0.000 HD
ENDROOT
BRANCH   1   3
ATOM      3  C   UNL     1       5.580   3.822  16.292  0.00  0.00    +0.000 A 
ATOM      4  C   UNL     1       5.949   3.928  15.003  0.00  0.00    +0.000 A 
ATOM      5  C   UNL     1       6.947   4.981  14.659  0.00  0.00    +0.000 A 
ATOM      6 CL   UNL     1       7.461   5.131  13.016  0.00  0.00    +0.000 Cl
ATOM      7  N   UNL     1       7.487   5.812  15.498  0.00  0.00    +0.000 NA
ATOM      8  C   UNL     1       7.091   5.690  16.801  0.00  0.00    +0.000 A 
ATOM      9  C   UNL     1       7.458   6.386  17.929  0.00  0.00    +0.000 A 
ATOM     10  C   UNL     1       6.725   5.802  18.973  0.00  0.00    +0.000 A 
ATOM     11  N   UNL     1       5.950   4.796  18.566  0.00  0.00    +0.000 NA
ATOM     12  N   UNL     1       6.160   4.731  17.219  0.00  0.00    +0.000 N 
ENDBRANCH   1   3
BRANCH   1  13
ATOM     13  C   UNL     1       3.228   3.032  16.713  0.00  0.00    +0.000 C 
BRANCH  13  18
ATOM     14  C   UNL     1       2.114   3.773  20.304  0.00  0.00    +0.000 A 
ATOM     15  C   UNL     1       1.805   5.137  20.203  0.00  0.00    +0.000 A 
ATOM     16  C   UNL     1       1.930   5.802  18.984  0.00  0.00    +0.000 A 
ATOM     17  C   UNL     1       2.370   5.113  17.853  0.00  0.00    +0.000 A 
ATOM     18  C   UNL     1       2.691   3.752  17.926  0.00  0.00    +0.000 A 
ATOM     19  C   UNL     1       2.560   3.090  19.158  0.00  0.00    +0.000 A 
BRANCH  14  21
ATOM     20  F   UNL     1       2.209   3.832  22.705  0.00  0.00    +0.000 F 
ATOM     21  C   UNL     1       1.983   3.042  21.618  0.00  0.00    +0.000 C 
ATOM     22  F   UNL     1       2.859   2.005  21.726  0.00  0.00    +0.000 F 
ATOM     23  F   UNL     1       0.744   2.506  21.799  0.00  0.00    +0.000 F 
ENDBRANCH  14  21
ENDBRANCH  13  18
ENDBRANCH   1  13
TORSDOF 4
ENDMDL
MODEL 9
REMARK VINA RESULT:      -7.7      4.052      6.755
REMARK  Name = 
REMARK  4 active torsions:
REMARK  status: ('A' for Active; 'I' for Inactive)
REMARK    1  A    between atoms: C_2  and  C_5
REMARK    2  A    between atoms: C_9  and  C_10
REMARK    3  A    between atoms: C_10  and  N_11
REMARK    4  A    between atoms: N_11  and  C_12
REMARK                            x       y       z     vdW  Elec       q    Type
REMARK                         _______ _______ _______ _____ _____    ______ ____
ROOT
ATOM      1  N   UNL     1       5.394   3.704  16.628  0.00  0.00    +0.000 N 
ATOM      2  H   UNL     1       5.557   2.796  17.079  0.00  0.00    +0.000 HD
ENDROOT
BRANCH   1   3
ATOM      3  C   UNL     1       4.323   4.371  17.239  0.00  0.00    +0.000 A 
ATOM      4  C   UNL     1       4.172   5.708  17.262  0.00  0.00    +0.000 A 
ATOM      5  C   UNL     1       2.983   6.252  17.979  0.00  0.00    +0.000 A 
ATOM      6 CL   UNL     1       2.769   7.965  18.049  0.00  0.00    +0.000 Cl
ATOM      7  N   UNL     1       2.075   5.544  18.579  0.00  0.00    +0.000 NA
ATOM      8  C   UNL     1       2.247   4.188  18.536  0.00  0.00    +0.000 A 
ATOM      9  C   UNL     1       1.495   3.162  19.061  0.00  0.00    +0.000 A 
ATOM     10  C   UNL     1       2.177   1.990  18.700  0.00  0.00    +0.000 A 
ATOM     11  N   UNL     1       3.290   2.227  18.005  0.00  0.00    +0.000 NA
ATOM     12  N   UNL     1       3.331   3.586  17.887  0.00  0.00    +0.000 N 
ENDBRANCH   1   3
BRANCH   1  13
ATOM     13  C   UNL     1       6.611   4.369  16.191  0.00  0.00    +0.000 C 
BRANCH  13  18
ATOM     14  C   UNL     1       5.826   3.813  12.481  0.00  0.00    +0.000 A 
ATOM     15  C   UNL     1       6.896   4.496  11.885  0.00  0.00    +0.000 A 
ATOM     16  C   UNL     1       7.872   5.106  12.672  0.00  0.00    +0.000 A 
ATOM     17  C   UNL     1       7.788   5.044  14.063  0.00  0.00    +0.000 A 
ATOM     18  C   UNL     1       6.728   4.373  14.686  0.00  0.00    +0.000 A 
ATOM     19  C   UNL     1       5.750   3.761  13.886  0.00  0.00    +0.000 A 
BRANCH  14  21
ATOM     20  F   UNL     1       4.446   3.847  10.513  0.00  0.00    +0.000 F 
ATOM     21  C   UNL     1       4.762   3.150  11.641  0.00  0.00    +0.000 C 
ATOM     22  F   UNL     1       3.591   2.988  12.317  0.00  0.00    +0.000 F 
ATOM     23  F   UNL     1       5.126   1.908  11.219  0.00  0.00    +0.000 F 
ENDBRANCH  14  21
ENDBRANCH  13  18
ENDBRANCH   1  13
TORSDOF 4
ENDMDL
