MODEL 1
REMARK VINA RESULT:      -5.6      0.000      0.000
REMARK  Name = 
REMARK  12 active torsions:
REMARK  status: ('A' for Active; 'I' for Inactive)
REMARK    1  A    between atoms: C_1  and  C_2
REMARK    2  A    between atoms: C_2  and  O_4
REMARK    3  A    between atoms: O_4  and  C_5
REMARK    4  A    between atoms: C_5  and  C_6
REMARK    5  A    between atoms: C_6  and  O_7
REMARK    6  A    between atoms: O_7  and  C_8
REMARK    7  A    between atoms: C_8  and  N_9
REMARK    8  A    between atoms: N_9  and  C_10
REMARK    9  A    between atoms: C_10  and  N_12
REMARK   10  A    between atoms: N_12  and  N_13
REMARK   11  A    between atoms: C_14  and  C_15
REMARK   12  A    between atoms: C_18  and  N_19
REMARK                            x       y       z     vdW  Elec       q    Type
REMARK                         _______ _______ _______ _____ _____    ______ ____
ROOT
ATOM      1  C   UNL     1       2.531   3.132  19.457  0.00  0.00    +0.000 C 
ATOM      2  S   UNL     1       1.092   2.474  18.941  0.00  0.00    +0.000 S 
ENDROOT
BRANCH   1   3
ATOM      3  N   UNL     1       3.789   2.665  19.189  0.00  0.00    +0.000 N 
ATOM      4  H   UNL     1       3.846   1.654  19.247  0.00  0.00    +0.000 HD
BRANCH   3   5
ATOM      5  C   UNL     1       5.023   3.383  19.319  0.00  0.00    +0.000 C 
BRANCH   5   6
ATOM      6  O   UNL     1       5.072   4.381  18.309  0.00  0.00    +0.000 OA
BRANCH   6   7
ATOM      7  C   UNL     1       6.280   5.138  18.368  0.00  0.00    +0.000 C 
BRANCH   7   8
ATOM      8  C   UNL     1       7.310   4.560  17.400  0.00  0.00    +0.000 C 
BRANCH   8   9
ATOM      9  O   UNL     1       7.400   5.378  16.221  0.00  0.00    +0.000 OA
BRANCH   9  11
ATOM     10  C   UNL     1       6.184   3.948  14.810  0.00  0.00    +0.000 C 
ATOM     11  C   UNL     1       6.317   5.319  15.402  0.00  0.00    +0.000 C 
ATOM     12  O   UNL     1       5.565   6.253  15.143  0.00  0.00    +0.000 OA
ENDBRANCH   9  11
ENDBRANCH   8   9
ENDBRANCH   7   8
ENDBRANCH   6   7
ENDBRANCH   5   6
ENDBRANCH   3   5
ENDBRANCH   1   3
BRANCH   1  13
ATOM     13  N   UNL     1       2.534   4.276  20.233  0.00  0.00    +0.000 N 
ATOM     14  H   UNL     1       2.659   4.167  21.236  0.00  0.00    +0.000 HD
BRANCH  13  15
ATOM     15  N   UNL     1       1.977   5.414  19.721  0.00  0.00    +0.000 NA
ATOM     16  C   UNL     1       2.726   6.467  19.683  0.00  0.00    +0.000 C 
BRANCH  16  17
ATOM     17  C   UNL     1       2.135   7.712  19.256  0.00  0.00    +0.000 A 
ATOM     18  C   UNL     1       2.171   8.279  17.994  0.00  0.00    +0.000 A 
ATOM     19  C   UNL     1       1.483   9.524  17.937  0.00  0.00    +0.000 A 
ATOM     20  C   UNL     1       0.948   9.855  19.164  0.00  0.00    +0.000 A 
ATOM     21  S   UNL     1       1.243   8.674  20.353  0.00  0.00    +0.000 S 
BRANCH  20  22
ATOM     22  N   UNL     1       0.208  11.051  19.475  0.00  0.00    +0.000 N 
ATOM     23  O   UNL     1      -0.687  10.934  20.324  0.00  0.00    +0.000 OA
ATOM     24  O   UNL     1       0.509  12.096  18.890  0.00  0.00    +0.000 OA
ENDBRANCH  20  22
ENDBRANCH  16  17
ENDBRANCH  13  15
ENDBRANCH   1  13
TORSDOF 11
ENDMDL
MODEL 2
REMARK VINA RESULT:      -5.5      1.030      1.152
REMARK  Name = 
REMARK  12 active torsions:
REMARK  status: ('A' for Active; 'I' for Inactive)
REMARK    1  A    between atoms: C_1  and  C_2
REMARK    2  A    between atoms: C_2  and  O_4
REMARK    3  A    between atoms: O_4  and  C_5
REMARK    4  A    between atoms: C_5  and  C_6
REMARK    5  A    between atoms: C_6  and  O_7
REMARK    6  A    between atoms: O_7  and  C_8
REMARK    7  A    between atoms: C_8  and  N_9
REMARK    8  A    between atoms: N_9  and  C_10
REMARK    9  A    between atoms: C_10  and  N_12
REMARK   10  A    between atoms: N_12  and  N_13
REMARK   11  A    between atoms: C_14  and  C_15
REMARK   12  A    between atoms: C_18  and  N_19
REMARK                            x       y       z     vdW  Elec       q    Type
REMARK                         _______ _______ _______ _____ _____    ______ ____
ROOT
ATOM      1  C   UNL     1       2.659   3.529  19.485  0.00  0.00    +0.000 C 
ATOM      2  S   UNL     1       1.359   3.086  18.546  0.00  0.00    +0.000 S 
ENDROOT
BRANCH   1   3
ATOM      3  N   UNL     1       3.964   3.161  19.305  0.00  0.00    +0.000 N 
ATOM      4  H   UNL     1       4.120   2.179  19.506  0.00  0.00    +0.000 HD
BRANCH   3   5
ATOM      5  C   UNL     1       5.116   4.013  19.353  0.00  0.00    +0.000 C 
BRANCH   5   6
ATOM      6  O   UNL     1       5.404   4.456  18.034  0.00  0.00    +0.000 OA
BRANCH   6   7
ATOM      7  C   UNL     1       6.789   4.754  17.864  0.00  0.00    +0.000 C 
BRANCH   7   8
ATOM      8  C   UNL     1       6.999   5.557  16.582  0.00  0.00    +0.000 C 
BRANCH   8   9
ATOM      9  O   UNL     1       7.654   4.748  15.588  0.00  0.00    +0.000 OA
BRANCH   9  11
ATOM     10  C   UNL     1       5.881   4.110  14.188  0.00  0.00    +0.000 C 
ATOM     11  C   UNL     1       7.160   4.880  14.330  0.00  0.00    +0.000 C 
ATOM     12  O   UNL     1       7.688   5.505  13.416  0.00  0.00    +0.000 OA
ENDBRANCH   9  11
ENDBRANCH   8   9
ENDBRANCH   7   8
ENDBRANCH   6   7
ENDBRANCH   5   6
ENDBRANCH   3   5
ENDBRANCH   1   3
BRANCH   1  13
ATOM     13  N   UNL     1       2.479   4.364  20.572  0.00  0.00    +0.000 N 
ATOM     14  H   UNL     1       2.502   3.947  21.498  0.00  0.00    +0.000 HD
BRANCH  13  15
ATOM     15  N   UNL     1       1.884   5.578  20.372  0.00  0.00    +0.000 NA
ATOM     16  C   UNL     1       2.528   6.434  19.646  0.00  0.00    +0.000 C 
BRANCH  16  17
ATOM     17  C   UNL     1       1.983   7.763  19.510  0.00  0.00    +0.000 A 
ATOM     18  C   UNL     1       1.938   8.549  18.372  0.00  0.00    +0.000 A 
ATOM     19  C   UNL     1       1.331   9.815  18.609  0.00  0.00    +0.000 A 
ATOM     20  C   UNL     1       0.936   9.941  19.923  0.00  0.00    +0.000 A 
ATOM     21  S   UNL     1       1.262   8.549  20.848  0.00  0.00    +0.000 S 
BRANCH  20  22
ATOM     22  N   UNL     1       0.310  11.094  20.517  0.00  0.00    +0.000 N 
ATOM     23  O   UNL     1      -0.298  11.846  19.742  0.00  0.00    +0.000 OA
ATOM     24  O   UNL     1       0.415  11.256  21.737  0.00  0.00    +0.000 OA
ENDBRANCH  20  22
ENDBRANCH  16  17
ENDBRANCH  13  15
ENDBRANCH   1  13
TORSDOF 11
ENDMDL
MODEL 3
REMARK VINA RESULT:      -5.5      2.207      2.781
REMARK  Name = 
REMARK  12 active torsions:
REMARK  status: ('A' for Active; 'I' for Inactive)
REMARK    1  A    between atoms: C_1  and  C_2
REMARK    2  A    between atoms: C_2  and  O_4
REMARK    3  A    between atoms: O_4  and  C_5
REMARK    4  A    between atoms: C_5  and  C_6
REMARK    5  A    between atoms: C_6  and  O_7
REMARK    6  A    between atoms: O_7  and  C_8
REMARK    7  A    between atoms: C_8  and  N_9
REMARK    8  A    between atoms: N_9  and  C_10
REMARK    9  A    between atoms: C_10  and  N_12
REMARK   10  A    between atoms: N_12  and  N_13
REMARK   11  A    between atoms: C_14  and  C_15
REMARK   12  A    between atoms: C_18  and  N_19
REMARK                            x       y       z     vdW  Elec       q    Type
REMARK                         _______ _______ _______ _____ _____    ______ ____
ROOT
ATOM      1  C   UNL     1       4.790   3.892  18.852  0.00  0.00    +0.000 C 
ATOM      2  S   UNL     1       4.162   2.781  19.919  0.00  0.00    +0.000 S 
ENDROOT
BRANCH   1   3
ATOM      3  N   UNL     1       6.113   4.114  18.583  0.00  0.00    +0.000 N 
ATOM      4  H   UNL     1       6.705   3.939  19.388  0.00  0.00    +0.000 HD
BRANCH   3   5
ATOM      5  C   UNL     1       6.657   4.961  17.562  0.00  0.00    +0.000 C 
BRANCH   5   6
ATOM      6  O   UNL     1       7.124   4.143  16.500  0.00  0.00    +0.000 OA
BRANCH   6   7
ATOM      7  C   UNL     1       6.081   3.820  15.581  0.00  0.00    +0.000 C 
BRANCH   7   8
ATOM      8  C   UNL     1       6.518   4.150  14.155  0.00  0.00    +0.000 C 
BRANCH   8   9
ATOM      9  O   UNL     1       5.389   4.101  13.264  0.00  0.00    +0.000 OA
BRANCH   9  11
ATOM     10  C   UNL     1       4.274   3.197  11.407  0.00  0.00    +0.000 C 
ATOM     11  C   UNL     1       5.557   3.308  12.174  0.00  0.00    +0.000 C 
ATOM     12  O   UNL     1       6.592   2.728  11.864  0.00  0.00    +0.000 OA
ENDBRANCH   9  11
ENDBRANCH   8   9
ENDBRANCH   7   8
ENDBRANCH   6   7
ENDBRANCH   5   6
ENDBRANCH   3   5
ENDBRANCH   1   3
BRANCH   1  13
ATOM     13  N   UNL     1       3.947   4.704  18.117  0.00  0.00    +0.000 N 
ATOM     14  H   UNL     1       3.992   4.640  17.104  0.00  0.00    +0.000 HD
BRANCH  13  15
ATOM     15  N   UNL     1       3.414   5.808  18.720  0.00  0.00    +0.000 NA
ATOM     16  C   UNL     1       2.525   6.469  18.052  0.00  0.00    +0.000 C 
BRANCH  16  17
ATOM     17  C   UNL     1       2.026   7.703  18.611  0.00  0.00    +0.000 A 
ATOM     18  C   UNL     1       1.743   8.882  17.946  0.00  0.00    +0.000 A 
ATOM     19  C   UNL     1       1.272   9.902  18.821  0.00  0.00    +0.000 A 
ATOM     20  C   UNL     1       1.215   9.454  20.123  0.00  0.00    +0.000 A 
ATOM     21  S   UNL     1       1.691   7.827  20.284  0.00  0.00    +0.000 S 
BRANCH  20  22
ATOM     22  N   UNL     1       0.807  10.222  21.271  0.00  0.00    +0.000 N 
ATOM     23  O   UNL     1       0.042  11.173  21.048  0.00  0.00    +0.000 OA
ATOM     24  O   UNL     1       1.234   9.892  22.381  0.00  0.00    +0.000 OA
ENDBRANCH  20  22
ENDBRANCH  16  17
ENDBRANCH  13  15
ENDBRANCH   1  13
TORSDOF 11
ENDMDL
MODEL 4
REMARK VINA RESULT:      -5.5      1.384      2.179
REMARK  Name = 
REMARK  12 active torsions:
REMARK  status: ('A' for Active; 'I' for Inactive)
REMARK    1  A    between atoms: C_1  and  C_2
REMARK    2  A    between atoms: C_2  and  O_4
REMARK    3  A    between atoms: O_4  and  C_5
REMARK    4  A    between atoms: C_5  and  C_6
REMARK    5  A    between atoms: C_6  and  O_7
REMARK    6  A    between atoms: O_7  and  C_8
REMARK    7  A    between atoms: C_8  and  N_9
REMARK    8  A    between atoms: N_9  and  C_10
REMARK    9  A    between atoms: C_10  and  N_12
REMARK   10  A    between atoms: N_12  and  N_13
REMARK   11  A    between atoms: C_14  and  C_15
REMARK   12  A    between atoms: C_18  and  N_19
REMARK                            x       y       z     vdW  Elec       q    Type
REMARK                         _______ _______ _______ _____ _____    ______ ____
ROOT
ATOM      1  C   UNL     1       3.559   3.622  18.805  0.00  0.00    +0.000 C 
ATOM      2  S   UNL     1       2.138   2.757  18.763  0.00  0.00    +0.000 S 
ENDROOT
BRANCH   1   3
ATOM      3  N   UNL     1       4.641   3.462  17.983  0.00  0.00    +0.000 N 
ATOM      4  H   UNL     1       5.496   3.817  18.398  0.00  0.00    +0.000 HD
BRANCH   3   5
ATOM      5  C   UNL     1       4.631   3.329  16.556  0.00  0.00    +0.000 C 
BRANCH   5   6
ATOM      6  O   UNL     1       4.997   4.577  15.986  0.00  0.00    +0.000 OA
BRANCH   6   7
ATOM      7  C   UNL     1       6.397   4.648  15.718  0.00  0.00    +0.000 C 
BRANCH   7   8
ATOM      8  C   UNL     1       7.022   5.806  16.494  0.00  0.00    +0.000 C 
BRANCH   8   9
ATOM      9  O   UNL     1       6.294   6.041  17.712  0.00  0.00    +0.000 OA
BRANCH   9  11
ATOM     10  C   UNL     1       8.222   6.778  18.829  0.00  0.00    +0.000 C 
ATOM     11  C   UNL     1       7.020   5.884  18.850  0.00  0.00    +0.000 C 
ATOM     12  O   UNL     1       6.763   5.101  19.759  0.00  0.00    +0.000 OA
ENDBRANCH   9  11
ENDBRANCH   8   9
ENDBRANCH   7   8
ENDBRANCH   6   7
ENDBRANCH   5   6
ENDBRANCH   3   5
ENDBRANCH   1   3
BRANCH   1  13
ATOM     13  N   UNL     1       3.732   4.631  19.734  0.00  0.00    +0.000 N 
ATOM     14  H   UNL     1       3.767   4.369  20.716  0.00  0.00    +0.000 HD
BRANCH  13  15
ATOM     15  N   UNL     1       3.440   5.914  19.367  0.00  0.00    +0.000 NA
ATOM     16  C   UNL     1       2.358   6.431  19.852  0.00  0.00    +0.000 C 
BRANCH  16  17
ATOM     17  C   UNL     1       1.961   7.741  19.396  0.00  0.00    +0.000 A 
ATOM     18  C   UNL     1       2.091   8.272  18.125  0.00  0.00    +0.000 A 
ATOM     19  C   UNL     1       1.595   9.603  18.037  0.00  0.00    +0.000 A 
ATOM     20  C   UNL     1       1.105  10.034  19.252  0.00  0.00    +0.000 A 
ATOM     21  S   UNL     1       1.212   8.845  20.466  0.00  0.00    +0.000 S 
BRANCH  20  22
ATOM     22  N   UNL     1       0.548  11.332  19.533  0.00  0.00    +0.000 N 
ATOM     23  O   UNL     1       0.386  11.609  20.730  0.00  0.00    +0.000 OA
ATOM     24  O   UNL     1       0.275  12.072  18.583  0.00  0.00    +0.000 OA
ENDBRANCH  20  22
ENDBRANCH  16  17
ENDBRANCH  13  15
ENDBRANCH   1  13
TORSDOF 11
ENDMDL
MODEL 5
REMARK VINA RESULT:      -5.4      1.429      1.929
REMARK  Name = 
REMARK  12 active torsions:
REMARK  status: ('A' for Active; 'I' for Inactive)
REMARK    1  A    between atoms: C_1  and  C_2
REMARK    2  A    between atoms: C_2  and  O_4
REMARK    3  A    between atoms: O_4  and  C_5
REMARK    4  A    between atoms: C_5  and  C_6
REMARK    5  A    between atoms: C_6  and  O_7
REMARK    6  A    between atoms: O_7  and  C_8
REMARK    7  A    between atoms: C_8  and  N_9
REMARK    8  A    between atoms: N_9  and  C_10
REMARK    9  A    between atoms: C_10  and  N_12
REMARK   10  A    between atoms: N_12  and  N_13
REMARK   11  A    between atoms: C_14  and  C_15
REMARK   12  A    between atoms: C_18  and  N_19
REMARK                            x       y       z     vdW  Elec       q    Type
REMARK                         _______ _______ _______ _____ _____    ______ ____
ROOT
ATOM      1  C   UNL     1       2.625   3.572  19.748  0.00  0.00    +0.000 C 
ATOM      2  S   UNL     1       1.781   3.047  21.082  0.00  0.00    +0.000 S 
ENDROOT
BRANCH   1   3
ATOM      3  N   UNL     1       2.692   2.960  18.526  0.00  0.00    +0.000 N 
ATOM      4  H   UNL     1       2.740   1.950  18.603  0.00  0.00    +0.000 HD
BRANCH   3   5
ATOM      5  C   UNL     1       3.164   3.531  17.299  0.00  0.00    +0.000 C 
BRANCH   5   6
ATOM      6  O   UNL     1       4.553   3.796  17.430  0.00  0.00    +0.000 OA
BRANCH   6   7
ATOM      7  C   UNL     1       5.187   3.947  16.161  0.00  0.00    +0.000 C 
BRANCH   7   8
ATOM      8  C   UNL     1       6.532   4.651  16.327  0.00  0.00    +0.000 C 
BRANCH   8   9
ATOM      9  O   UNL     1       6.575   5.358  17.579  0.00  0.00    +0.000 OA
BRANCH   9  11
ATOM     10  C   UNL     1       8.081   6.579  18.901  0.00  0.00    +0.000 C 
ATOM     11  C   UNL     1       7.372   6.458  17.586  0.00  0.00    +0.000 C 
ATOM     12  O   UNL     1       7.482   7.267  16.671  0.00  0.00    +0.000 OA
ENDBRANCH   9  11
ENDBRANCH   8   9
ENDBRANCH   7   8
ENDBRANCH   6   7
ENDBRANCH   5   6
ENDBRANCH   3   5
ENDBRANCH   1   3
BRANCH   1  13
ATOM     13  N   UNL     1       3.349   4.749  19.802  0.00  0.00    +0.000 N 
ATOM     14  H   UNL     1       4.328   4.690  20.068  0.00  0.00    +0.000 HD
BRANCH  13  15
ATOM     15  N   UNL     1       2.670   5.930  19.908  0.00  0.00    +0.000 NA
ATOM     16  C   UNL     1       2.636   6.683  18.858  0.00  0.00    +0.000 C 
BRANCH  16  17
ATOM     17  C   UNL     1       2.027   7.987  18.970  0.00  0.00    +0.000 A 
ATOM     18  C   UNL     1       1.865   8.935  17.976  0.00  0.00    +0.000 A 
ATOM     19  C   UNL     1       1.225  10.116  18.448  0.00  0.00    +0.000 A 
ATOM     20  C   UNL     1       0.922  10.015  19.790  0.00  0.00    +0.000 A 
ATOM     21  S   UNL     1       1.373   8.517  20.459  0.00  0.00    +0.000 S 
BRANCH  20  22
ATOM     22  N   UNL     1       0.292  11.028  20.598  0.00  0.00    +0.000 N 
ATOM     23  O   UNL     1      -0.935  11.145  20.470  0.00  0.00    +0.000 OA
ATOM     24  O   UNL     1       1.001  11.700  21.354  0.00  0.00    +0.000 OA
ENDBRANCH  20  22
ENDBRANCH  16  17
ENDBRANCH  13  15
ENDBRANCH   1  13
TORSDOF 11
ENDMDL
MODEL 6
REMARK VINA RESULT:      -5.4      1.077      1.220
REMARK  Name = 
REMARK  12 active torsions:
REMARK  status: ('A' for Active; 'I' for Inactive)
REMARK    1  A    between atoms: C_1  and  C_2
REMARK    2  A    between atoms: C_2  and  O_4
REMARK    3  A    between atoms: O_4  and  C_5
REMARK    4  A    between atoms: C_5  and  C_6
REMARK    5  A    between atoms: C_6  and  O_7
REMARK    6  A    between atoms: O_7  and  C_8
REMARK    7  A    between atoms: C_8  and  N_9
REMARK    8  A    between atoms: N_9  and  C_10
REMARK    9  A    between atoms: C_10  and  N_12
REMARK   10  A    between atoms: N_12  and  N_13
REMARK   11  A    between atoms: C_14  and  C_15
REMARK   12  A    between atoms: C_18  and  N_19
REMARK                            x       y       z     vdW  Elec       q    Type
REMARK                         _______ _______ _______ _____ _____    ______ ____
ROOT
ATOM      1  C   UNL     1       2.342   3.919  20.040  0.00  0.00    +0.000 C 
ATOM      2  S   UNL     1       1.264   2.828  20.687  0.00  0.00    +0.000 S 
ENDROOT
BRANCH   1   3
ATOM      3  N   UNL     1       2.929   3.858  18.806  0.00  0.00    +0.000 N 
ATOM      4  H   UNL     1       2.248   3.852  18.054  0.00  0.00    +0.000 HD
BRANCH   3   5
ATOM      5  C   UNL     1       4.231   3.346  18.493  0.00  0.00    +0.000 C 
BRANCH   5   6
ATOM      6  O   UNL     1       5.155   3.853  19.444  0.00  0.00    +0.000 OA
BRANCH   6   7
ATOM      7  C   UNL     1       5.788   5.047  18.987  0.00  0.00    +0.000 C 
BRANCH   7   8
ATOM      8  C   UNL     1       6.724   4.732  17.821  0.00  0.00    +0.000 C 
BRANCH   8   9
ATOM      9  O   UNL     1       6.725   5.815  16.875  0.00  0.00    +0.000 OA
BRANCH   9  11
ATOM     10  C   UNL     1       6.151   4.209  15.262  0.00  0.00    +0.000 C 
ATOM     11  C   UNL     1       5.964   5.607  15.769  0.00  0.00    +0.000 C 
ATOM     12  O   UNL     1       5.248   6.443  15.227  0.00  0.00    +0.000 OA
ENDBRANCH   9  11
ENDBRANCH   8   9
ENDBRANCH   7   8
ENDBRANCH   6   7
ENDBRANCH   5   6
ENDBRANCH   3   5
ENDBRANCH   1   3
BRANCH   1  13
ATOM     13  N   UNL     1       2.722   5.033  20.764  0.00  0.00    +0.000 N 
ATOM     14  H   UNL     1       3.303   4.888  21.585  0.00  0.00    +0.000 HD
BRANCH  13  15
ATOM     15  N   UNL     1       2.002   6.185  20.617  0.00  0.00    +0.000 NA
ATOM     16  C   UNL     1       2.411   7.022  19.720  0.00  0.00    +0.000 C 
BRANCH  16  17
ATOM     17  C   UNL     1       1.743   8.297  19.618  0.00  0.00    +0.000 A 
ATOM     18  C   UNL     1       1.595   9.089  18.494  0.00  0.00    +0.000 A 
ATOM     19  C   UNL     1       0.881  10.291  18.764  0.00  0.00    +0.000 A 
ATOM     20  C   UNL     1       0.512  10.364  20.091  0.00  0.00    +0.000 A 
ATOM     21  S   UNL     1       0.990   8.997  20.985  0.00  0.00    +0.000 S 
BRANCH  20  22
ATOM     22  N   UNL     1      -0.201  11.446  20.717  0.00  0.00    +0.000 N 
ATOM     23  O   UNL     1      -1.102  11.969  20.045  0.00  0.00    +0.000 OA
ATOM     24  O   UNL     1       0.123  11.778  21.862  0.00  0.00    +0.000 OA
ENDBRANCH  20  22
ENDBRANCH  16  17
ENDBRANCH  13  15
ENDBRANCH   1  13
TORSDOF 11
ENDMDL
MODEL 7
REMARK VINA RESULT:      -5.4      2.787      4.187
REMARK  Name = 
REMARK  12 active torsions:
REMARK  status: ('A' for Active; 'I' for Inactive)
REMARK    1  A    between atoms: C_1  and  C_2
REMARK    2  A    between atoms: C_2  and  O_4
REMARK    3  A    between atoms: O_4  and  C_5
REMARK    4  A    between atoms: C_5  and  C_6
REMARK    5  A    between atoms: C_6  and  O_7
REMARK    6  A    between atoms: O_7  and  C_8
REMARK    7  A    between atoms: C_8  and  N_9
REMARK    8  A    between atoms: N_9  and  C_10
REMARK    9  A    between atoms: C_10  and  N_12
REMARK   10  A    between atoms: N_12  and  N_13
REMARK   11  A    between atoms: C_14  and  C_15
REMARK   12  A    between atoms: C_18  and  N_19
REMARK                            x       y       z     vdW  Elec       q    Type
REMARK                         _______ _______ _______ _____ _____    ______ ____
ROOT
ATOM      1  C   UNL     1       5.841   5.313  18.111  0.00  0.00    +0.000 C 
ATOM      2  S   UNL     1       7.147   6.337  17.995  0.00  0.00    +0.000 S 
ENDROOT
BRANCH   1   3
ATOM      3  N   UNL     1       5.824   4.065  18.671  0.00  0.00    +0.000 N 
ATOM      4  H   UNL     1       6.719   3.594  18.591  0.00  0.00    +0.000 HD
BRANCH   3   5
ATOM      5  C   UNL     1       4.680   3.228  18.883  0.00  0.00    +0.000 C 
BRANCH   5   6
ATOM      6  O   UNL     1       3.984   3.698  20.028  0.00  0.00    +0.000 OA
BRANCH   6   7
ATOM      7  C   UNL     1       3.220   2.665  20.647  0.00  0.00    +0.000 C 
BRANCH   7   8
ATOM      8  C   UNL     1       1.818   3.175  20.978  0.00  0.00    +0.000 C 
BRANCH   8   9
ATOM      9  O   UNL     1       1.311   3.977  19.897  0.00  0.00    +0.000 OA
BRANCH   9  11
ATOM     10  C   UNL     1       1.383   3.984  17.551  0.00  0.00    +0.000 C 
ATOM     11  C   UNL     1       0.936   3.277  18.795  0.00  0.00    +0.000 C 
ATOM     12  O   UNL     1       0.292   2.233  18.796  0.00  0.00    +0.000 OA
ENDBRANCH   9  11
ENDBRANCH   8   9
ENDBRANCH   7   8
ENDBRANCH   6   7
ENDBRANCH   5   6
ENDBRANCH   3   5
ENDBRANCH   1   3
BRANCH   1  13
ATOM     13  N   UNL     1       4.607   5.701  17.623  0.00  0.00    +0.000 N 
ATOM     14  H   UNL     1       4.429   5.573  16.630  0.00  0.00    +0.000 HD
BRANCH  13  15
ATOM     15  N   UNL     1       3.864   6.585  18.352  0.00  0.00    +0.000 NA
ATOM     16  C   UNL     1       2.908   7.199  17.733  0.00  0.00    +0.000 C 
BRANCH  16  17
ATOM     17  C   UNL     1       2.178   8.221  18.444  0.00  0.00    +0.000 A 
ATOM     18  C   UNL     1       1.715   9.429  17.952  0.00  0.00    +0.000 A 
ATOM     19  C   UNL     1       1.039  10.197  18.942  0.00  0.00    +0.000 A 
ATOM     20  C   UNL     1       1.014   9.537  20.153  0.00  0.00    +0.000 A 
ATOM     21  S   UNL     1       1.763   8.010  20.090  0.00  0.00    +0.000 S 
BRANCH  20  22
ATOM     22  N   UNL     1       0.433  10.027  21.377  0.00  0.00    +0.000 N 
ATOM     23  O   UNL     1      -0.679  10.566  21.277  0.00  0.00    +0.000 OA
ATOM     24  O   UNL     1       1.066   9.880  22.427  0.00  0.00    +0.000 OA
ENDBRANCH  20  22
ENDBRANCH  16  17
ENDBRANCH  13  15
ENDBRANCH   1  13
TORSDOF 11
ENDMDL
MODEL 8
REMARK VINA RESULT:      -5.4      1.529      1.919
REMARK  Name = 
REMARK  12 active torsions:
REMARK  status: ('A' for Active; 'I' for Inactive)
REMARK    1  A    between atoms: C_1  and  C_2
REMARK    2  A    between atoms: C_2  and  O_4
REMARK    3  A    between atoms: O_4  and  C_5
REMARK    4  A    between atoms: C_5  and  C_6
REMARK    5  A    between atoms: C_6  and  O_7
REMARK    6  A    between atoms: O_7  and  C_8
REMARK    7  A    between atoms: C_8  and  N_9
REMARK    8  A    between atoms: N_9  and  C_10
REMARK    9  A    between atoms: C_10  and  N_12
REMARK   10  A    between atoms: N_12  and  N_13
REMARK   11  A    between atoms: C_14  and  C_15
REMARK   12  A    between atoms: C_18  and  N_19
REMARK                            x       y       z     vdW  Elec       q    Type
REMARK                         _______ _______ _______ _____ _____    ______ ____
ROOT
ATOM      1  C   UNL     1       3.007   4.493  19.355  0.00  0.00    +0.000 C 
ATOM      2  S   UNL     1       1.710   3.929  18.477  0.00  0.00    +0.000 S 
ENDROOT
BRANCH   1   3
ATOM      3  N   UNL     1       4.331   4.366  19.035  0.00  0.00    +0.000 N 
ATOM      4  H   UNL     1       4.647   3.402  19.077  0.00  0.00    +0.000 HD
BRANCH   3   5
ATOM      5  C   UNL     1       5.344   5.375  19.132  0.00  0.00    +0.000 C 
BRANCH   5   6
ATOM      6  O   UNL     1       6.594   4.738  19.357  0.00  0.00    +0.000 OA
BRANCH   6   7
ATOM      7  C   UNL     1       7.623   5.281  18.531  0.00  0.00    +0.000 C 
BRANCH   7   8
ATOM      8  C   UNL     1       7.021   6.236  17.502  0.00  0.00    +0.000 C 
BRANCH   8   9
ATOM      9  O   UNL     1       7.493   5.908  16.183  0.00  0.00    +0.000 OA
BRANCH   9  11
ATOM     10  C   UNL     1       5.257   5.867  15.467  0.00  0.00    +0.000 C 
ATOM     11  C   UNL     1       6.608   5.219  15.415  0.00  0.00    +0.000 C 
ATOM     12  O   UNL     1       6.852   4.193  14.790  0.00  0.00    +0.000 OA
ENDBRANCH   9  11
ENDBRANCH   8   9
ENDBRANCH   7   8
ENDBRANCH   6   7
ENDBRANCH   5   6
ENDBRANCH   3   5
ENDBRANCH   1   3
BRANCH   1  13
ATOM     13  N   UNL     1       2.801   5.180  20.536  0.00  0.00    +0.000 N 
ATOM     14  H   UNL     1       3.102   4.738  21.400  0.00  0.00    +0.000 HD
BRANCH  13  15
ATOM     15  N   UNL     1       1.871   6.181  20.556  0.00  0.00    +0.000 NA
ATOM     16  C   UNL     1       2.226   7.321  20.058  0.00  0.00    +0.000 C 
BRANCH  16  17
ATOM     17  C   UNL     1       1.309   8.430  20.167  0.00  0.00    +0.000 A 
ATOM     18  C   UNL     1       0.506   8.764  21.243  0.00  0.00    +0.000 A 
ATOM     19  C   UNL     1      -0.281   9.925  20.996  0.00  0.00    +0.000 A 
ATOM     20  C   UNL     1      -0.043  10.430  19.735  0.00  0.00    +0.000 A 
ATOM     21  S   UNL     1       1.129   9.541  18.878  0.00  0.00    +0.000 S 
BRANCH  20  22
ATOM     22  N   UNL     1      -0.678  11.579  19.145  0.00  0.00    +0.000 N 
ATOM     23  O   UNL     1       0.070  12.378  18.562  0.00  0.00    +0.000 OA
ATOM     24  O   UNL     1      -1.903  11.693  19.253  0.00  0.00    +0.000 OA
ENDBRANCH  20  22
ENDBRANCH  16  17
ENDBRANCH  13  15
ENDBRANCH   1  13
TORSDOF 11
ENDMDL
MODEL 9
REMARK VINA RESULT:      -5.4      2.281      2.770
REMARK  Name = 
REMARK  12 active torsions:
REMARK  status: ('A' for Active; 'I' for Inactive)
REMARK    1  A    between atoms: C_1  and  C_2
REMARK    2  A    between atoms: C_2  and  O_4
REMARK    3  A    between atoms: O_4  and  C_5
REMARK    4  A    between atoms: C_5  and  C_6
REMARK    5  A    between atoms: C_6  and  O_7
REMARK    6  A    between atoms: O_7  and  C_8
REMARK    7  A    between atoms: C_8  and  N_9
REMARK    8  A    between atoms: N_9  and  C_10
REMARK    9  A    between atoms: C_10  and  N_12
REMARK   10  A    between atoms: N_12  and  N_13
REMARK   11  A    between atoms: C_14  and  C_15
REMARK   12  A    between atoms: C_18  and  N_19
REMARK                            x       y       z     vdW  Elec       q    Type
REMARK                         _______ _______ _______ _____ _____    ______ ____
ROOT
ATOM      1  C   UNL     1       3.019   5.339  18.843  0.00  0.00    +0.000 C 
ATOM      2  S   UNL     1       1.919   4.346  18.086  0.00  0.00    +0.000 S 
ENDROOT
BRANCH   1   3
ATOM      3  N   UNL     1       4.176   4.957  19.467  0.00  0.00    +0.000 N 
ATOM      4  H   UNL     1       4.401   5.550  20.259  0.00  0.00    +0.000 HD
BRANCH   3   5
ATOM      5  C   UNL     1       5.261   4.216  18.895  0.00  0.00    +0.000 C 
BRANCH   5   6
ATOM      6  O   UNL     1       6.481   4.798  19.328  0.00  0.00    +0.000 OA
BRANCH   6   7
ATOM      7  C   UNL     1       6.923   5.826  18.443  0.00  0.00    +0.000 C 
BRANCH   7   8
ATOM      8  C   UNL     1       6.349   5.598  17.046  0.00  0.00    +0.000 C 
BRANCH   8   9
ATOM      9  O   UNL     1       7.357   5.833  16.047  0.00  0.00    +0.000 OA
BRANCH   9  11
ATOM     10  C   UNL     1       6.085   4.140  15.035  0.00  0.00    +0.000 C 
ATOM     11  C   UNL     1       7.176   5.156  14.883  0.00  0.00    +0.000 C 
ATOM     12  O   UNL     1       7.826   5.316  13.855  0.00  0.00    +0.000 OA
ENDBRANCH   9  11
ENDBRANCH   8   9
ENDBRANCH   7   8
ENDBRANCH   6   7
ENDBRANCH   5   6
ENDBRANCH   3   5
ENDBRANCH   1   3
BRANCH   1  13
ATOM     13  N   UNL     1       2.814   6.706  18.877  0.00  0.00    +0.000 N 
ATOM     14  H   UNL     1       3.439   7.292  18.331  0.00  0.00    +0.000 HD
BRANCH  13  15
ATOM     15  N   UNL     1       2.096   7.233  19.913  0.00  0.00    +0.000 NA
ATOM     16  C   UNL     1       1.706   8.460  19.790  0.00  0.00    +0.000 C 
BRANCH  16  17
ATOM     17  C   UNL     1       1.045   9.084  20.912  0.00  0.00    +0.000 A 
ATOM     18  C   UNL     1       0.973   8.625  22.215  0.00  0.00    +0.000 A 
ATOM     19  C   UNL     1       0.229   9.498  23.059  0.00  0.00    +0.000 A 
ATOM     20  C   UNL     1      -0.237  10.591  22.359  0.00  0.00    +0.000 A 
ATOM     21  S   UNL     1       0.239  10.581  20.725  0.00  0.00    +0.000 S 
BRANCH  20  22
ATOM     22  N   UNL     1      -1.041  11.661  22.890  0.00  0.00    +0.000 N 
ATOM     23  O   UNL     1      -0.494  12.771  22.964  0.00  0.00    +0.000 OA
ATOM     24  O   UNL     1      -2.202  11.411  23.228  0.00  0.00    +0.000 OA
ENDBRANCH  20  22
ENDBRANCH  16  17
ENDBRANCH  13  15
ENDBRANCH   1  13
TORSDOF 11
ENDMDL
