MODEL 1
REMARK VINA RESULT:      -7.8      0.000      0.000
REMARK  Name = 
REMARK  5 active torsions:
REMARK  status: ('A' for Active; 'I' for Inactive)
REMARK    1  A    between atoms: C_1  and  O_2
REMARK    2  A    between atoms: O_2  and  C_3
REMARK    3  A    between atoms: C_6  and  S_7
REMARK    4  A    between atoms: S_7  and  N_10
REMARK    5  A    between atoms: N_10  and  C_11
REMARK                            x       y       z     vdW  Elec       q    Type
REMARK                         _______ _______ _______ _____ _____    ______ ____
ROOT
ATOM      1  N   UNL     1       4.460   2.840  17.990  0.00  0.00    +0.000 N 
ATOM      2  H   UNL     1       4.664   1.910  17.607  0.00  0.00    +0.000 HD
ENDROOT
BRANCH   1   3
ATOM      3  C   UNL     1       5.046   3.886  17.191  0.00  0.00    +0.000 A 
ATOM      4  C   UNL     1       4.822   3.870  15.812  0.00  0.00    +0.000 A 
ATOM      5  C   UNL     1       5.512   4.755  14.992  0.00  0.00    +0.000 A 
ATOM      6  C   UNL     1       6.464   5.607  15.548  0.00  0.00    +0.000 A 
ATOM      7  C   UNL     1       6.699   5.608  16.936  0.00  0.00    +0.000 A 
ATOM      8  C   UNL     1       7.715   6.384  17.508  0.00  0.00    +0.000 A 
ATOM      9  C   UNL     1       7.916   6.357  18.883  0.00  0.00    +0.000 A 
ATOM     10  C   UNL     1       7.062   5.589  19.650  0.00  0.00    +0.000 A 
ATOM     11  N   UNL     1       6.079   4.819  19.136  0.00  0.00    +0.000 NA
ATOM     12  C   UNL     1       5.936   4.787  17.791  0.00  0.00    +0.000 A 
ENDBRANCH   1   3
BRANCH   1  13
ATOM     13  S   UNL     1       2.750   2.920  18.123  0.00  0.00    +0.000 S 
ATOM     14  O   UNL     1       2.379   1.930  19.112  0.00  0.00    +0.000 OA
ATOM     15  O   UNL     1       2.124   2.942  16.820  0.00  0.00    +0.000 OA
BRANCH  13  19
ATOM     16  C   UNL     1       1.989   7.030  19.969  0.00  0.00    +0.000 A 
ATOM     17  C   UNL     1       2.307   6.912  18.614  0.00  0.00    +0.000 A 
ATOM     18  C   UNL     1       2.536   5.657  18.046  0.00  0.00    +0.000 A 
ATOM     19  C   UNL     1       2.491   4.519  18.856  0.00  0.00    +0.000 A 
ATOM     20  C   UNL     1       2.160   4.626  20.209  0.00  0.00    +0.000 A 
ATOM     21  C   UNL     1       1.911   5.883  20.763  0.00  0.00    +0.000 A 
BRANCH  16  23
ATOM     22  C   UNL     1       0.826   8.518  21.402  0.00  0.00    +0.000 C 
ATOM     23  O   UNL     1       1.821   8.316  20.404  0.00  0.00    +0.000 OA
ENDBRANCH  16  23
ENDBRANCH  13  19
ENDBRANCH   1  13
TORSDOF 4
ENDMDL
MODEL 2
REMARK VINA RESULT:      -7.7      0.361      1.093
REMARK  Name = 
REMARK  5 active torsions:
REMARK  status: ('A' for Active; 'I' for Inactive)
REMARK    1  A    between atoms: C_1  and  O_2
REMARK    2  A    between atoms: O_2  and  C_3
REMARK    3  A    between atoms: C_6  and  S_7
REMARK    4  A    between atoms: S_7  and  N_10
REMARK    5  A    between atoms: N_10  and  C_11
REMARK                            x       y       z     vdW  Elec       q    Type
REMARK                         _______ _______ _______ _____ _____    ______ ____
ROOT
ATOM      1  N   UNL     1       4.439   2.857  18.007  0.00  0.00    +0.000 N 
ATOM      2  H   UNL     1       4.672   1.925  17.649  0.00  0.00    +0.000 HD
ENDROOT
BRANCH   1   3
ATOM      3  C   UNL     1       5.027   3.900  17.205  0.00  0.00    +0.000 A 
ATOM      4  C   UNL     1       4.798   3.883  15.826  0.00  0.00    +0.000 A 
ATOM      5  C   UNL     1       5.490   4.763  15.002  0.00  0.00    +0.000 A 
ATOM      6  C   UNL     1       6.449   5.610  15.554  0.00  0.00    +0.000 A 
ATOM      7  C   UNL     1       6.689   5.612  16.940  0.00  0.00    +0.000 A 
ATOM      8  C   UNL     1       7.712   6.383  17.508  0.00  0.00    +0.000 A 
ATOM      9  C   UNL     1       7.918   6.357  18.881  0.00  0.00    +0.000 A 
ATOM     10  C   UNL     1       7.062   5.595  19.653  0.00  0.00    +0.000 A 
ATOM     11  N   UNL     1       6.073   4.829  19.144  0.00  0.00    +0.000 NA
ATOM     12  C   UNL     1       5.925   4.797  17.799  0.00  0.00    +0.000 A 
ENDBRANCH   1   3
BRANCH   1  13
ATOM     13  S   UNL     1       2.724   2.906  18.089  0.00  0.00    +0.000 S 
ATOM     14  O   UNL     1       2.343   1.914  19.072  0.00  0.00    +0.000 OA
ATOM     15  O   UNL     1       2.137   2.911  16.769  0.00  0.00    +0.000 OA
BRANCH  13  19
ATOM     16  C   UNL     1       2.023   7.012  19.969  0.00  0.00    +0.000 A 
ATOM     17  C   UNL     1       1.949   5.856  20.749  0.00  0.00    +0.000 A 
ATOM     18  C   UNL     1       2.166   4.600  20.179  0.00  0.00    +0.000 A 
ATOM     19  C   UNL     1       2.415   4.503  18.806  0.00  0.00    +0.000 A 
ATOM     20  C   UNL     1       2.505   5.655  18.021  0.00  0.00    +0.000 A 
ATOM     21  C   UNL     1       2.308   6.908  18.605  0.00  0.00    +0.000 A 
BRANCH  16  23
ATOM     22  C   UNL     1       1.087   9.189  19.908  0.00  0.00    +0.000 C 
ATOM     23  O   UNL     1       1.759   8.172  20.644  0.00  0.00    +0.000 OA
ENDBRANCH  16  23
ENDBRANCH  13  19
ENDBRANCH   1  13
TORSDOF 4
ENDMDL
MODEL 3
REMARK VINA RESULT:      -7.7      2.567      6.049
REMARK  Name = 
REMARK  5 active torsions:
REMARK  status: ('A' for Active; 'I' for Inactive)
REMARK    1  A    between atoms: C_1  and  O_2
REMARK    2  A    between atoms: O_2  and  C_3
REMARK    3  A    between atoms: C_6  and  S_7
REMARK    4  A    between atoms: S_7  and  N_10
REMARK    5  A    between atoms: N_10  and  C_11
REMARK                            x       y       z     vdW  Elec       q    Type
REMARK                         _______ _______ _______ _____ _____    ______ ____
ROOT
ATOM      1  N   UNL     1       2.876   6.257  20.324  0.00  0.00    +0.000 N 
ATOM      2  H   UNL     1       3.877   6.405  20.492  0.00  0.00    +0.000 HD
ENDROOT
BRANCH   1   3
ATOM      3  C   UNL     1       2.302   7.326  19.546  0.00  0.00    +0.000 A 
ATOM      4  C   UNL     1       2.804   7.554  18.262  0.00  0.00    +0.000 A 
ATOM      5  C   UNL     1       2.401   8.680  17.556  0.00  0.00    +0.000 A 
ATOM      6  C   UNL     1       1.547   9.601  18.159  0.00  0.00    +0.000 A 
ATOM      7  C   UNL     1       1.056   9.376  19.459  0.00  0.00    +0.000 A 
ATOM      8  C   UNL     1       0.275  10.330  20.124  0.00  0.00    +0.000 A 
ATOM      9  C   UNL     1      -0.190  10.070  21.408  0.00  0.00    +0.000 A 
ATOM     10  C   UNL     1       0.104   8.843  21.971  0.00  0.00    +0.000 A 
ATOM     11  N   UNL     1       0.863   7.903  21.367  0.00  0.00    +0.000 NA
ATOM     12  C   UNL     1       1.378   8.190  20.149  0.00  0.00    +0.000 A 
ENDBRANCH   1   3
BRANCH   1  13
ATOM     13  S   UNL     1       2.755   4.705  19.599  0.00  0.00    +0.000 S 
ATOM     14  O   UNL     1       1.599   4.760  18.728  0.00  0.00    +0.000 OA
ATOM     15  O   UNL     1       2.898   3.655  20.582  0.00  0.00    +0.000 OA
BRANCH  13  19
ATOM     16  C   UNL     1       6.432   4.651  16.887  0.00  0.00    +0.000 A 
ATOM     17  C   UNL     1       5.172   4.335  16.374  0.00  0.00    +0.000 A 
ATOM     18  C   UNL     1       4.046   4.354  17.199  0.00  0.00    +0.000 A 
ATOM     19  C   UNL     1       4.195   4.648  18.558  0.00  0.00    +0.000 A 
ATOM     20  C   UNL     1       5.449   4.980  19.076  0.00  0.00    +0.000 A 
ATOM     21  C   UNL     1       6.567   4.979  18.238  0.00  0.00    +0.000 A 
BRANCH  16  23
ATOM     22  C   UNL     1       7.098   4.733  14.613  0.00  0.00    +0.000 C 
ATOM     23  O   UNL     1       7.454   4.563  15.981  0.00  0.00    +0.000 OA
ENDBRANCH  16  23
ENDBRANCH  13  19
ENDBRANCH   1  13
TORSDOF 4
ENDMDL
MODEL 4
REMARK VINA RESULT:      -7.6      2.557      6.090
REMARK  Name = 
REMARK  5 active torsions:
REMARK  status: ('A' for Active; 'I' for Inactive)
REMARK    1  A    between atoms: C_1  and  O_2
REMARK    2  A    between atoms: O_2  and  C_3
REMARK    3  A    between atoms: C_6  and  S_7
REMARK    4  A    between atoms: S_7  and  N_10
REMARK    5  A    between atoms: N_10  and  C_11
REMARK                            x       y       z     vdW  Elec       q    Type
REMARK                         _______ _______ _______ _____ _____    ______ ____
ROOT
ATOM      1  N   UNL     1       2.880   6.262  20.330  0.00  0.00    +0.000 N 
ATOM      2  H   UNL     1       3.888   6.404  20.466  0.00  0.00    +0.000 HD
ENDROOT
BRANCH   1   3
ATOM      3  C   UNL     1       2.291   7.327  19.559  0.00  0.00    +0.000 A 
ATOM      4  C   UNL     1       2.761   7.543  18.260  0.00  0.00    +0.000 A 
ATOM      5  C   UNL     1       2.345   8.665  17.555  0.00  0.00    +0.000 A 
ATOM      6  C   UNL     1       1.511   9.595  18.173  0.00  0.00    +0.000 A 
ATOM      7  C   UNL     1       1.053   9.383  19.487  0.00  0.00    +0.000 A 
ATOM      8  C   UNL     1       0.293  10.346  20.164  0.00  0.00    +0.000 A 
ATOM      9  C   UNL     1      -0.138  10.099  21.462  0.00  0.00    +0.000 A 
ATOM     10  C   UNL     1       0.163   8.875  22.026  0.00  0.00    +0.000 A 
ATOM     11  N   UNL     1       0.902   7.927  21.411  0.00  0.00    +0.000 NA
ATOM     12  C   UNL     1       1.387   8.201  20.178  0.00  0.00    +0.000 A 
ENDBRANCH   1   3
BRANCH   1  13
ATOM     13  S   UNL     1       2.724   4.704  19.626  0.00  0.00    +0.000 S 
ATOM     14  O   UNL     1       1.505   4.738  18.846  0.00  0.00    +0.000 OA
ATOM     15  O   UNL     1       2.956   3.663  20.602  0.00  0.00    +0.000 OA
BRANCH  13  19
ATOM     16  C   UNL     1       6.244   4.496  16.719  0.00  0.00    +0.000 A 
ATOM     17  C   UNL     1       6.436   4.937  18.031  0.00  0.00    +0.000 A 
ATOM     18  C   UNL     1       5.363   4.998  18.922  0.00  0.00    +0.000 A 
ATOM     19  C   UNL     1       4.082   4.658  18.479  0.00  0.00    +0.000 A 
ATOM     20  C   UNL     1       3.883   4.201  17.174  0.00  0.00    +0.000 A 
ATOM     21  C   UNL     1       4.966   4.123  16.295  0.00  0.00    +0.000 A 
BRANCH  16  23
ATOM     22  C   UNL     1       7.179   4.813  14.563  0.00  0.00    +0.000 C 
ATOM     23  O   UNL     1       7.370   4.515  15.942  0.00  0.00    +0.000 OA
ENDBRANCH  16  23
ENDBRANCH  13  19
ENDBRANCH   1  13
TORSDOF 4
ENDMDL
MODEL 5
REMARK VINA RESULT:      -7.6      2.677      5.792
REMARK  Name = 
REMARK  5 active torsions:
REMARK  status: ('A' for Active; 'I' for Inactive)
REMARK    1  A    between atoms: C_1  and  O_2
REMARK    2  A    between atoms: O_2  and  C_3
REMARK    3  A    between atoms: C_6  and  S_7
REMARK    4  A    between atoms: S_7  and  N_10
REMARK    5  A    between atoms: N_10  and  C_11
REMARK                            x       y       z     vdW  Elec       q    Type
REMARK                         _______ _______ _______ _____ _____    ______ ____
ROOT
ATOM      1  N   UNL     1       4.046   5.228  17.212  0.00  0.00    +0.000 N 
ATOM      2  H   UNL     1       3.700   4.572  16.504  0.00  0.00    +0.000 HD
ENDROOT
BRANCH   1   3
ATOM      3  C   UNL     1       3.089   5.426  18.270  0.00  0.00    +0.000 A 
ATOM      4  C   UNL     1       3.105   6.642  18.959  0.00  0.00    +0.000 A 
ATOM      5  C   UNL     1       2.320   6.801  20.094  0.00  0.00    +0.000 A 
ATOM      6  C   UNL     1       1.573   5.725  20.569  0.00  0.00    +0.000 A 
ATOM      7  C   UNL     1       1.572   4.496  19.882  0.00  0.00    +0.000 A 
ATOM      8  C   UNL     1       0.907   3.372  20.389  0.00  0.00    +0.000 A 
ATOM      9  C   UNL     1       0.931   2.176  19.681  0.00  0.00    +0.000 A 
ATOM     10  C   UNL     1       1.582   2.154  18.463  0.00  0.00    +0.000 A 
ATOM     11  N   UNL     1       2.244   3.212  17.947  0.00  0.00    +0.000 NA
ATOM     12  C   UNL     1       2.284   4.352  18.675  0.00  0.00    +0.000 A 
ENDBRANCH   1   3
BRANCH   1  13
ATOM     13  S   UNL     1       5.557   4.596  17.729  0.00  0.00    +0.000 S 
ATOM     14  O   UNL     1       6.059   3.806  16.624  0.00  0.00    +0.000 OA
ATOM     15  O   UNL     1       5.463   4.039  19.060  0.00  0.00    +0.000 OA
BRANCH  13  19
ATOM     16  C   UNL     1       8.096   8.379  18.078  0.00  0.00    +0.000 A 
ATOM     17  C   UNL     1       6.978   8.353  17.241  0.00  0.00    +0.000 A 
ATOM     18  C   UNL     1       6.198   7.200  17.136  0.00  0.00    +0.000 A 
ATOM     19  C   UNL     1       6.571   6.052  17.839  0.00  0.00    +0.000 A 
ATOM     20  C   UNL     1       7.679   6.072  18.690  0.00  0.00    +0.000 A 
ATOM     21  C   UNL     1       8.441   7.237  18.806  0.00  0.00    +0.000 A 
BRANCH  16  23
ATOM     22  C   UNL     1       9.131  10.101  19.336  0.00  0.00    +0.000 C 
ATOM     23  O   UNL     1       8.789   9.558  18.065  0.00  0.00    +0.000 OA
ENDBRANCH  16  23
ENDBRANCH  13  19
ENDBRANCH   1  13
TORSDOF 4
ENDMDL
MODEL 6
REMARK VINA RESULT:      -7.6      2.702      4.337
REMARK  Name = 
REMARK  5 active torsions:
REMARK  status: ('A' for Active; 'I' for Inactive)
REMARK    1  A    between atoms: C_1  and  O_2
REMARK    2  A    between atoms: O_2  and  C_3
REMARK    3  A    between atoms: C_6  and  S_7
REMARK    4  A    between atoms: S_7  and  N_10
REMARK    5  A    between atoms: N_10  and  C_11
REMARK                            x       y       z     vdW  Elec       q    Type
REMARK                         _______ _______ _______ _____ _____    ______ ____
ROOT
ATOM      1  N   UNL     1       5.532   3.302  19.107  0.00  0.00    +0.000 N 
ATOM      2  H   UNL     1       5.587   3.206  20.127  0.00  0.00    +0.000 HD
ENDROOT
BRANCH   1   3
ATOM      3  C   UNL     1       4.179   3.163  18.631  0.00  0.00    +0.000 A 
ATOM      4  C   UNL     1       3.929   3.383  17.274  0.00  0.00    +0.000 A 
ATOM      5  C   UNL     1       2.618   3.432  16.814  0.00  0.00    +0.000 A 
ATOM      6  C   UNL     1       1.567   3.321  17.723  0.00  0.00    +0.000 A 
ATOM      7  C   UNL     1       1.823   3.116  19.091  0.00  0.00    +0.000 A 
ATOM      8  C   UNL     1       0.789   3.097  20.037  0.00  0.00    +0.000 A 
ATOM      9  C   UNL     1       1.083   2.893  21.380  0.00  0.00    +0.000 A 
ATOM     10  C   UNL     1       2.401   2.667  21.730  0.00  0.00    +0.000 A 
ATOM     11  N   UNL     1       3.425   2.689  20.851  0.00  0.00    +0.000 NA
ATOM     12  C   UNL     1       3.145   2.965  19.556  0.00  0.00    +0.000 A 
ENDBRANCH   1   3
BRANCH   1  13
ATOM     13  S   UNL     1       6.261   4.813  18.744  0.00  0.00    +0.000 S 
ATOM     14  O   UNL     1       6.871   4.661  17.440  0.00  0.00    +0.000 OA
ATOM     15  O   UNL     1       7.022   5.311  19.869  0.00  0.00    +0.000 OA
BRANCH  13  19
ATOM     16  C   UNL     1       2.605   7.497  18.181  0.00  0.00    +0.000 A 
ATOM     17  C   UNL     1       3.558   7.378  17.167  0.00  0.00    +0.000 A 
ATOM     18  C   UNL     1       4.674   6.556  17.334  0.00  0.00    +0.000 A 
ATOM     19  C   UNL     1       4.857   5.886  18.547  0.00  0.00    +0.000 A 
ATOM     20  C   UNL     1       3.902   5.986  19.562  0.00  0.00    +0.000 A 
ATOM     21  C   UNL     1       2.778   6.794  19.377  0.00  0.00    +0.000 A 
BRANCH  16  23
ATOM     22  C   UNL     1       1.328   9.373  18.866  0.00  0.00    +0.000 C 
ATOM     23  O   UNL     1       1.579   8.357  17.901  0.00  0.00    +0.000 OA
ENDBRANCH  16  23
ENDBRANCH  13  19
ENDBRANCH   1  13
TORSDOF 4
ENDMDL
MODEL 7
REMARK VINA RESULT:      -7.6      3.003      6.038
REMARK  Name = 
REMARK  5 active torsions:
REMARK  status: ('A' for Active; 'I' for Inactive)
REMARK    1  A    between atoms: C_1  and  O_2
REMARK    2  A    between atoms: O_2  and  C_3
REMARK    3  A    between atoms: C_6  and  S_7
REMARK    4  A    between atoms: S_7  and  N_10
REMARK    5  A    between atoms: N_10  and  C_11
REMARK                            x       y       z     vdW  Elec       q    Type
REMARK                         _______ _______ _______ _____ _____    ______ ____
ROOT
ATOM      1  N   UNL     1       5.460   3.434  19.414  0.00  0.00    +0.000 N 
ATOM      2  H   UNL     1       5.589   3.284  20.420  0.00  0.00    +0.000 HD
ENDROOT
BRANCH   1   3
ATOM      3  C   UNL     1       4.172   2.970  18.966  0.00  0.00    +0.000 A 
ATOM      4  C   UNL     1       3.958   2.836  17.591  0.00  0.00    +0.000 A 
ATOM      5  C   UNL     1       2.680   2.564  17.117  0.00  0.00    +0.000 A 
ATOM      6  C   UNL     1       1.616   2.488  18.013  0.00  0.00    +0.000 A 
ATOM      7  C   UNL     1       1.833   2.640  19.395  0.00  0.00    +0.000 A 
ATOM      8  C   UNL     1       0.770   2.663  20.308  0.00  0.00    +0.000 A 
ATOM      9  C   UNL     1       1.026   2.816  21.665  0.00  0.00    +0.000 A 
ATOM     10  C   UNL     1       2.343   2.895  22.074  0.00  0.00    +0.000 A 
ATOM     11  N   UNL     1       3.394   2.888  21.226  0.00  0.00    +0.000 NA
ATOM     12  C   UNL     1       3.137   2.817  19.899  0.00  0.00    +0.000 A 
ENDBRANCH   1   3
BRANCH   1  13
ATOM     13  S   UNL     1       5.743   5.107  19.155  0.00  0.00    +0.000 S 
ATOM     14  O   UNL     1       6.983   5.414  19.836  0.00  0.00    +0.000 OA
ATOM     15  O   UNL     1       4.548   5.884  19.398  0.00  0.00    +0.000 OA
BRANCH  13  19
ATOM     16  C   UNL     1       6.542   5.205  14.657  0.00  0.00    +0.000 A 
ATOM     17  C   UNL     1       7.402   4.512  15.512  0.00  0.00    +0.000 A 
ATOM     18  C   UNL     1       7.158   4.477  16.886  0.00  0.00    +0.000 A 
ATOM     19  C   UNL     1       6.070   5.182  17.409  0.00  0.00    +0.000 A 
ATOM     20  C   UNL     1       5.196   5.865  16.560  0.00  0.00    +0.000 A 
ATOM     21  C   UNL     1       5.436   5.877  15.184  0.00  0.00    +0.000 A 
BRANCH  16  23
ATOM     22  C   UNL     1       8.243   5.602  13.054  0.00  0.00    +0.000 C 
ATOM     23  O   UNL     1       6.912   5.186  13.340  0.00  0.00    +0.000 OA
ENDBRANCH  16  23
ENDBRANCH  13  19
ENDBRANCH   1  13
TORSDOF 4
ENDMDL
MODEL 8
REMARK VINA RESULT:      -7.6      2.576      5.787
REMARK  Name = 
REMARK  5 active torsions:
REMARK  status: ('A' for Active; 'I' for Inactive)
REMARK    1  A    between atoms: C_1  and  O_2
REMARK    2  A    between atoms: O_2  and  C_3
REMARK    3  A    between atoms: C_6  and  S_7
REMARK    4  A    between atoms: S_7  and  N_10
REMARK    5  A    between atoms: N_10  and  C_11
REMARK                            x       y       z     vdW  Elec       q    Type
REMARK                         _______ _______ _______ _____ _____    ______ ____
ROOT
ATOM      1  N   UNL     1       3.872   5.146  17.000  0.00  0.00    +0.000 N 
ATOM      2  H   UNL     1       3.428   4.528  16.311  0.00  0.00    +0.000 HD
ENDROOT
BRANCH   1   3
ATOM      3  C   UNL     1       2.999   5.417  18.114  0.00  0.00    +0.000 A 
ATOM      4  C   UNL     1       3.096   6.662  18.742  0.00  0.00    +0.000 A 
ATOM      5  C   UNL     1       2.399   6.893  19.922  0.00  0.00    +0.000 A 
ATOM      6  C   UNL     1       1.661   5.861  20.498  0.00  0.00    +0.000 A 
ATOM      7  C   UNL     1       1.580   4.604  19.871  0.00  0.00    +0.000 A 
ATOM      8  C   UNL     1       0.924   3.522  20.474  0.00  0.00    +0.000 A 
ATOM      9  C   UNL     1       0.867   2.296  19.823  0.00  0.00    +0.000 A 
ATOM     10  C   UNL     1       1.428   2.202  18.563  0.00  0.00    +0.000 A 
ATOM     11  N   UNL     1       2.077   3.216  17.953  0.00  0.00    +0.000 NA
ATOM     12  C   UNL     1       2.199   4.386  18.623  0.00  0.00    +0.000 A 
ENDBRANCH   1   3
BRANCH   1  13
ATOM     13  S   UNL     1       5.348   4.378  17.425  0.00  0.00    +0.000 S 
ATOM     14  O   UNL     1       5.851   3.775  16.209  0.00  0.00    +0.000 OA
ATOM     15  O   UNL     1       5.206   3.603  18.637  0.00  0.00    +0.000 OA
BRANCH  13  19
ATOM     16  C   UNL     1       8.144   7.872  18.351  0.00  0.00    +0.000 A 
ATOM     17  C   UNL     1       8.222   6.690  19.091  0.00  0.00    +0.000 A 
ATOM     18  C   UNL     1       7.372   5.620  18.808  0.00  0.00    +0.000 A 
ATOM     19  C   UNL     1       6.407   5.755  17.806  0.00  0.00    +0.000 A 
ATOM     20  C   UNL     1       6.332   6.928  17.050  0.00  0.00    +0.000 A 
ATOM     21  C   UNL     1       7.201   7.986  17.327  0.00  0.00    +0.000 A 
BRANCH  16  23
ATOM     22  C   UNL     1       8.751  10.162  18.260  0.00  0.00    +0.000 C 
ATOM     23  O   UNL     1       9.011   8.852  18.751  0.00  0.00    +0.000 OA
ENDBRANCH  16  23
ENDBRANCH  13  19
ENDBRANCH   1  13
TORSDOF 4
ENDMDL
MODEL 9
REMARK VINA RESULT:      -7.4      3.181      6.377
REMARK  Name = 
REMARK  5 active torsions:
REMARK  status: ('A' for Active; 'I' for Inactive)
REMARK    1  A    between atoms: C_1  and  O_2
REMARK    2  A    between atoms: O_2  and  C_3
REMARK    3  A    between atoms: C_6  and  S_7
REMARK    4  A    between atoms: S_7  and  N_10
REMARK    5  A    between atoms: N_10  and  C_11
REMARK                            x       y       z     vdW  Elec       q    Type
REMARK                         _______ _______ _______ _____ _____    ______ ____
ROOT
ATOM      1  N   UNL     1       6.099   4.284  18.548  0.00  0.00    +0.000 N 
ATOM      2  H   UNL     1       6.374   4.457  19.521  0.00  0.00    +0.000 HD
ENDROOT
BRANCH   1   3
ATOM      3  C   UNL     1       4.797   4.828  18.256  0.00  0.00    +0.000 A 
ATOM      4  C   UNL     1       4.681   6.210  18.080  0.00  0.00    +0.000 A 
ATOM      5  C   UNL     1       3.422   6.786  17.973  0.00  0.00    +0.000 A 
ATOM      6  C   UNL     1       2.287   5.988  18.105  0.00  0.00    +0.000 A 
ATOM      7  C   UNL     1       2.408   4.600  18.299  0.00  0.00    +0.000 A 
ATOM      8  C   UNL     1       1.288   3.790  18.530  0.00  0.00    +0.000 A 
ATOM      9  C   UNL     1       1.449   2.423  18.719  0.00  0.00    +0.000 A 
ATOM     10  C   UNL     1       2.725   1.899  18.624  0.00  0.00    +0.000 A 
ATOM     11  N   UNL     1       3.829   2.647  18.415  0.00  0.00    +0.000 NA
ATOM     12  C   UNL     1       3.677   3.987  18.309  0.00  0.00    +0.000 A 
ENDBRANCH   1   3
BRANCH   1  13
ATOM     13  S   UNL     1       7.370   4.928  17.589  0.00  0.00    +0.000 S 
ATOM     14  O   UNL     1       8.533   4.110  17.864  0.00  0.00    +0.000 OA
ATOM     15  O   UNL     1       7.430   6.368  17.698  0.00  0.00    +0.000 OA
BRANCH  13  19
ATOM     16  C   UNL     1       6.083   3.888  13.329  0.00  0.00    +0.000 A 
ATOM     17  C   UNL     1       7.142   4.772  13.552  0.00  0.00    +0.000 A 
ATOM     18  C   UNL     1       7.540   5.088  14.852  0.00  0.00    +0.000 A 
ATOM     19  C   UNL     1       6.839   4.550  15.935  0.00  0.00    +0.000 A 
ATOM     20  C   UNL     1       5.789   3.654  15.722  0.00  0.00    +0.000 A 
ATOM     21  C   UNL     1       5.411   3.326  14.418  0.00  0.00    +0.000 A 
BRANCH  16  23
ATOM     22  C   UNL     1       5.759   2.337  11.566  0.00  0.00    +0.000 C 
ATOM     23  O   UNL     1       5.775   3.689  12.011  0.00  0.00    +0.000 OA
ENDBRANCH  16  23
ENDBRANCH  13  19
ENDBRANCH   1  13
TORSDOF 4
ENDMDL
