MODEL 1
REMARK VINA RESULT:      -7.3      0.000      0.000
REMARK  Name = 
REMARK  8 active torsions:
REMARK  status: ('A' for Active; 'I' for Inactive)
REMARK    1  A    between atoms: C_1  and  C_2
REMARK    2  A    between atoms: C_2  and  N_3
REMARK    3  A    between atoms: C_6  and  C_7
REMARK    4  A    between atoms: N_9  and  C_10
REMARK    5  A    between atoms: N_9  and  C_11
REMARK    6  A    between atoms: C_17  and  O_18
REMARK    7  A    between atoms: C_21  and  S_22
REMARK    8  A    between atoms: S_22  and  C_23
REMARK                            x       y       z     vdW  Elec       q    Type
REMARK                         _______ _______ _______ _____ _____    ______ ____
ROOT
ATOM      1  N   UNL     1       2.756   5.677  20.012  0.00  0.00    +0.000 N 
ATOM      2  C   UNL     1       3.859   5.580  19.165  0.00  0.00    +0.000 A 
ATOM      3  O   UNL     1       4.835   4.891  19.441  0.00  0.00    +0.000 OA
ATOM      4  C   UNL     1       3.796   6.329  17.877  0.00  0.00    +0.000 A 
ATOM      5  C   UNL     1       3.012   7.438  17.869  0.00  0.00    +0.000 A 
ATOM      6  C   UNL     1       2.200   7.826  19.039  0.00  0.00    +0.000 A 
ATOM      7  C   UNL     1       1.561   9.081  19.117  0.00  0.00    +0.000 A 
ATOM      8  C   UNL     1       0.845   9.455  20.258  0.00  0.00    +0.000 A 
ATOM      9  C   UNL     1       0.722   8.546  21.308  0.00  0.00    +0.000 A 
ATOM     10  C   UNL     1       1.294   7.277  21.216  0.00  0.00    +0.000 A 
ATOM     11  C   UNL     1       2.053   6.914  20.092  0.00  0.00    +0.000 A 
ENDROOT
BRANCH   4  12
ATOM     12  C   UNL     1       4.630   6.036  16.640  0.00  0.00    +0.000 C 
ATOM     13  O   UNL     1       5.152   7.045  16.135  0.00  0.00    +0.000 OA
ATOM     14  N   UNL     1       4.739   4.771  16.028  0.00  0.00    +0.000 N 
ATOM     15  C   UNL     1       4.016   3.568  16.463  0.00  0.00    +0.000 C 
BRANCH  14  16
ATOM     16  C   UNL     1       5.622   4.570  14.870  0.00  0.00    +0.000 A 
ATOM     17  C   UNL     1       6.920   5.103  14.804  0.00  0.00    +0.000 A 
ATOM     18  C   UNL     1       7.747   4.921  13.686  0.00  0.00    +0.000 A 
ATOM     19  C   UNL     1       7.306   4.177  12.601  0.00  0.00    +0.000 A 
ATOM     20  C   UNL     1       6.040   3.614  12.638  0.00  0.00    +0.000 A 
ATOM     21  C   UNL     1       5.215   3.806  13.756  0.00  0.00    +0.000 A 
ENDBRANCH  14  16
ENDBRANCH   4  12
BRANCH   1  23
ATOM     22  C   UNL     1       1.430   3.629  20.470  0.00  0.00    +0.000 C 
ATOM     23  C   UNL     1       2.502   4.598  20.969  0.00  0.00    +0.000 C 
ENDBRANCH   1  23
BRANCH   5  24
ATOM     24  O   UNL     1       2.911   8.326  16.808  0.00  0.00    +0.000 OA
ATOM     25  H   UNL     1       2.255   7.962  16.168  0.00  0.00    +0.000 HD
ENDBRANCH   5  24
BRANCH   8  26
ATOM     26  S   UNL     1       0.031  11.035  20.402  0.00  0.00    +0.000 S 
ATOM     27  C   UNL     1      -1.199  10.898  19.077  0.00  0.00    +0.000 C 
ENDBRANCH   8  26
TORSDOF 5
ENDMDL
MODEL 2
REMARK VINA RESULT:      -7.2      0.642      1.152
REMARK  Name = 
REMARK  8 active torsions:
REMARK  status: ('A' for Active; 'I' for Inactive)
REMARK    1  A    between atoms: C_1  and  C_2
REMARK    2  A    between atoms: C_2  and  N_3
REMARK    3  A    between atoms: C_6  and  C_7
REMARK    4  A    between atoms: N_9  and  C_10
REMARK    5  A    between atoms: N_9  and  C_11
REMARK    6  A    between atoms: C_17  and  O_18
REMARK    7  A    between atoms: C_21  and  S_22
REMARK    8  A    between atoms: S_22  and  C_23
REMARK                            x       y       z     vdW  Elec       q    Type
REMARK                         _______ _______ _______ _____ _____    ______ ____
ROOT
ATOM      1  N   UNL     1       2.582   5.788  20.179  0.00  0.00    +0.000 N 
ATOM      2  C   UNL     1       3.695   5.688  19.344  0.00  0.00    +0.000 A 
ATOM      3  O   UNL     1       4.669   5.003  19.635  0.00  0.00    +0.000 OA
ATOM      4  C   UNL     1       3.645   6.430  18.051  0.00  0.00    +0.000 A 
ATOM      5  C   UNL     1       2.859   7.537  18.028  0.00  0.00    +0.000 A 
ATOM      6  C   UNL     1       2.033   7.930  19.187  0.00  0.00    +0.000 A 
ATOM      7  C   UNL     1       1.391   9.184  19.251  0.00  0.00    +0.000 A 
ATOM      8  C   UNL     1       0.662   9.563  20.382  0.00  0.00    +0.000 A 
ATOM      9  C   UNL     1       0.529   8.660  21.436  0.00  0.00    +0.000 A 
ATOM     10  C   UNL     1       1.104   7.391  21.358  0.00  0.00    +0.000 A 
ATOM     11  C   UNL     1       1.876   7.023  20.244  0.00  0.00    +0.000 A 
ENDROOT
BRANCH   4  12
ATOM     12  C   UNL     1       4.493   6.131  16.826  0.00  0.00    +0.000 C 
ATOM     13  O   UNL     1       5.002   7.141  16.308  0.00  0.00    +0.000 OA
ATOM     14  N   UNL     1       4.628   4.859  16.234  0.00  0.00    +0.000 N 
ATOM     15  C   UNL     1       3.923   3.651  16.683  0.00  0.00    +0.000 C 
BRANCH  14  16
ATOM     16  C   UNL     1       5.523   4.655  15.087  0.00  0.00    +0.000 A 
ATOM     17  C   UNL     1       5.156   3.892  13.965  0.00  0.00    +0.000 A 
ATOM     18  C   UNL     1       6.025   3.688  12.883  0.00  0.00    +0.000 A 
ATOM     19  C   UNL     1       7.289   4.261  12.880  0.00  0.00    +0.000 A 
ATOM     20  C   UNL     1       7.679   5.041  13.958  0.00  0.00    +0.000 A 
ATOM     21  C   UNL     1       6.808   5.236  15.040  0.00  0.00    +0.000 A 
ENDBRANCH  14  16
ENDBRANCH   4  12
BRANCH   1  23
ATOM     22  C   UNL     1       1.222   3.766  20.654  0.00  0.00    +0.000 C 
ATOM     23  C   UNL     1       2.320   4.714  21.138  0.00  0.00    +0.000 C 
ENDBRANCH   1  23
BRANCH   5  24
ATOM     24  O   UNL     1       2.767   8.419  16.961  0.00  0.00    +0.000 OA
ATOM     25  H   UNL     1       3.598   8.349  16.436  0.00  0.00    +0.000 HD
ENDBRANCH   5  24
BRANCH   8  26
ATOM     26  S   UNL     1      -0.157  11.142  20.509  0.00  0.00    +0.000 S 
ATOM     27  C   UNL     1      -0.791  11.054  22.205  0.00  0.00    +0.000 C 
ENDBRANCH   8  26
TORSDOF 5
ENDMDL
MODEL 3
REMARK VINA RESULT:      -6.4      0.947      1.165
REMARK  Name = 
REMARK  8 active torsions:
REMARK  status: ('A' for Active; 'I' for Inactive)
REMARK    1  A    between atoms: C_1  and  C_2
REMARK    2  A    between atoms: C_2  and  N_3
REMARK    3  A    between atoms: C_6  and  C_7
REMARK    4  A    between atoms: N_9  and  C_10
REMARK    5  A    between atoms: N_9  and  C_11
REMARK    6  A    between atoms: C_17  and  O_18
REMARK    7  A    between atoms: C_21  and  S_22
REMARK    8  A    between atoms: S_22  and  C_23
REMARK                            x       y       z     vdW  Elec       q    Type
REMARK                         _______ _______ _______ _____ _____    ______ ____
ROOT
ATOM      1  N   UNL     1       2.556   5.278  20.196  0.00  0.00    +0.000 N 
ATOM      2  C   UNL     1       3.591   4.953  19.318  0.00  0.00    +0.000 A 
ATOM      3  O   UNL     1       4.469   4.152  19.615  0.00  0.00    +0.000 OA
ATOM      4  C   UNL     1       3.573   5.600  17.975  0.00  0.00    +0.000 A 
ATOM      5  C   UNL     1       2.957   6.809  17.903  0.00  0.00    +0.000 A 
ATOM      6  C   UNL     1       2.268   7.403  19.066  0.00  0.00    +0.000 A 
ATOM      7  C   UNL     1       1.821   8.740  19.062  0.00  0.00    +0.000 A 
ATOM      8  C   UNL     1       1.223   9.303  20.193  0.00  0.00    +0.000 A 
ATOM      9  C   UNL     1       1.023   8.507  21.320  0.00  0.00    +0.000 A 
ATOM     10  C   UNL     1       1.401   7.164  21.314  0.00  0.00    +0.000 A 
ATOM     11  C   UNL     1       2.043   6.607  20.197  0.00  0.00    +0.000 A 
ENDROOT
BRANCH   4  12
ATOM     12  C   UNL     1       4.294   5.092  16.737  0.00  0.00    +0.000 C 
ATOM     13  O   UNL     1       3.780   4.076  16.238  0.00  0.00    +0.000 OA
ATOM     14  N   UNL     1       5.496   5.628  16.233  0.00  0.00    +0.000 N 
ATOM     15  C   UNL     1       6.255   6.715  16.865  0.00  0.00    +0.000 C 
BRANCH  14  16
ATOM     16  C   UNL     1       6.086   5.111  14.990  0.00  0.00    +0.000 A 
ATOM     17  C   UNL     1       7.322   5.558  14.494  0.00  0.00    +0.000 A 
ATOM     18  C   UNL     1       7.867   5.071  13.296  0.00  0.00    +0.000 A 
ATOM     19  C   UNL     1       7.198   4.100  12.565  0.00  0.00    +0.000 A 
ATOM     20  C   UNL     1       5.988   3.616  13.034  0.00  0.00    +0.000 A 
ATOM     21  C   UNL     1       5.444   4.112  14.229  0.00  0.00    +0.000 A 
ENDBRANCH  14  16
ENDBRANCH   4  12
BRANCH   1  23
ATOM     22  C   UNL     1       1.174   3.296  20.767  0.00  0.00    +0.000 C 
ATOM     23  C   UNL     1       2.197   4.326  21.248  0.00  0.00    +0.000 C 
ENDBRANCH   1  23
BRANCH   5  24
ATOM     24  O   UNL     1       2.932   7.617  16.776  0.00  0.00    +0.000 OA
ATOM     25  H   UNL     1       3.357   7.122  16.037  0.00  0.00    +0.000 HD
ENDBRANCH   5  24
BRANCH   8  26
ATOM     26  S   UNL     1       0.653  10.992  20.235  0.00  0.00    +0.000 S 
ATOM     27  C   UNL     1      -0.394  11.027  18.755  0.00  0.00    +0.000 C 
ENDBRANCH   8  26
TORSDOF 5
ENDMDL
MODEL 4
REMARK VINA RESULT:      -6.3      1.070      1.597
REMARK  Name = 
REMARK  8 active torsions:
REMARK  status: ('A' for Active; 'I' for Inactive)
REMARK    1  A    between atoms: C_1  and  C_2
REMARK    2  A    between atoms: C_2  and  N_3
REMARK    3  A    between atoms: C_6  and  C_7
REMARK    4  A    between atoms: N_9  and  C_10
REMARK    5  A    between atoms: N_9  and  C_11
REMARK    6  A    between atoms: C_17  and  O_18
REMARK    7  A    between atoms: C_21  and  S_22
REMARK    8  A    between atoms: S_22  and  C_23
REMARK                            x       y       z     vdW  Elec       q    Type
REMARK                         _______ _______ _______ _____ _____    ______ ____
ROOT
ATOM      1  N   UNL     1       2.608   5.166  20.164  0.00  0.00    +0.000 N 
ATOM      2  C   UNL     1       3.639   4.853  19.278  0.00  0.00    +0.000 A 
ATOM      3  O   UNL     1       4.519   4.047  19.559  0.00  0.00    +0.000 OA
ATOM      4  C   UNL     1       3.615   5.519  17.944  0.00  0.00    +0.000 A 
ATOM      5  C   UNL     1       2.999   6.728  17.891  0.00  0.00    +0.000 A 
ATOM      6  C   UNL     1       2.316   7.306  19.066  0.00  0.00    +0.000 A 
ATOM      7  C   UNL     1       1.869   8.643  19.082  0.00  0.00    +0.000 A 
ATOM      8  C   UNL     1       1.277   9.191  20.223  0.00  0.00    +0.000 A 
ATOM      9  C   UNL     1       1.082   8.380  21.340  0.00  0.00    +0.000 A 
ATOM     10  C   UNL     1       1.459   7.037  21.314  0.00  0.00    +0.000 A 
ATOM     11  C   UNL     1       2.096   6.495  20.186  0.00  0.00    +0.000 A 
ENDROOT
BRANCH   4  12
ATOM     12  C   UNL     1       4.330   5.027  16.696  0.00  0.00    +0.000 C 
ATOM     13  O   UNL     1       3.823   4.009  16.194  0.00  0.00    +0.000 OA
ATOM     14  N   UNL     1       5.521   5.580  16.184  0.00  0.00    +0.000 N 
ATOM     15  C   UNL     1       6.273   6.672  16.816  0.00  0.00    +0.000 C 
BRANCH  14  16
ATOM     16  C   UNL     1       6.105   5.078  14.932  0.00  0.00    +0.000 A 
ATOM     17  C   UNL     1       5.490   4.084  14.153  0.00  0.00    +0.000 A 
ATOM     18  C   UNL     1       6.066   3.598  12.969  0.00  0.00    +0.000 A 
ATOM     19  C   UNL     1       7.273   4.111  12.515  0.00  0.00    +0.000 A 
ATOM     20  C   UNL     1       7.899   5.110  13.243  0.00  0.00    +0.000 A 
ATOM     21  C   UNL     1       7.321   5.587  14.430  0.00  0.00    +0.000 A 
ENDBRANCH  14  16
ENDBRANCH   4  12
BRANCH   1  23
ATOM     22  C   UNL     1       1.127   3.266  20.763  0.00  0.00    +0.000 C 
ATOM     23  C   UNL     1       2.254   4.200  21.205  0.00  0.00    +0.000 C 
ENDBRANCH   1  23
BRANCH   5  24
ATOM     24  O   UNL     1       2.970   7.551  16.775  0.00  0.00    +0.000 OA
ATOM     25  H   UNL     1       3.899   7.709  16.487  0.00  0.00    +0.000 HD
ENDBRANCH   5  24
BRANCH   8  26
ATOM     26  S   UNL     1       0.708  10.880  20.290  0.00  0.00    +0.000 S 
ATOM     27  C   UNL     1      -0.153  10.878  21.886  0.00  0.00    +0.000 C 
ENDBRANCH   8  26
TORSDOF 5
ENDMDL
MODEL 5
REMARK VINA RESULT:      -6.3      4.336      9.025
REMARK  Name = 
REMARK  8 active torsions:
REMARK  status: ('A' for Active; 'I' for Inactive)
REMARK    1  A    between atoms: C_1  and  C_2
REMARK    2  A    between atoms: C_2  and  N_3
REMARK    3  A    between atoms: C_6  and  C_7
REMARK    4  A    between atoms: N_9  and  C_10
REMARK    5  A    between atoms: N_9  and  C_11
REMARK    6  A    between atoms: C_17  and  O_18
REMARK    7  A    between atoms: C_21  and  S_22
REMARK    8  A    between atoms: S_22  and  C_23
REMARK                            x       y       z     vdW  Elec       q    Type
REMARK                         _______ _______ _______ _____ _____    ______ ____
ROOT
ATOM      1  N   UNL     1       0.261   9.387  20.805  0.00  0.00    +0.000 N 
ATOM      2  C   UNL     1      -0.334  10.508  20.226  0.00  0.00    +0.000 A 
ATOM      3  O   UNL     1      -1.490  10.833  20.471  0.00  0.00    +0.000 OA
ATOM      4  C   UNL     1       0.509  11.329  19.311  0.00  0.00    +0.000 A 
ATOM      5  C   UNL     1       1.515  10.673  18.676  0.00  0.00    +0.000 A 
ATOM      6  C   UNL     1       1.811   9.252  18.946  0.00  0.00    +0.000 A 
ATOM      7  C   UNL     1       2.700   8.511  18.141  0.00  0.00    +0.000 A 
ATOM      8  C   UNL     1       2.922   7.152  18.376  0.00  0.00    +0.000 A 
ATOM      9  C   UNL     1       2.291   6.540  19.458  0.00  0.00    +0.000 A 
ATOM     10  C   UNL     1       1.460   7.277  20.302  0.00  0.00    +0.000 A 
ATOM     11  C   UNL     1       1.198   8.631  20.043  0.00  0.00    +0.000 A 
ENDROOT
BRANCH   4  12
ATOM     12  C   UNL     1       0.254  12.779  18.933  0.00  0.00    +0.000 C 
ATOM     13  O   UNL     1      -0.472  12.918  17.932  0.00  0.00    +0.000 OA
ATOM     14  N   UNL     1       0.850  13.890  19.564  0.00  0.00    +0.000 N 
ATOM     15  C   UNL     1       1.849  13.802  20.638  0.00  0.00    +0.000 C 
BRANCH  14  16
ATOM     16  C   UNL     1       0.492  15.260  19.171  0.00  0.00    +0.000 A 
ATOM     17  C   UNL     1      -0.752  15.836  19.478  0.00  0.00    +0.000 A 
ATOM     18  C   UNL     1      -1.091  17.139  19.082  0.00  0.00    +0.000 A 
ATOM     19  C   UNL     1      -0.182  17.917  18.379  0.00  0.00    +0.000 A 
ATOM     20  C   UNL     1       1.065  17.392  18.077  0.00  0.00    +0.000 A 
ATOM     21  C   UNL     1       1.395  16.086  18.471  0.00  0.00    +0.000 A 
ENDBRANCH  14  16
ENDBRANCH   4  12
BRANCH   1  23
ATOM     22  C   UNL     1       0.326   9.607  23.276  0.00  0.00    +0.000 C 
ATOM     23  C   UNL     1      -0.270   8.880  22.071  0.00  0.00    +0.000 C 
ENDBRANCH   1  23
BRANCH   5  24
ATOM     24  O   UNL     1       2.334  11.232  17.706  0.00  0.00    +0.000 OA
ATOM     25  H   UNL     1       2.726  10.498  17.178  0.00  0.00    +0.000 HD
ENDBRANCH   5  24
BRANCH   8  26
ATOM     26  S   UNL     1       4.030   6.176  17.375  0.00  0.00    +0.000 S 
ATOM     27  C   UNL     1       3.637   4.509  17.972  0.00  0.00    +0.000 C 
ENDBRANCH   8  26
TORSDOF 5
ENDMDL
MODEL 6
REMARK VINA RESULT:      -6.2      3.477      6.238
REMARK  Name = 
REMARK  8 active torsions:
REMARK  status: ('A' for Active; 'I' for Inactive)
REMARK    1  A    between atoms: C_1  and  C_2
REMARK    2  A    between atoms: C_2  and  N_3
REMARK    3  A    between atoms: C_6  and  C_7
REMARK    4  A    between atoms: N_9  and  C_10
REMARK    5  A    between atoms: N_9  and  C_11
REMARK    6  A    between atoms: C_17  and  O_18
REMARK    7  A    between atoms: C_21  and  S_22
REMARK    8  A    between atoms: S_22  and  C_23
REMARK                            x       y       z     vdW  Elec       q    Type
REMARK                         _______ _______ _______ _____ _____    ______ ____
ROOT
ATOM      1  N   UNL     1      -0.915  11.655  20.781  0.00  0.00    +0.000 N 
ATOM      2  C   UNL     1       0.247  11.214  20.146  0.00  0.00    +0.000 A 
ATOM      3  O   UNL     1       1.358  11.624  20.461  0.00  0.00    +0.000 OA
ATOM      4  C   UNL     1       0.090  10.187  19.076  0.00  0.00    +0.000 A 
ATOM      5  C   UNL     1      -1.101  10.183  18.424  0.00  0.00    +0.000 A 
ATOM      6  C   UNL     1      -2.207  11.081  18.812  0.00  0.00    +0.000 A 
ATOM      7  C   UNL     1      -3.356  11.236  18.010  0.00  0.00    +0.000 A 
ATOM      8  C   UNL     1      -4.365  12.136  18.364  0.00  0.00    +0.000 A 
ATOM      9  C   UNL     1      -4.249  12.847  19.557  0.00  0.00    +0.000 A 
ATOM     10  C   UNL     1      -3.149  12.655  20.393  0.00  0.00    +0.000 A 
ATOM     11  C   UNL     1      -2.111  11.786  20.019  0.00  0.00    +0.000 A 
ENDROOT
BRANCH   4  12
ATOM     12  C   UNL     1       1.182   9.257  18.575  0.00  0.00    +0.000 C 
ATOM     13  O   UNL     1       1.508   9.456  17.391  0.00  0.00    +0.000 OA
ATOM     14  N   UNL     1       1.724   8.186  19.313  0.00  0.00    +0.000 N 
ATOM     15  C   UNL     1       1.271   7.780  20.650  0.00  0.00    +0.000 C 
BRANCH  14  16
ATOM     16  C   UNL     1       2.825   7.378  18.768  0.00  0.00    +0.000 A 
ATOM     17  C   UNL     1       3.496   7.714  17.579  0.00  0.00    +0.000 A 
ATOM     18  C   UNL     1       4.532   6.925  17.058  0.00  0.00    +0.000 A 
ATOM     19  C   UNL     1       4.947   5.781  17.725  0.00  0.00    +0.000 A 
ATOM     20  C   UNL     1       4.326   5.430  18.913  0.00  0.00    +0.000 A 
ATOM     21  C   UNL     1       3.285   6.219  19.426  0.00  0.00    +0.000 A 
ENDBRANCH  14  16
ENDBRANCH   4  12
BRANCH   1  23
ATOM     22  C   UNL     1      -1.218  11.173  23.197  0.00  0.00    +0.000 C 
ATOM     23  C   UNL     1      -0.816  12.198  22.137  0.00  0.00    +0.000 C 
ENDBRANCH   1  23
BRANCH   5  24
ATOM     24  O   UNL     1      -1.399   9.383  17.329  0.00  0.00    +0.000 OA
ATOM     25  H   UNL     1      -0.655   8.750  17.203  0.00  0.00    +0.000 HD
ENDBRANCH   5  24
BRANCH   8  26
ATOM     26  S   UNL     1      -5.829  12.371  17.373  0.00  0.00    +0.000 S 
ATOM     27  C   UNL     1      -7.100  11.738  18.501  0.00  0.00    +0.000 C 
ENDBRANCH   8  26
TORSDOF 5
ENDMDL
MODEL 7
REMARK VINA RESULT:      -6.2      4.424      8.772
REMARK  Name = 
REMARK  8 active torsions:
REMARK  status: ('A' for Active; 'I' for Inactive)
REMARK    1  A    between atoms: C_1  and  C_2
REMARK    2  A    between atoms: C_2  and  N_3
REMARK    3  A    between atoms: C_6  and  C_7
REMARK    4  A    between atoms: N_9  and  C_10
REMARK    5  A    between atoms: N_9  and  C_11
REMARK    6  A    between atoms: C_17  and  O_18
REMARK    7  A    between atoms: C_21  and  S_22
REMARK    8  A    between atoms: S_22  and  C_23
REMARK                            x       y       z     vdW  Elec       q    Type
REMARK                         _______ _______ _______ _____ _____    ______ ____
ROOT
ATOM      1  N   UNL     1       0.860   9.811  21.315  0.00  0.00    +0.000 N 
ATOM      2  C   UNL     1       0.269  10.923  20.715  0.00  0.00    +0.000 A 
ATOM      3  O   UNL     1      -0.711  11.480  21.196  0.00  0.00    +0.000 OA
ATOM      4  C   UNL     1       0.899  11.437  19.465  0.00  0.00    +0.000 A 
ATOM      5  C   UNL     1       1.578  10.526  18.721  0.00  0.00    +0.000 A 
ATOM      6  C   UNL     1       1.756   9.131  19.169  0.00  0.00    +0.000 A 
ATOM      7  C   UNL     1       2.264   8.134  18.311  0.00  0.00    +0.000 A 
ATOM      8  C   UNL     1       2.370   6.806  18.734  0.00  0.00    +0.000 A 
ATOM      9  C   UNL     1       2.017   6.482  20.043  0.00  0.00    +0.000 A 
ATOM     10  C   UNL     1       1.576   7.471  20.922  0.00  0.00    +0.000 A 
ATOM     11  C   UNL     1       1.424   8.797  20.488  0.00  0.00    +0.000 A 
ENDROOT
BRANCH   4  12
ATOM     12  C   UNL     1       0.731  12.837  18.900  0.00  0.00    +0.000 C 
ATOM     13  O   UNL     1       0.002  12.889  17.894  0.00  0.00    +0.000 OA
ATOM     14  N   UNL     1       1.405  13.981  19.374  0.00  0.00    +0.000 N 
ATOM     15  C   UNL     1       2.410  13.972  20.445  0.00  0.00    +0.000 C 
BRANCH  14  16
ATOM     16  C   UNL     1       1.128  15.307  18.804  0.00  0.00    +0.000 A 
ATOM     17  C   UNL     1       2.112  16.078  18.163  0.00  0.00    +0.000 A 
ATOM     18  C   UNL     1       1.842  17.351  17.639  0.00  0.00    +0.000 A 
ATOM     19  C   UNL     1       0.565  17.887  17.723  0.00  0.00    +0.000 A 
ATOM     20  C   UNL     1      -0.439  17.147  18.328  0.00  0.00    +0.000 A 
ATOM     21  C   UNL     1      -0.161  15.878  18.855  0.00  0.00    +0.000 A 
ENDBRANCH  14  16
ENDBRANCH   4  12
BRANCH   1  23
ATOM     22  C   UNL     1      -0.755   9.153  23.082  0.00  0.00    +0.000 C 
ATOM     23  C   UNL     1       0.669   9.598  22.751  0.00  0.00    +0.000 C 
ENDBRANCH   1  23
BRANCH   5  24
ATOM     24  O   UNL     1       2.136  10.782  17.477  0.00  0.00    +0.000 OA
ATOM     25  H   UNL     1       1.421  11.108  16.883  0.00  0.00    +0.000 HD
ENDBRANCH   5  24
BRANCH   8  26
ATOM     26  S   UNL     1       2.996   5.512  17.678  0.00  0.00    +0.000 S 
ATOM     27  C   UNL     1       4.685   6.104  17.390  0.00  0.00    +0.000 C 
ENDBRANCH   8  26
TORSDOF 5
ENDMDL
MODEL 8
REMARK VINA RESULT:      -6.2      3.588      6.487
REMARK  Name = 
REMARK  8 active torsions:
REMARK  status: ('A' for Active; 'I' for Inactive)
REMARK    1  A    between atoms: C_1  and  C_2
REMARK    2  A    between atoms: C_2  and  N_3
REMARK    3  A    between atoms: C_6  and  C_7
REMARK    4  A    between atoms: N_9  and  C_10
REMARK    5  A    between atoms: N_9  and  C_11
REMARK    6  A    between atoms: C_17  and  O_18
REMARK    7  A    between atoms: C_21  and  S_22
REMARK    8  A    between atoms: S_22  and  C_23
REMARK                            x       y       z     vdW  Elec       q    Type
REMARK                         _______ _______ _______ _____ _____    ______ ____
ROOT
ATOM      1  N   UNL     1      -1.124  12.012  19.281  0.00  0.00    +0.000 N 
ATOM      2  C   UNL     1      -0.458  10.796  19.438  0.00  0.00    +0.000 A 
ATOM      3  O   UNL     1      -0.904   9.895  20.140  0.00  0.00    +0.000 OA
ATOM      4  C   UNL     1       0.816  10.615  18.686  0.00  0.00    +0.000 A 
ATOM      5  C   UNL     1       1.505  11.749  18.397  0.00  0.00    +0.000 A 
ATOM      6  C   UNL     1       0.977  13.087  18.729  0.00  0.00    +0.000 A 
ATOM      7  C   UNL     1       1.775  14.246  18.634  0.00  0.00    +0.000 A 
ATOM      8  C   UNL     1       1.276  15.497  19.009  0.00  0.00    +0.000 A 
ATOM      9  C   UNL     1      -0.048  15.598  19.433  0.00  0.00    +0.000 A 
ATOM     10  C   UNL     1      -0.868  14.470  19.470  0.00  0.00    +0.000 A 
ATOM     11  C   UNL     1      -0.358  13.204  19.137  0.00  0.00    +0.000 A 
ENDROOT
BRANCH   4  12
ATOM     12  C   UNL     1       1.462   9.282  18.345  0.00  0.00    +0.000 C 
ATOM     13  O   UNL     1       1.523   9.050  17.125  0.00  0.00    +0.000 OA
ATOM     14  N   UNL     1       1.868   8.322  19.293  0.00  0.00    +0.000 N 
ATOM     15  C   UNL     1       1.673   8.447  20.744  0.00  0.00    +0.000 C 
BRANCH  14  16
ATOM     16  C   UNL     1       2.544   7.086  18.871  0.00  0.00    +0.000 A 
ATOM     17  C   UNL     1       3.540   7.067  17.880  0.00  0.00    +0.000 A 
ATOM     18  C   UNL     1       4.165   5.880  17.470  0.00  0.00    +0.000 A 
ATOM     19  C   UNL     1       3.825   4.670  18.059  0.00  0.00    +0.000 A 
ATOM     20  C   UNL     1       2.864   4.651  19.057  0.00  0.00    +0.000 A 
ATOM     21  C   UNL     1       2.238   5.841  19.457  0.00  0.00    +0.000 A 
ENDBRANCH  14  16
ENDBRANCH   4  12
BRANCH   1  23
ATOM     22  C   UNL     1      -3.361  11.588  18.292  0.00  0.00    +0.000 C 
ATOM     23  C   UNL     1      -2.569  12.062  19.510  0.00  0.00    +0.000 C 
ENDBRANCH   1  23
BRANCH   5  24
ATOM     24  O   UNL     1       2.760  11.782  17.806  0.00  0.00    +0.000 OA
ATOM     25  H   UNL     1       2.995  12.725  17.643  0.00  0.00    +0.000 HD
ENDBRANCH   5  24
BRANCH   8  26
ATOM     26  S   UNL     1       2.254  16.985  18.914  0.00  0.00    +0.000 S 
ATOM     27  C   UNL     1       3.488  16.494  17.679  0.00  0.00    +0.000 C 
ENDBRANCH   8  26
TORSDOF 5
ENDMDL
MODEL 9
REMARK VINA RESULT:      -6.2      2.802      7.634
REMARK  Name = 
REMARK  8 active torsions:
REMARK  status: ('A' for Active; 'I' for Inactive)
REMARK    1  A    between atoms: C_1  and  C_2
REMARK    2  A    between atoms: C_2  and  N_3
REMARK    3  A    between atoms: C_6  and  C_7
REMARK    4  A    between atoms: N_9  and  C_10
REMARK    5  A    between atoms: N_9  and  C_11
REMARK    6  A    between atoms: C_17  and  O_18
REMARK    7  A    between atoms: C_21  and  S_22
REMARK    8  A    between atoms: S_22  and  C_23
REMARK                            x       y       z     vdW  Elec       q    Type
REMARK                         _______ _______ _______ _____ _____    ______ ____
ROOT
ATOM      1  N   UNL     1       3.463   3.879  17.507  0.00  0.00    +0.000 N 
ATOM      2  C   UNL     1       2.538   4.875  17.826  0.00  0.00    +0.000 A 
ATOM      3  O   UNL     1       1.356   4.626  18.028  0.00  0.00    +0.000 OA
ATOM      4  C   UNL     1       3.054   6.269  17.946  0.00  0.00    +0.000 A 
ATOM      5  C   UNL     1       4.163   6.560  17.218  0.00  0.00    +0.000 A 
ATOM      6  C   UNL     1       4.867   5.532  16.425  0.00  0.00    +0.000 A 
ATOM      7  C   UNL     1       5.877   5.869  15.501  0.00  0.00    +0.000 A 
ATOM      8  C   UNL     1       6.491   4.889  14.717  0.00  0.00    +0.000 A 
ATOM      9  C   UNL     1       6.130   3.554  14.895  0.00  0.00    +0.000 A 
ATOM     10  C   UNL     1       5.178   3.201  15.852  0.00  0.00    +0.000 A 
ATOM     11  C   UNL     1       4.526   4.186  16.610  0.00  0.00    +0.000 A 
ENDROOT
BRANCH   4  12
ATOM     12  C   UNL     1       2.374   7.403  18.694  0.00  0.00    +0.000 C 
ATOM     13  O   UNL     1       2.320   8.468  18.053  0.00  0.00    +0.000 OA
ATOM     14  N   UNL     1       1.928   7.331  20.029  0.00  0.00    +0.000 N 
ATOM     15  C   UNL     1       2.111   6.167  20.907  0.00  0.00    +0.000 C 
BRANCH  14  16
ATOM     16  C   UNL     1       1.222   8.461  20.649  0.00  0.00    +0.000 A 
ATOM     17  C   UNL     1       1.137   8.631  22.041  0.00  0.00    +0.000 A 
ATOM     18  C   UNL     1       0.444   9.703  22.623  0.00  0.00    +0.000 A 
ATOM     19  C   UNL     1      -0.172  10.656  21.824  0.00  0.00    +0.000 A 
ATOM     20  C   UNL     1      -0.090  10.536  20.445  0.00  0.00    +0.000 A 
ATOM     21  C   UNL     1       0.599   9.458  19.870  0.00  0.00    +0.000 A 
ENDBRANCH  14  16
ENDBRANCH   4  12
BRANCH   1  23
ATOM     22  C   UNL     1       3.779   2.156  19.265  0.00  0.00    +0.000 C 
ATOM     23  C   UNL     1       3.178   2.499  17.902  0.00  0.00    +0.000 C 
ENDBRANCH   1  23
BRANCH   5  24
ATOM     24  O   UNL     1       4.727   7.823  17.108  0.00  0.00    +0.000 OA
ATOM     25  H   UNL     1       4.937   8.142  18.016  0.00  0.00    +0.000 HD
ENDBRANCH   5  24
BRANCH   8  26
ATOM     26  S   UNL     1       7.766   5.272  13.529  0.00  0.00    +0.000 S 
ATOM     27  C   UNL     1       7.209   4.285  12.114  0.00  0.00    +0.000 C 
ENDBRANCH   8  26
TORSDOF 5
ENDMDL
