MODEL 1
REMARK VINA RESULT:      -8.5      0.000      0.000
REMARK  Name = 
REMARK  4 active torsions:
REMARK  status: ('A' for Active; 'I' for Inactive)
REMARK    1  A    between atoms: C_2  and  O_3
REMARK    2  A    between atoms: C_2  and  C_13
REMARK    3  A    between atoms: O_3  and  C_4
REMARK    4  A    between atoms: C_4  and  C_5
REMARK                            x       y       z     vdW  Elec       q    Type
REMARK                         _______ _______ _______ _____ _____    ______ ____
ROOT
ATOM      1  O   UNL     1       5.253   4.632  19.139  0.00  0.00    +0.000 OA
ATOM      2  C   UNL     1       4.873   5.152  18.099  0.00  0.00    +0.000 C 
ENDROOT
BRANCH   2   3
ATOM      3  C   UNL     1       5.657   5.121  16.836  0.00  0.00    +0.000 A 
ATOM      4  C   UNL     1       5.097   4.459  15.806  0.00  0.00    +0.000 A 
ATOM      5  C   UNL     1       5.786   4.344  14.530  0.00  0.00    +0.000 A 
ATOM      6  C   UNL     1       5.287   3.579  13.474  0.00  0.00    +0.000 A 
ATOM      7  C   UNL     1       5.992   3.509  12.266  0.00  0.00    +0.000 A 
ATOM      8  C   UNL     1       7.188   4.214  12.106  0.00  0.00    +0.000 A 
ATOM      9  C   UNL     1       7.689   4.978  13.157  0.00  0.00    +0.000 A 
ATOM     10  C   UNL     1       6.985   5.022  14.358  0.00  0.00    +0.000 A 
ATOM     11  O   UNL     1       7.549   5.755  15.414  0.00  0.00    +0.000 OA
ATOM     12  C   UNL     1       6.994   5.746  16.692  0.00  0.00    +0.000 A 
ATOM     13  O   UNL     1       7.618   6.233  17.629  0.00  0.00    +0.000 OA
ENDBRANCH   2   3
BRANCH   2  14
ATOM     14  O   UNL     1       3.695   5.792  17.935  0.00  0.00    +0.000 OA
BRANCH  14  15
ATOM     15  C   UNL     1       2.907   6.060  19.109  0.00  0.00    +0.000 C 
BRANCH  15  16
ATOM     16  C   UNL     1       2.320   7.448  19.044  0.00  0.00    +0.000 A 
ATOM     17  C   UNL     1       2.411   8.244  17.893  0.00  0.00    +0.000 A 
ATOM     18  C   UNL     1       1.837   9.519  17.859  0.00  0.00    +0.000 A 
ATOM     19  C   UNL     1       1.153  10.001  18.972  0.00  0.00    +0.000 A 
ATOM     20 BR   UNL     1       0.384  11.727  18.926  0.00  0.00    +0.000 Br
ATOM     21  C   UNL     1       1.027   9.219  20.115  0.00  0.00    +0.000 A 
ATOM     22  C   UNL     1       1.606   7.952  20.137  0.00  0.00    +0.000 A 
ATOM     23  F   UNL     1       1.461   7.201  21.239  0.00  0.00    +0.000 F 
ENDBRANCH  15  16
ENDBRANCH  14  15
ENDBRANCH   2  14
TORSDOF 4
ENDMDL
MODEL 2
REMARK VINA RESULT:      -8.4      1.163      1.565
REMARK  Name = 
REMARK  4 active torsions:
REMARK  status: ('A' for Active; 'I' for Inactive)
REMARK    1  A    between atoms: C_2  and  O_3
REMARK    2  A    between atoms: C_2  and  C_13
REMARK    3  A    between atoms: O_3  and  C_4
REMARK    4  A    between atoms: C_4  and  C_5
REMARK                            x       y       z     vdW  Elec       q    Type
REMARK                         _______ _______ _______ _____ _____    ______ ____
ROOT
ATOM      1  O   UNL     1       5.440   3.860  19.031  0.00  0.00    +0.000 OA
ATOM      2  C   UNL     1       5.288   4.800  18.263  0.00  0.00    +0.000 C 
ENDROOT
BRANCH   2   3
ATOM      3  C   UNL     1       5.952   4.885  16.935  0.00  0.00    +0.000 A 
ATOM      4  C   UNL     1       5.365   4.204  15.933  0.00  0.00    +0.000 A 
ATOM      5  C   UNL     1       5.942   4.198  14.597  0.00  0.00    +0.000 A 
ATOM      6  C   UNL     1       5.423   3.421  13.559  0.00  0.00    +0.000 A 
ATOM      7  C   UNL     1       6.018   3.459  12.293  0.00  0.00    +0.000 A 
ATOM      8  C   UNL     1       7.122   4.282  12.056  0.00  0.00    +0.000 A 
ATOM      9  C   UNL     1       7.643   5.059  13.088  0.00  0.00    +0.000 A 
ATOM     10  C   UNL     1       7.051   4.996  14.347  0.00  0.00    +0.000 A 
ATOM     11  O   UNL     1       7.637   5.746  15.379  0.00  0.00    +0.000 OA
ATOM     12  C   UNL     1       7.205   5.643  16.699  0.00  0.00    +0.000 A 
ATOM     13  O   UNL     1       7.863   6.159  17.596  0.00  0.00    +0.000 OA
ENDBRANCH   2   3
BRANCH   2  14
ATOM     14  O   UNL     1       4.485   5.864  18.484  0.00  0.00    +0.000 OA
BRANCH  14  15
ATOM     15  C   UNL     1       3.067   5.633  18.549  0.00  0.00    +0.000 C 
BRANCH  15  16
ATOM     16  C   UNL     1       2.363   6.833  19.133  0.00  0.00    +0.000 A 
ATOM     17  C   UNL     1       1.845   6.833  20.436  0.00  0.00    +0.000 A 
ATOM     18  C   UNL     1       1.217   7.971  20.955  0.00  0.00    +0.000 A 
ATOM     19  C   UNL     1       1.119   9.123  20.178  0.00  0.00    +0.000 A 
ATOM     20 BR   UNL     1       0.265  10.657  20.879  0.00  0.00    +0.000 Br
ATOM     21  C   UNL     1       1.649   9.154  18.893  0.00  0.00    +0.000 A 
ATOM     22  C   UNL     1       2.269   8.014  18.387  0.00  0.00    +0.000 A 
ATOM     23  F   UNL     1       2.793   8.063  17.153  0.00  0.00    +0.000 F 
ENDBRANCH  15  16
ENDBRANCH  14  15
ENDBRANCH   2  14
TORSDOF 4
ENDMDL
MODEL 3
REMARK VINA RESULT:      -8.1      1.476      1.805
REMARK  Name = 
REMARK  4 active torsions:
REMARK  status: ('A' for Active; 'I' for Inactive)
REMARK    1  A    between atoms: C_2  and  O_3
REMARK    2  A    between atoms: C_2  and  C_13
REMARK    3  A    between atoms: O_3  and  C_4
REMARK    4  A    between atoms: C_4  and  C_5
REMARK                            x       y       z     vdW  Elec       q    Type
REMARK                         _______ _______ _______ _____ _____    ______ ____
ROOT
ATOM      1  O   UNL     1       5.638   5.187  19.128  0.00  0.00    +0.000 OA
ATOM      2  C   UNL     1       5.242   4.675  18.090  0.00  0.00    +0.000 C 
ENDROOT
BRANCH   2   3
ATOM      3  C   UNL     1       5.943   4.822  16.787  0.00  0.00    +0.000 A 
ATOM      4  C   UNL     1       5.432   4.124  15.756  0.00  0.00    +0.000 A 
ATOM      5  C   UNL     1       6.051   4.174  14.441  0.00  0.00    +0.000 A 
ATOM      6  C   UNL     1       5.614   3.385  13.374  0.00  0.00    +0.000 A 
ATOM      7  C   UNL     1       6.247   3.479  12.129  0.00  0.00    +0.000 A 
ATOM      8  C   UNL     1       7.306   4.370  11.942  0.00  0.00    +0.000 A 
ATOM      9  C   UNL     1       7.745   5.160  13.002  0.00  0.00    +0.000 A 
ATOM     10  C   UNL     1       7.117   5.041  14.240  0.00  0.00    +0.000 A 
ATOM     11  O   UNL     1       7.623   5.808  15.301  0.00  0.00    +0.000 OA
ATOM     12  C   UNL     1       7.155   5.657  16.604  0.00  0.00    +0.000 A 
ATOM     13  O   UNL     1       7.751   6.196  17.531  0.00  0.00    +0.000 OA
ENDBRANCH   2   3
BRANCH   2  14
ATOM     14  O   UNL     1       4.148   3.889  17.979  0.00  0.00    +0.000 OA
BRANCH  14  15
ATOM     15  C   UNL     1       2.915   4.507  17.571  0.00  0.00    +0.000 C 
BRANCH  15  16
ATOM     16  C   UNL     1       2.516   5.583  18.551  0.00  0.00    +0.000 A 
ATOM     17  C   UNL     1       2.538   6.944  18.214  0.00  0.00    +0.000 A 
ATOM     18  C   UNL     1       2.140   7.916  19.139  0.00  0.00    +0.000 A 
ATOM     19  C   UNL     1       1.703   7.530  20.404  0.00  0.00    +0.000 A 
ATOM     20 BR   UNL     1       1.173   8.844  21.654  0.00  0.00    +0.000 Br
ATOM     21  C   UNL     1       1.648   6.185  20.751  0.00  0.00    +0.000 A 
ATOM     22  C   UNL     1       2.049   5.227  19.821  0.00  0.00    +0.000 A 
ATOM     23  F   UNL     1       1.973   3.932  20.162  0.00  0.00    +0.000 F 
ENDBRANCH  15  16
ENDBRANCH  14  15
ENDBRANCH   2  14
TORSDOF 4
ENDMDL
MODEL 4
REMARK VINA RESULT:      -7.9      3.445      6.715
REMARK  Name = 
REMARK  4 active torsions:
REMARK  status: ('A' for Active; 'I' for Inactive)
REMARK    1  A    between atoms: C_2  and  O_3
REMARK    2  A    between atoms: C_2  and  C_13
REMARK    3  A    between atoms: O_3  and  C_4
REMARK    4  A    between atoms: C_4  and  C_5
REMARK                            x       y       z     vdW  Elec       q    Type
REMARK                         _______ _______ _______ _____ _____    ______ ____
ROOT
ATOM      1  O   UNL     1       3.247   2.978  19.225  0.00  0.00    +0.000 OA
ATOM      2  C   UNL     1       3.195   3.999  18.553  0.00  0.00    +0.000 C 
ENDROOT
BRANCH   2   3
ATOM      3  C   UNL     1       2.653   5.287  19.064  0.00  0.00    +0.000 A 
ATOM      4  C   UNL     1       2.613   6.304  18.184  0.00  0.00    +0.000 A 
ATOM      5  C   UNL     1       2.124   7.615  18.582  0.00  0.00    +0.000 A 
ATOM      6  C   UNL     1       2.163   8.721  17.730  0.00  0.00    +0.000 A 
ATOM      7  C   UNL     1       1.674   9.958  18.166  0.00  0.00    +0.000 A 
ATOM      8  C   UNL     1       1.132  10.090  19.447  0.00  0.00    +0.000 A 
ATOM      9  C   UNL     1       1.090   8.990  20.301  0.00  0.00    +0.000 A 
ATOM     10  C   UNL     1       1.598   7.771  19.857  0.00  0.00    +0.000 A 
ATOM     11  O   UNL     1       1.594   6.698  20.763  0.00  0.00    +0.000 OA
ATOM     12  C   UNL     1       2.204   5.482  20.464  0.00  0.00    +0.000 A 
ATOM     13  O   UNL     1       2.352   4.643  21.346  0.00  0.00    +0.000 OA
ENDBRANCH   2   3
BRANCH   2  14
ATOM     14  O   UNL     1       3.642   4.119  17.283  0.00  0.00    +0.000 OA
BRANCH  14  15
ATOM     15  C   UNL     1       5.031   3.844  17.032  0.00  0.00    +0.000 C 
BRANCH  15  16
ATOM     16  C   UNL     1       5.875   5.052  17.357  0.00  0.00    +0.000 A 
ATOM     17  C   UNL     1       6.844   5.034  18.370  0.00  0.00    +0.000 A 
ATOM     18  C   UNL     1       7.625   6.165  18.631  0.00  0.00    +0.000 A 
ATOM     19  C   UNL     1       7.453   7.318  17.868  0.00  0.00    +0.000 A 
ATOM     20 BR   UNL     1       8.504   8.846  18.227  0.00  0.00    +0.000 Br
ATOM     21  C   UNL     1       6.516   7.349  16.841  0.00  0.00    +0.000 A 
ATOM     22  C   UNL     1       5.743   6.217  16.593  0.00  0.00    +0.000 A 
ATOM     23  F   UNL     1       4.856   6.255  15.587  0.00  0.00    +0.000 F 
ENDBRANCH  15  16
ENDBRANCH  14  15
ENDBRANCH   2  14
TORSDOF 4
ENDMDL
MODEL 5
REMARK VINA RESULT:      -7.7      4.432      7.214
REMARK  Name = 
REMARK  4 active torsions:
REMARK  status: ('A' for Active; 'I' for Inactive)
REMARK    1  A    between atoms: C_2  and  O_3
REMARK    2  A    between atoms: C_2  and  C_13
REMARK    3  A    between atoms: O_3  and  C_4
REMARK    4  A    between atoms: C_4  and  C_5
REMARK                            x       y       z     vdW  Elec       q    Type
REMARK                         _______ _______ _______ _____ _____    ______ ____
ROOT
ATOM      1  O   UNL     1       6.247   7.870  17.859  0.00  0.00    +0.000 OA
ATOM      2  C   UNL     1       5.927   6.861  17.246  0.00  0.00    +0.000 C 
ENDROOT
BRANCH   2   3
ATOM      3  C   UNL     1       5.258   5.695  17.884  0.00  0.00    +0.000 A 
ATOM      4  C   UNL     1       3.981   5.473  17.522  0.00  0.00    +0.000 A 
ATOM      5  C   UNL     1       3.222   4.375  18.100  0.00  0.00    +0.000 A 
ATOM      6  C   UNL     1       1.866   4.175  17.830  0.00  0.00    +0.000 A 
ATOM      7  C   UNL     1       1.188   3.099  18.413  0.00  0.00    +0.000 A 
ATOM      8  C   UNL     1       1.864   2.211  19.254  0.00  0.00    +0.000 A 
ATOM      9  C   UNL     1       3.216   2.406  19.526  0.00  0.00    +0.000 A 
ATOM     10  C   UNL     1       3.872   3.493  18.953  0.00  0.00    +0.000 A 
ATOM     11  O   UNL     1       5.218   3.693  19.295  0.00  0.00    +0.000 OA
ATOM     12  C   UNL     1       5.920   4.825  18.886  0.00  0.00    +0.000 A 
ATOM     13  O   UNL     1       7.024   5.062  19.364  0.00  0.00    +0.000 OA
ENDBRANCH   2   3
BRANCH   2  14
ATOM     14  O   UNL     1       6.098   6.669  15.920  0.00  0.00    +0.000 OA
BRANCH  14  15
ATOM     15  C   UNL     1       7.222   5.878  15.496  0.00  0.00    +0.000 C 
BRANCH  15  16
ATOM     16  C   UNL     1       6.809   4.911  14.414  0.00  0.00    +0.000 A 
ATOM     17  C   UNL     1       5.682   4.086  14.542  0.00  0.00    +0.000 A 
ATOM     18  C   UNL     1       5.312   3.216  13.510  0.00  0.00    +0.000 A 
ATOM     19  C   UNL     1       6.060   3.178  12.335  0.00  0.00    +0.000 A 
ATOM     20 BR   UNL     1       5.563   1.998  10.946  0.00  0.00    +0.000 Br
ATOM     21  C   UNL     1       7.165   4.006  12.176  0.00  0.00    +0.000 A 
ATOM     22  C   UNL     1       7.524   4.867  13.211  0.00  0.00    +0.000 A 
ATOM     23  F   UNL     1       8.581   5.673  13.037  0.00  0.00    +0.000 F 
ENDBRANCH  15  16
ENDBRANCH  14  15
ENDBRANCH   2  14
TORSDOF 4
ENDMDL
MODEL 6
REMARK VINA RESULT:      -7.7      1.040      1.217
REMARK  Name = 
REMARK  4 active torsions:
REMARK  status: ('A' for Active; 'I' for Inactive)
REMARK    1  A    between atoms: C_2  and  O_3
REMARK    2  A    between atoms: C_2  and  C_13
REMARK    3  A    between atoms: O_3  and  C_4
REMARK    4  A    between atoms: C_4  and  C_5
REMARK                            x       y       z     vdW  Elec       q    Type
REMARK                         _______ _______ _______ _____ _____    ______ ____
ROOT
ATOM      1  O   UNL     1       4.042   2.721  17.747  0.00  0.00    +0.000 OA
ATOM      2  C   UNL     1       4.686   3.761  17.773  0.00  0.00    +0.000 C 
ENDROOT
BRANCH   2   3
ATOM      3  C   UNL     1       5.557   4.211  16.655  0.00  0.00    +0.000 A 
ATOM      4  C   UNL     1       5.269   3.710  15.440  0.00  0.00    +0.000 A 
ATOM      5  C   UNL     1       6.070   4.063  14.278  0.00  0.00    +0.000 A 
ATOM      6  C   UNL     1       5.869   3.485  13.023  0.00  0.00    +0.000 A 
ATOM      7  C   UNL     1       6.669   3.867  11.940  0.00  0.00    +0.000 A 
ATOM      8  C   UNL     1       7.661   4.837  12.104  0.00  0.00    +0.000 A 
ATOM      9  C   UNL     1       7.866   5.417  13.354  0.00  0.00    +0.000 A 
ATOM     10  C   UNL     1       7.074   5.011  14.425  0.00  0.00    +0.000 A 
ATOM     11  O   UNL     1       7.346   5.573  15.682  0.00  0.00    +0.000 OA
ATOM     12  C   UNL     1       6.705   5.133  16.838  0.00  0.00    +0.000 A 
ATOM     13  O   UNL     1       7.106   5.505  17.936  0.00  0.00    +0.000 OA
ENDBRANCH   2   3
BRANCH   2  14
ATOM     14  O   UNL     1       4.679   4.655  18.786  0.00  0.00    +0.000 OA
BRANCH  14  15
ATOM     15  C   UNL     1       3.443   4.858  19.494  0.00  0.00    +0.000 C 
BRANCH  15  16
ATOM     16  C   UNL     1       2.913   6.247  19.241  0.00  0.00    +0.000 A 
ATOM     17  C   UNL     1       3.185   6.945  18.055  0.00  0.00    +0.000 A 
ATOM     18  C   UNL     1       2.659   8.224  17.841  0.00  0.00    +0.000 A 
ATOM     19  C   UNL     1       1.843   8.807  18.808  0.00  0.00    +0.000 A 
ATOM     20 BR   UNL     1       1.139  10.537  18.520  0.00  0.00    +0.000 Br
ATOM     21  C   UNL     1       1.538   8.123  19.979  0.00  0.00    +0.000 A 
ATOM     22  C   UNL     1       2.070   6.851  20.181  0.00  0.00    +0.000 A 
ATOM     23  F   UNL     1       1.753   6.195  21.307  0.00  0.00    +0.000 F 
ENDBRANCH  15  16
ENDBRANCH  14  15
ENDBRANCH   2  14
TORSDOF 4
ENDMDL
MODEL 7
REMARK VINA RESULT:      -7.7      2.712      4.149
REMARK  Name = 
REMARK  4 active torsions:
REMARK  status: ('A' for Active; 'I' for Inactive)
REMARK    1  A    between atoms: C_2  and  O_3
REMARK    2  A    between atoms: C_2  and  C_13
REMARK    3  A    between atoms: O_3  and  C_4
REMARK    4  A    between atoms: C_4  and  C_5
REMARK                            x       y       z     vdW  Elec       q    Type
REMARK                         _______ _______ _______ _____ _____    ______ ____
ROOT
ATOM      1  O   UNL     1       1.001   4.242  20.697  0.00  0.00    +0.000 OA
ATOM      2  C   UNL     1       1.813   5.080  20.328  0.00  0.00    +0.000 C 
ENDROOT
BRANCH   2   3
ATOM      3  C   UNL     1       2.794   4.842  19.237  0.00  0.00    +0.000 A 
ATOM      4  C   UNL     1       4.089   5.033  19.551  0.00  0.00    +0.000 A 
ATOM      5  C   UNL     1       5.133   4.851  18.554  0.00  0.00    +0.000 A 
ATOM      6  C   UNL     1       6.475   5.140  18.811  0.00  0.00    +0.000 A 
ATOM      7  C   UNL     1       7.437   4.942  17.814  0.00  0.00    +0.000 A 
ATOM      8  C   UNL     1       7.064   4.442  16.564  0.00  0.00    +0.000 A 
ATOM      9  C   UNL     1       5.726   4.152  16.302  0.00  0.00    +0.000 A 
ATOM     10  C   UNL     1       4.779   4.373  17.300  0.00  0.00    +0.000 A 
ATOM     11  O   UNL     1       3.434   4.126  16.983  0.00  0.00    +0.000 OA
ATOM     12  C   UNL     1       2.402   4.446  17.862  0.00  0.00    +0.000 A 
ATOM     13  O   UNL     1       1.239   4.400  17.477  0.00  0.00    +0.000 OA
ENDBRANCH   2   3
BRANCH   2  14
ATOM     14  O   UNL     1       1.917   6.333  20.824  0.00  0.00    +0.000 OA
BRANCH  14  15
ATOM     15  C   UNL     1       1.825   7.431  19.899  0.00  0.00    +0.000 C 
BRANCH  15  16
ATOM     16  C   UNL     1       1.138   8.608  20.545  0.00  0.00    +0.000 A 
ATOM     17  C   UNL     1       0.958   8.698  21.933  0.00  0.00    +0.000 A 
ATOM     18  C   UNL     1       0.336   9.814  22.502  0.00  0.00    +0.000 A 
ATOM     19  C   UNL     1      -0.097  10.857  21.686  0.00  0.00    +0.000 A 
ATOM     20 BR   UNL     1      -0.942  12.361  22.457  0.00  0.00    +0.000 Br
ATOM     21  C   UNL     1       0.095  10.802  20.310  0.00  0.00    +0.000 A 
ATOM     22  C   UNL     1       0.714   9.683  19.756  0.00  0.00    +0.000 A 
ATOM     23  F   UNL     1       0.910   9.652  18.429  0.00  0.00    +0.000 F 
ENDBRANCH  15  16
ENDBRANCH  14  15
ENDBRANCH   2  14
TORSDOF 4
ENDMDL
MODEL 8
REMARK VINA RESULT:      -7.6      4.243      7.031
REMARK  Name = 
REMARK  4 active torsions:
REMARK  status: ('A' for Active; 'I' for Inactive)
REMARK    1  A    between atoms: C_2  and  O_3
REMARK    2  A    between atoms: C_2  and  C_13
REMARK    3  A    between atoms: O_3  and  C_4
REMARK    4  A    between atoms: C_4  and  C_5
REMARK                            x       y       z     vdW  Elec       q    Type
REMARK                         _______ _______ _______ _____ _____    ______ ____
ROOT
ATOM      1  O   UNL     1       7.871   5.295  19.078  0.00  0.00    +0.000 OA
ATOM      2  C   UNL     1       7.192   4.899  18.140  0.00  0.00    +0.000 C 
ENDROOT
BRANCH   2   3
ATOM      3  C   UNL     1       5.709   4.808  18.186  0.00  0.00    +0.000 A 
ATOM      4  C   UNL     1       5.198   3.601  18.491  0.00  0.00    +0.000 A 
ATOM      5  C   UNL     1       3.759   3.391  18.542  0.00  0.00    +0.000 A 
ATOM      6  C   UNL     1       3.191   2.132  18.751  0.00  0.00    +0.000 A 
ATOM      7  C   UNL     1       1.799   1.991  18.794  0.00  0.00    +0.000 A 
ATOM      8  C   UNL     1       0.972   3.107  18.643  0.00  0.00    +0.000 A 
ATOM      9  C   UNL     1       1.534   4.365  18.435  0.00  0.00    +0.000 A 
ATOM     10  C   UNL     1       2.921   4.485  18.376  0.00  0.00    +0.000 A 
ATOM     11  O   UNL     1       3.451   5.756  18.106  0.00  0.00    +0.000 OA
ATOM     12  C   UNL     1       4.813   5.953  17.890  0.00  0.00    +0.000 A 
ATOM     13  O   UNL     1       5.212   7.032  17.465  0.00  0.00    +0.000 OA
ENDBRANCH   2   3
BRANCH   2  14
ATOM     14  O   UNL     1       7.674   4.526  16.934  0.00  0.00    +0.000 OA
BRANCH  14  15
ATOM     15  C   UNL     1       7.533   5.448  15.839  0.00  0.00    +0.000 C 
BRANCH  15  16
ATOM     16  C   UNL     1       6.810   4.793  14.688  0.00  0.00    +0.000 A 
ATOM     17  C   UNL     1       5.557   4.182  14.845  0.00  0.00    +0.000 A 
ATOM     18  C   UNL     1       4.904   3.603  13.752  0.00  0.00    +0.000 A 
ATOM     19  C   UNL     1       5.492   3.647  12.490  0.00  0.00    +0.000 A 
ATOM     20 BR   UNL     1       4.610   2.858  11.016  0.00  0.00    +0.000 Br
ATOM     21  C   UNL     1       6.721   4.271  12.306  0.00  0.00    +0.000 A 
ATOM     22  C   UNL     1       7.363   4.841  13.403  0.00  0.00    +0.000 A 
ATOM     23  F   UNL     1       8.539   5.456  13.209  0.00  0.00    +0.000 F 
ENDBRANCH  15  16
ENDBRANCH  14  15
ENDBRANCH   2  14
TORSDOF 4
ENDMDL
MODEL 9
REMARK VINA RESULT:      -7.6      2.495      3.854
REMARK  Name = 
REMARK  4 active torsions:
REMARK  status: ('A' for Active; 'I' for Inactive)
REMARK    1  A    between atoms: C_2  and  O_3
REMARK    2  A    between atoms: C_2  and  C_13
REMARK    3  A    between atoms: O_3  and  C_4
REMARK    4  A    between atoms: C_4  and  C_5
REMARK                            x       y       z     vdW  Elec       q    Type
REMARK                         _______ _______ _______ _____ _____    ______ ____
ROOT
ATOM      1  O   UNL     1       1.827   4.104  21.291  0.00  0.00    +0.000 OA
ATOM      2  C   UNL     1       1.960   4.908  20.379  0.00  0.00    +0.000 C 
ENDROOT
BRANCH   2   3
ATOM      3  C   UNL     1       2.880   4.696  19.230  0.00  0.00    +0.000 A 
ATOM      4  C   UNL     1       4.183   4.938  19.461  0.00  0.00    +0.000 A 
ATOM      5  C   UNL     1       5.169   4.785  18.402  0.00  0.00    +0.000 A 
ATOM      6  C   UNL     1       6.513   5.127  18.572  0.00  0.00    +0.000 A 
ATOM      7  C   UNL     1       7.418   4.955  17.519  0.00  0.00    +0.000 A 
ATOM      8  C   UNL     1       6.987   4.428  16.299  0.00  0.00    +0.000 A 
ATOM      9  C   UNL     1       5.648   4.085  16.124  0.00  0.00    +0.000 A 
ATOM     10  C   UNL     1       4.757   4.281  17.176  0.00  0.00    +0.000 A 
ATOM     11  O   UNL     1       3.405   3.980  16.946  0.00  0.00    +0.000 OA
ATOM     12  C   UNL     1       2.418   4.271  17.886  0.00  0.00    +0.000 A 
ATOM     13  O   UNL     1       1.236   4.177  17.574  0.00  0.00    +0.000 OA
ENDBRANCH   2   3
BRANCH   2  14
ATOM     14  O   UNL     1       1.281   6.071  20.261  0.00  0.00    +0.000 OA
BRANCH  14  15
ATOM     15  C   UNL     1       1.846   7.243  20.875  0.00  0.00    +0.000 C 
BRANCH  15  16
ATOM     16  C   UNL     1       1.198   8.490  20.326  0.00  0.00    +0.000 A 
ATOM     17  C   UNL     1       0.322   9.274  21.092  0.00  0.00    +0.000 A 
ATOM     18  C   UNL     1      -0.245  10.437  20.560  0.00  0.00    +0.000 A 
ATOM     19  C   UNL     1       0.073  10.833  19.263  0.00  0.00    +0.000 A 
ATOM     20 BR   UNL     1      -0.700  12.400  18.544  0.00  0.00    +0.000 Br
ATOM     21  C   UNL     1       0.959  10.085  18.495  0.00  0.00    +0.000 A 
ATOM     22  C   UNL     1       1.516   8.927  19.036  0.00  0.00    +0.000 A 
ATOM     23  F   UNL     1       2.383   8.226  18.291  0.00  0.00    +0.000 F 
ENDBRANCH  15  16
ENDBRANCH  14  15
ENDBRANCH   2  14
TORSDOF 4
ENDMDL
