MODEL 1
REMARK VINA RESULT:      -8.9      0.000      0.000
REMARK  Name = 
REMARK  4 active torsions:
REMARK  status: ('A' for Active; 'I' for Inactive)
REMARK    1  A    between atoms: C_1  and  C_2
REMARK    2  A    between atoms: C_6  and  C_7
REMARK    3  A    between atoms: N_9  and  C_10
REMARK    4  A    between atoms: C_15  and  C_16
REMARK                            x       y       z     vdW  Elec       q    Type
REMARK                         _______ _______ _______ _____ _____    ______ ____
ROOT
ATOM      1  C   UNL     1       3.566   4.010  19.438  0.00  0.00    +0.000 A 
ATOM      2  C   UNL     1       3.749   2.681  19.853  0.00  0.00    +0.000 A 
ATOM      3  C   UNL     1       3.123   2.204  21.006  0.00  0.00    +0.000 A 
ATOM      4  C   UNL     1       2.284   3.035  21.737  0.00  0.00    +0.000 A 
ATOM      5  C   UNL     1       2.065   4.346  21.316  0.00  0.00    +0.000 A 
ATOM      6  C   UNL     1       2.701   4.850  20.166  0.00  0.00    +0.000 A 
ENDROOT
BRANCH   6   7
ATOM      7  C   UNL     1       2.251   6.204  19.728  0.00  0.00    +0.000 C 
ATOM      8  O   UNL     1       2.260   6.432  18.523  0.00  0.00    +0.000 OA
ATOM      9  N   UNL     1       1.819   7.058  20.714  0.00  0.00    +0.000 N 
ATOM     10  C   UNL     1       1.455   8.347  20.440  0.00  0.00    +0.000 A 
ATOM     11  N   UNL     1       1.547   9.016  19.320  0.00  0.00    +0.000 NA
ATOM     12  C   UNL     1       1.015  10.277  19.488  0.00  0.00    +0.000 A 
ATOM     13  C   UNL     1       0.554  10.559  20.758  0.00  0.00    +0.000 A 
ATOM     14  S   UNL     1       0.806   9.198  21.773  0.00  0.00    +0.000 S 
ATOM     15  H   UNL     1       1.662   6.723  21.653  0.00  0.00    +0.000 HD
ENDBRANCH   6   7
BRANCH   1  18
ATOM     16  C   UNL     1       5.606   4.637  18.316  0.00  0.00    +0.000 C 
ATOM     17  O   UNL     1       6.251   4.616  19.362  0.00  0.00    +0.000 OA
ATOM     18  N   UNL     1       4.234   4.419  18.258  0.00  0.00    +0.000 N 
ATOM     19  H   UNL     1       3.987   3.902  17.419  0.00  0.00    +0.000 HD
BRANCH  16  25
ATOM     20  C   UNL     1       7.538   7.199  17.531  0.00  0.00    +0.000 C 
ATOM     21  C   UNL     1       7.051   6.036  16.755  0.00  0.00    +0.000 A 
ATOM     22  O   UNL     1       7.546   5.929  15.489  0.00  0.00    +0.000 OA
ATOM     23  C   UNL     1       7.079   4.767  14.970  0.00  0.00    +0.000 A 
ATOM     24  C   UNL     1       6.272   4.129  15.879  0.00  0.00    +0.000 A 
ATOM     25  C   UNL     1       6.242   4.949  17.047  0.00  0.00    +0.000 A 
ENDBRANCH  16  25
ENDBRANCH   1  18
TORSDOF 3
ENDMDL
MODEL 2
REMARK VINA RESULT:      -8.3      1.310      1.359
REMARK  Name = 
REMARK  4 active torsions:
REMARK  status: ('A' for Active; 'I' for Inactive)
REMARK    1  A    between atoms: C_1  and  C_2
REMARK    2  A    between atoms: C_6  and  C_7
REMARK    3  A    between atoms: N_9  and  C_10
REMARK    4  A    between atoms: C_15  and  C_16
REMARK                            x       y       z     vdW  Elec       q    Type
REMARK                         _______ _______ _______ _____ _____    ______ ____
ROOT
ATOM      1  C   UNL     1       3.752   4.127  19.569  0.00  0.00    +0.000 A 
ATOM      2  C   UNL     1       3.765   2.857  20.167  0.00  0.00    +0.000 A 
ATOM      3  C   UNL     1       2.807   2.510  21.121  0.00  0.00    +0.000 A 
ATOM      4  C   UNL     1       1.808   3.413  21.465  0.00  0.00    +0.000 A 
ATOM      5  C   UNL     1       1.762   4.664  20.852  0.00  0.00    +0.000 A 
ATOM      6  C   UNL     1       2.730   5.038  19.901  0.00  0.00    +0.000 A 
ENDROOT
BRANCH   6   7
ATOM      7  C   UNL     1       2.470   6.329  19.198  0.00  0.00    +0.000 C 
ATOM      8  O   UNL     1       2.738   6.376  18.002  0.00  0.00    +0.000 OA
ATOM      9  N   UNL     1       1.907   7.334  19.946  0.00  0.00    +0.000 N 
ATOM     10  C   UNL     1       1.693   8.582  19.428  0.00  0.00    +0.000 A 
ATOM     11  N   UNL     1       2.055   9.074  18.271  0.00  0.00    +0.000 NA
ATOM     12  C   UNL     1       1.587  10.366  18.151  0.00  0.00    +0.000 A 
ATOM     13  C   UNL     1       0.899  10.849  19.245  0.00  0.00    +0.000 A 
ATOM     14  S   UNL     1       0.848   9.644  20.467  0.00  0.00    +0.000 S 
ATOM     15  H   UNL     1       1.541   7.148  20.867  0.00  0.00    +0.000 HD
ENDBRANCH   6   7
BRANCH   1  18
ATOM     16  C   UNL     1       4.601   3.898  17.324  0.00  0.00    +0.000 C 
ATOM     17  O   UNL     1       3.703   3.122  17.006  0.00  0.00    +0.000 OA
ATOM     18  N   UNL     1       4.757   4.403  18.610  0.00  0.00    +0.000 N 
ATOM     19  H   UNL     1       5.077   5.367  18.582  0.00  0.00    +0.000 HD
BRANCH  16  25
ATOM     20  C   UNL     1       7.786   4.609  17.838  0.00  0.00    +0.000 C 
ATOM     21  C   UNL     1       6.945   4.598  16.619  0.00  0.00    +0.000 A 
ATOM     22  O   UNL     1       7.605   4.844  15.452  0.00  0.00    +0.000 OA
ATOM     23  C   UNL     1       6.710   4.695  14.444  0.00  0.00    +0.000 A 
ATOM     24  C   UNL     1       5.475   4.372  14.947  0.00  0.00    +0.000 A 
ATOM     25  C   UNL     1       5.613   4.309  16.366  0.00  0.00    +0.000 A 
ENDBRANCH  16  25
ENDBRANCH   1  18
TORSDOF 3
ENDMDL
MODEL 3
REMARK VINA RESULT:      -8.2      1.290      1.290
REMARK  Name = 
REMARK  4 active torsions:
REMARK  status: ('A' for Active; 'I' for Inactive)
REMARK    1  A    between atoms: C_1  and  C_2
REMARK    2  A    between atoms: C_6  and  C_7
REMARK    3  A    between atoms: N_9  and  C_10
REMARK    4  A    between atoms: C_15  and  C_16
REMARK                            x       y       z     vdW  Elec       q    Type
REMARK                         _______ _______ _______ _____ _____    ______ ____
ROOT
ATOM      1  C   UNL     1       3.747   3.963  19.645  0.00  0.00    +0.000 A 
ATOM      2  C   UNL     1       3.902   2.669  20.169  0.00  0.00    +0.000 A 
ATOM      3  C   UNL     1       3.098   2.228  21.222  0.00  0.00    +0.000 A 
ATOM      4  C   UNL     1       2.112   3.057  21.741  0.00  0.00    +0.000 A 
ATOM      5  C   UNL     1       1.924   4.331  21.205  0.00  0.00    +0.000 A 
ATOM      6  C   UNL     1       2.736   4.800  20.156  0.00  0.00    +0.000 A 
ENDROOT
BRANCH   6   7
ATOM      7  C   UNL     1       2.322   6.105  19.561  0.00  0.00    +0.000 C 
ATOM      8  O   UNL     1       2.324   6.186  18.337  0.00  0.00    +0.000 OA
ATOM      9  N   UNL     1       1.928   7.084  20.440  0.00  0.00    +0.000 N 
ATOM     10  C   UNL     1       1.600   8.342  20.015  0.00  0.00    +0.000 A 
ATOM     11  N   UNL     1       1.699   8.868  18.821  0.00  0.00    +0.000 NA
ATOM     12  C   UNL     1       1.208  10.156  18.841  0.00  0.00    +0.000 A 
ATOM     13  C   UNL     1       0.770  10.603  20.070  0.00  0.00    +0.000 A 
ATOM     14  S   UNL     1       0.993   9.367  21.241  0.00  0.00    +0.000 S 
ATOM     15  H   UNL     1       1.772   6.870  21.413  0.00  0.00    +0.000 HD
ENDBRANCH   6   7
BRANCH   1  18
ATOM     16  C   UNL     1       4.269   3.924  17.291  0.00  0.00    +0.000 C 
ATOM     17  O   UNL     1       3.347   3.150  17.045  0.00  0.00    +0.000 OA
ATOM     18  N   UNL     1       4.599   4.336  18.578  0.00  0.00    +0.000 N 
ATOM     19  H   UNL     1       4.896   5.307  18.580  0.00  0.00    +0.000 HD
BRANCH  16  25
ATOM     20  C   UNL     1       4.927   7.056  16.472  0.00  0.00    +0.000 C 
ATOM     21  C   UNL     1       5.380   5.758  15.921  0.00  0.00    +0.000 A 
ATOM     22  O   UNL     1       6.319   5.839  14.935  0.00  0.00    +0.000 OA
ATOM     23  C   UNL     1       6.688   4.572  14.625  0.00  0.00    +0.000 A 
ATOM     24  C   UNL     1       5.986   3.671  15.387  0.00  0.00    +0.000 A 
ATOM     25  C   UNL     1       5.127   4.432  16.234  0.00  0.00    +0.000 A 
ENDBRANCH  16  25
ENDBRANCH   1  18
TORSDOF 3
ENDMDL
MODEL 4
REMARK VINA RESULT:      -7.8      0.913      1.520
REMARK  Name = 
REMARK  4 active torsions:
REMARK  status: ('A' for Active; 'I' for Inactive)
REMARK    1  A    between atoms: C_1  and  C_2
REMARK    2  A    between atoms: C_6  and  C_7
REMARK    3  A    between atoms: N_9  and  C_10
REMARK    4  A    between atoms: C_15  and  C_16
REMARK                            x       y       z     vdW  Elec       q    Type
REMARK                         _______ _______ _______ _____ _____    ______ ____
ROOT
ATOM      1  C   UNL     1       3.537   4.275  19.871  0.00  0.00    +0.000 A 
ATOM      2  C   UNL     1       3.623   2.893  20.110  0.00  0.00    +0.000 A 
ATOM      3  C   UNL     1       2.551   2.203  20.678  0.00  0.00    +0.000 A 
ATOM      4  C   UNL     1       1.373   2.874  20.984  0.00  0.00    +0.000 A 
ATOM      5  C   UNL     1       1.263   4.238  20.718  0.00  0.00    +0.000 A 
ATOM      6  C   UNL     1       2.339   4.955  20.161  0.00  0.00    +0.000 A 
ENDROOT
BRANCH   6   7
ATOM      7  C   UNL     1       2.035   6.362  19.768  0.00  0.00    +0.000 C 
ATOM      8  O   UNL     1       2.183   6.655  18.586  0.00  0.00    +0.000 OA
ATOM      9  N   UNL     1       1.568   7.191  20.758  0.00  0.00    +0.000 N 
ATOM     10  C   UNL     1       1.327   8.518  20.531  0.00  0.00    +0.000 A 
ATOM     11  N   UNL     1       1.581   9.239  19.470  0.00  0.00    +0.000 NA
ATOM     12  C   UNL     1       1.128  10.526  19.665  0.00  0.00    +0.000 A 
ATOM     13  C   UNL     1       0.561  10.772  20.898  0.00  0.00    +0.000 A 
ATOM     14  S   UNL     1       0.609   9.342  21.846  0.00  0.00    +0.000 S 
ATOM     15  H   UNL     1       1.291   6.818  21.654  0.00  0.00    +0.000 HD
ENDBRANCH   6   7
BRANCH   1  18
ATOM     16  C   UNL     1       4.895   4.729  17.930  0.00  0.00    +0.000 C 
ATOM     17  O   UNL     1       4.243   3.960  17.228  0.00  0.00    +0.000 OA
ATOM     18  N   UNL     1       4.666   4.903  19.291  0.00  0.00    +0.000 N 
ATOM     19  H   UNL     1       4.808   5.872  19.559  0.00  0.00    +0.000 HD
BRANCH  16  25
ATOM     20  C   UNL     1       6.501   4.300  15.076  0.00  0.00    +0.000 C 
ATOM     21  C   UNL     1       6.655   5.279  16.176  0.00  0.00    +0.000 A 
ATOM     22  O   UNL     1       7.578   6.259  15.961  0.00  0.00    +0.000 OA
ATOM     23  C   UNL     1       7.514   7.112  17.012  0.00  0.00    +0.000 A 
ATOM     24  C   UNL     1       6.571   6.686  17.915  0.00  0.00    +0.000 A 
ATOM     25  C   UNL     1       6.006   5.488  17.383  0.00  0.00    +0.000 A 
ENDBRANCH  16  25
ENDBRANCH   1  18
TORSDOF 3
ENDMDL
MODEL 5
REMARK VINA RESULT:      -7.2      1.626      2.146
REMARK  Name = 
REMARK  4 active torsions:
REMARK  status: ('A' for Active; 'I' for Inactive)
REMARK    1  A    between atoms: C_1  and  C_2
REMARK    2  A    between atoms: C_6  and  C_7
REMARK    3  A    between atoms: N_9  and  C_10
REMARK    4  A    between atoms: C_15  and  C_16
REMARK                            x       y       z     vdW  Elec       q    Type
REMARK                         _______ _______ _______ _____ _____    ______ ____
ROOT
ATOM      1  C   UNL     1       3.086   4.111  18.350  0.00  0.00    +0.000 A 
ATOM      2  C   UNL     1       3.045   2.816  17.809  0.00  0.00    +0.000 A 
ATOM      3  C   UNL     1       2.069   1.906  18.219  0.00  0.00    +0.000 A 
ATOM      4  C   UNL     1       1.106   2.286  19.146  0.00  0.00    +0.000 A 
ATOM      5  C   UNL     1       1.114   3.581  19.664  0.00  0.00    +0.000 A 
ATOM      6  C   UNL     1       2.101   4.507  19.276  0.00  0.00    +0.000 A 
ENDROOT
BRANCH   6   7
ATOM      7  C   UNL     1       1.897   5.901  19.767  0.00  0.00    +0.000 C 
ATOM      8  O   UNL     1       1.770   6.053  20.978  0.00  0.00    +0.000 OA
ATOM      9  N   UNL     1       1.918   6.897  18.821  0.00  0.00    +0.000 N 
ATOM     10  C   UNL     1       1.668   8.202  19.145  0.00  0.00    +0.000 A 
ATOM     11  N   UNL     1       1.272   8.715  20.281  0.00  0.00    +0.000 NA
ATOM     12  C   UNL     1       1.191  10.087  20.166  0.00  0.00    +0.000 A 
ATOM     13  C   UNL     1       1.497  10.594  18.920  0.00  0.00    +0.000 A 
ATOM     14  S   UNL     1       1.890   9.305  17.857  0.00  0.00    +0.000 S 
ATOM     15  H   UNL     1       2.221   6.705  17.878  0.00  0.00    +0.000 HD
ENDBRANCH   6   7
BRANCH   1  18
ATOM     16  C   UNL     1       5.401   4.785  18.349  0.00  0.00    +0.000 C 
ATOM     17  O   UNL     1       5.690   3.987  19.239  0.00  0.00    +0.000 OA
ATOM     18  N   UNL     1       4.105   4.976  17.883  0.00  0.00    +0.000 N 
ATOM     19  H   UNL     1       4.105   5.146  16.882  0.00  0.00    +0.000 HD
BRANCH  16  25
ATOM     20  C   UNL     1       6.658   4.685  15.296  0.00  0.00    +0.000 C 
ATOM     21  C   UNL     1       6.915   5.566  16.458  0.00  0.00    +0.000 A 
ATOM     22  O   UNL     1       7.773   6.600  16.228  0.00  0.00    +0.000 OA
ATOM     23  C   UNL     1       7.810   7.352  17.355  0.00  0.00    +0.000 A 
ATOM     24  C   UNL     1       7.000   6.806  18.320  0.00  0.00    +0.000 A 
ATOM     25  C   UNL     1       6.413   5.637  17.748  0.00  0.00    +0.000 A 
ENDBRANCH  16  25
ENDBRANCH   1  18
TORSDOF 3
ENDMDL
MODEL 6
REMARK VINA RESULT:      -7.2      1.015      1.027
REMARK  Name = 
REMARK  4 active torsions:
REMARK  status: ('A' for Active; 'I' for Inactive)
REMARK    1  A    between atoms: C_1  and  C_2
REMARK    2  A    between atoms: C_6  and  C_7
REMARK    3  A    between atoms: N_9  and  C_10
REMARK    4  A    between atoms: C_15  and  C_16
REMARK                            x       y       z     vdW  Elec       q    Type
REMARK                         _______ _______ _______ _____ _____    ______ ____
ROOT
ATOM      1  C   UNL     1       2.821   3.719  19.010  0.00  0.00    +0.000 A 
ATOM      2  C   UNL     1       2.718   2.368  19.378  0.00  0.00    +0.000 A 
ATOM      3  C   UNL     1       1.922   1.984  20.459  0.00  0.00    +0.000 A 
ATOM      4  C   UNL     1       1.197   2.937  21.163  0.00  0.00    +0.000 A 
ATOM      5  C   UNL     1       1.262   4.278  20.785  0.00  0.00    +0.000 A 
ATOM      6  C   UNL     1       2.073   4.686  19.709  0.00  0.00    +0.000 A 
ENDROOT
BRANCH   6   7
ATOM      7  C   UNL     1       1.921   6.113  19.300  0.00  0.00    +0.000 C 
ATOM      8  O   UNL     1       2.134   6.381  18.122  0.00  0.00    +0.000 OA
ATOM      9  N   UNL     1       1.508   6.992  20.272  0.00  0.00    +0.000 N 
ATOM     10  C   UNL     1       1.406   8.334  20.031  0.00  0.00    +0.000 A 
ATOM     11  N   UNL     1       1.763   9.018  18.975  0.00  0.00    +0.000 NA
ATOM     12  C   UNL     1       1.433  10.346  19.150  0.00  0.00    +0.000 A 
ATOM     13  C   UNL     1       0.855  10.656  20.364  0.00  0.00    +0.000 A 
ATOM     14  S   UNL     1       0.732   9.234  21.319  0.00  0.00    +0.000 S 
ATOM     15  H   UNL     1       1.168   6.654  21.160  0.00  0.00    +0.000 HD
ENDBRANCH   6   7
BRANCH   1  18
ATOM     16  C   UNL     1       4.986   4.322  18.136  0.00  0.00    +0.000 C 
ATOM     17  O   UNL     1       5.464   4.452  19.261  0.00  0.00    +0.000 OA
ATOM     18  N   UNL     1       3.647   4.028  17.903  0.00  0.00    +0.000 N 
ATOM     19  H   UNL     1       3.550   3.409  17.103  0.00  0.00    +0.000 HD
BRANCH  16  25
ATOM     20  C   UNL     1       8.273   4.505  17.869  0.00  0.00    +0.000 C 
ATOM     21  C   UNL     1       7.180   4.593  16.874  0.00  0.00    +0.000 A 
ATOM     22  O   UNL     1       7.579   4.683  15.574  0.00  0.00    +0.000 OA
ATOM     23  C   UNL     1       6.462   4.650  14.806  0.00  0.00    +0.000 A 
ATOM     24  C   UNL     1       5.343   4.558  15.596  0.00  0.00    +0.000 A 
ATOM     25  C   UNL     1       5.797   4.523  16.948  0.00  0.00    +0.000 A 
ENDBRANCH  16  25
ENDBRANCH   1  18
TORSDOF 3
ENDMDL
MODEL 7
REMARK VINA RESULT:      -7.1      2.551      5.912
REMARK  Name = 
REMARK  4 active torsions:
REMARK  status: ('A' for Active; 'I' for Inactive)
REMARK    1  A    between atoms: C_1  and  C_2
REMARK    2  A    between atoms: C_6  and  C_7
REMARK    3  A    between atoms: N_9  and  C_10
REMARK    4  A    between atoms: C_15  and  C_16
REMARK                            x       y       z     vdW  Elec       q    Type
REMARK                         _______ _______ _______ _____ _____    ______ ____
ROOT
ATOM      1  C   UNL     1       2.967   4.658  20.386  0.00  0.00    +0.000 A 
ATOM      2  C   UNL     1       2.126   4.115  21.371  0.00  0.00    +0.000 A 
ATOM      3  C   UNL     1       2.210   2.764  21.711  0.00  0.00    +0.000 A 
ATOM      4  C   UNL     1       3.153   1.948  21.097  0.00  0.00    +0.000 A 
ATOM      5  C   UNL     1       4.019   2.483  20.144  0.00  0.00    +0.000 A 
ATOM      6  C   UNL     1       3.937   3.839  19.776  0.00  0.00    +0.000 A 
ENDROOT
BRANCH   6   7
ATOM      7  C   UNL     1       5.027   4.324  18.878  0.00  0.00    +0.000 C 
ATOM      8  O   UNL     1       5.985   4.874  19.410  0.00  0.00    +0.000 OA
ATOM      9  N   UNL     1       4.880   4.066  17.536  0.00  0.00    +0.000 N 
ATOM     10  C   UNL     1       5.777   4.527  16.613  0.00  0.00    +0.000 A 
ATOM     11  N   UNL     1       6.793   5.335  16.773  0.00  0.00    +0.000 NA
ATOM     12  C   UNL     1       7.452   5.493  15.572  0.00  0.00    +0.000 A 
ATOM     13  C   UNL     1       6.899   4.822  14.502  0.00  0.00    +0.000 A 
ATOM     14  S   UNL     1       5.499   3.973  15.020  0.00  0.00    +0.000 S 
ATOM     15  H   UNL     1       4.160   3.440  17.209  0.00  0.00    +0.000 HD
ENDBRANCH   6   7
BRANCH   1  18
ATOM     16  C   UNL     1       2.243   6.403  18.888  0.00  0.00    +0.000 C 
ATOM     17  O   UNL     1       1.964   5.600  18.001  0.00  0.00    +0.000 OA
ATOM     18  N   UNL     1       2.822   6.037  20.097  0.00  0.00    +0.000 N 
ATOM     19  H   UNL     1       2.456   6.602  20.858  0.00  0.00    +0.000 HD
BRANCH  16  25
ATOM     20  C   UNL     1       0.917   8.590  20.978  0.00  0.00    +0.000 C 
ATOM     21  C   UNL     1       1.468   8.717  19.610  0.00  0.00    +0.000 A 
ATOM     22  O   UNL     1       1.530   9.989  19.121  0.00  0.00    +0.000 OA
ATOM     23  C   UNL     1       2.147   9.928  17.916  0.00  0.00    +0.000 A 
ATOM     24  C   UNL     1       2.469   8.629  17.610  0.00  0.00    +0.000 A 
ATOM     25  C   UNL     1       2.027   7.828  18.706  0.00  0.00    +0.000 A 
ENDBRANCH  16  25
ENDBRANCH   1  18
TORSDOF 3
ENDMDL
MODEL 8
REMARK VINA RESULT:      -7.1      2.356      6.156
REMARK  Name = 
REMARK  4 active torsions:
REMARK  status: ('A' for Active; 'I' for Inactive)
REMARK    1  A    between atoms: C_1  and  C_2
REMARK    2  A    between atoms: C_6  and  C_7
REMARK    3  A    between atoms: N_9  and  C_10
REMARK    4  A    between atoms: C_15  and  C_16
REMARK                            x       y       z     vdW  Elec       q    Type
REMARK                         _______ _______ _______ _____ _____    ______ ____
ROOT
ATOM      1  C   UNL     1       4.737   6.080  17.079  0.00  0.00    +0.000 A 
ATOM      2  C   UNL     1       5.008   6.542  15.781  0.00  0.00    +0.000 A 
ATOM      3  C   UNL     1       5.637   5.715  14.849  0.00  0.00    +0.000 A 
ATOM      4  C   UNL     1       5.972   4.410  15.189  0.00  0.00    +0.000 A 
ATOM      5  C   UNL     1       5.675   3.927  16.463  0.00  0.00    +0.000 A 
ATOM      6  C   UNL     1       5.058   4.752  17.422  0.00  0.00    +0.000 A 
ENDROOT
BRANCH   6   7
ATOM      7  C   UNL     1       4.640   4.067  18.681  0.00  0.00    +0.000 C 
ATOM      8  O   UNL     1       5.533   3.637  19.404  0.00  0.00    +0.000 OA
ATOM      9  N   UNL     1       3.292   4.023  18.940  0.00  0.00    +0.000 N 
ATOM     10  C   UNL     1       2.790   3.357  20.023  0.00  0.00    +0.000 A 
ATOM     11  N   UNL     1       3.405   2.593  20.887  0.00  0.00    +0.000 NA
ATOM     12  C   UNL     1       2.511   2.164  21.846  0.00  0.00    +0.000 A 
ATOM     13  C   UNL     1       1.210   2.587  21.671  0.00  0.00    +0.000 A 
ATOM     14  S   UNL     1       1.106   3.547  20.252  0.00  0.00    +0.000 S 
ATOM     15  H   UNL     1       2.645   4.569  18.392  0.00  0.00    +0.000 HD
ENDBRANCH   6   7
BRANCH   1  18
ATOM     16  C   UNL     1       2.727   6.849  18.166  0.00  0.00    +0.000 C 
ATOM     17  O   UNL     1       2.019   6.079  17.520  0.00  0.00    +0.000 OA
ATOM     18  N   UNL     1       4.097   6.979  17.966  0.00  0.00    +0.000 N 
ATOM     19  H   UNL     1       4.576   7.131  18.849  0.00  0.00    +0.000 HD
BRANCH  16  25
ATOM     20  C   UNL     1       1.598   9.934  17.820  0.00  0.00    +0.000 C 
ATOM     21  C   UNL     1       1.690   9.024  18.984  0.00  0.00    +0.000 A 
ATOM     22  O   UNL     1       1.130   9.492  20.137  0.00  0.00    +0.000 OA
ATOM     23  C   UNL     1       1.214   8.501  21.057  0.00  0.00    +0.000 A 
ATOM     24  C   UNL     1       1.837   7.402  20.519  0.00  0.00    +0.000 A 
ATOM     25  C   UNL     1       2.156   7.732  19.168  0.00  0.00    +0.000 A 
ENDBRANCH  16  25
ENDBRANCH   1  18
TORSDOF 3
ENDMDL
MODEL 9
REMARK VINA RESULT:      -7.0      1.636      1.986
REMARK  Name = 
REMARK  4 active torsions:
REMARK  status: ('A' for Active; 'I' for Inactive)
REMARK    1  A    between atoms: C_1  and  C_2
REMARK    2  A    between atoms: C_6  and  C_7
REMARK    3  A    between atoms: N_9  and  C_10
REMARK    4  A    between atoms: C_15  and  C_16
REMARK                            x       y       z     vdW  Elec       q    Type
REMARK                         _______ _______ _______ _____ _____    ______ ____
ROOT
ATOM      1  C   UNL     1       3.856   4.198  19.306  0.00  0.00    +0.000 A 
ATOM      2  C   UNL     1       4.106   2.817  19.245  0.00  0.00    +0.000 A 
ATOM      3  C   UNL     1       3.051   1.903  19.270  0.00  0.00    +0.000 A 
ATOM      4  C   UNL     1       1.738   2.355  19.322  0.00  0.00    +0.000 A 
ATOM      5  C   UNL     1       1.476   3.724  19.346  0.00  0.00    +0.000 A 
ATOM      6  C   UNL     1       2.526   4.660  19.340  0.00  0.00    +0.000 A 
ENDROOT
BRANCH   6   7
ATOM      7  C   UNL     1       2.110   6.086  19.194  0.00  0.00    +0.000 C 
ATOM      8  O   UNL     1       1.980   6.516  18.053  0.00  0.00    +0.000 OA
ATOM      9  N   UNL     1       1.863   6.777  20.356  0.00  0.00    +0.000 N 
ATOM     10  C   UNL     1       1.549   8.108  20.347  0.00  0.00    +0.000 A 
ATOM     11  N   UNL     1       1.540   8.953  19.349  0.00  0.00    +0.000 NA
ATOM     12  C   UNL     1       1.115  10.188  19.792  0.00  0.00    +0.000 A 
ATOM     13  C   UNL     1       0.838  10.269  21.141  0.00  0.00    +0.000 A 
ATOM     14  S   UNL     1       1.131   8.746  21.878  0.00  0.00    +0.000 S 
ATOM     15  H   UNL     1       1.806   6.295  21.240  0.00  0.00    +0.000 HD
ENDBRANCH   6   7
BRANCH   1  18
ATOM     16  C   UNL     1       5.447   5.495  18.040  0.00  0.00    +0.000 C 
ATOM     17  O   UNL     1       5.019   5.073  16.968  0.00  0.00    +0.000 OA
ATOM     18  N   UNL     1       4.978   5.061  19.276  0.00  0.00    +0.000 N 
ATOM     19  H   UNL     1       4.953   5.828  19.940  0.00  0.00    +0.000 HD
BRANCH  16  25
ATOM     20  C   UNL     1       8.232   5.411  19.815  0.00  0.00    +0.000 C 
ATOM     21  C   UNL     1       7.688   6.391  18.847  0.00  0.00    +0.000 A 
ATOM     22  O   UNL     1       8.515   7.433  18.545  0.00  0.00    +0.000 OA
ATOM     23  C   UNL     1       7.905   8.164  17.580  0.00  0.00    +0.000 A 
ATOM     24  C   UNL     1       6.686   7.617  17.266  0.00  0.00    +0.000 A 
ATOM     25  C   UNL     1       6.530   6.462  18.089  0.00  0.00    +0.000 A 
ENDBRANCH  16  25
ENDBRANCH   1  18
TORSDOF 3
ENDMDL
