MODEL 1
REMARK VINA RESULT:      -8.8      0.000      0.000
REMARK  Name = 
REMARK  9 active torsions:
REMARK  status: ('A' for Active; 'I' for Inactive)
REMARK    1  A    between atoms: C_1  and  O_2
REMARK    2  A    between atoms: O_2  and  C_3
REMARK    3  A    between atoms: C_5  and  C_6
REMARK    4  A    between atoms: C_7  and  C_8
REMARK    5  A    between atoms: C_8  and  C_10
REMARK    6  A    between atoms: C_14  and  N_15
REMARK    7  A    between atoms: C_17  and  C_18
REMARK    8  A    between atoms: C_21  and  C_22
REMARK    9  A    between atoms: C_30  and  O_31
REMARK                            x       y       z     vdW  Elec       q    Type
REMARK                         _______ _______ _______ _____ _____    ______ ____
ROOT
ATOM      1  C   UNL     1       5.570   6.223  17.314  0.00  0.00    +0.000 A 
ATOM      2  C   UNL     1       5.087   4.917  17.191  0.00  0.00    +0.000 A 
ATOM      3  C   UNL     1       3.757   4.631  17.498  0.00  0.00    +0.000 A 
ATOM      4  C   UNL     1       2.896   5.652  17.910  0.00  0.00    +0.000 A 
ATOM      5  C   UNL     1       3.362   6.972  17.999  0.00  0.00    +0.000 A 
ATOM      6  C   UNL     1       4.703   7.255  17.701  0.00  0.00    +0.000 A 
ENDROOT
BRANCH   5   7
ATOM      7  N   UNL     1       2.488   8.029  18.357  0.00  0.00    +0.000 N 
ATOM      8  C   UNL     1       1.971   8.324  19.592  0.00  0.00    +0.000 A 
ATOM      9  C   UNL     1       1.117   9.380  19.376  0.00  0.00    +0.000 A 
ATOM     10  N   UNL     1       1.178   9.743  18.060  0.00  0.00    +0.000 NA
ATOM     11  N   UNL     1       2.020   8.919  17.446  0.00  0.00    +0.000 NA
BRANCH   9  12
ATOM     12  C   UNL     1       0.300  10.026  20.382  0.00  0.00    +0.000 A 
ATOM     13  C   UNL     1       0.272   9.530  21.690  0.00  0.00    +0.000 A 
ATOM     14  C   UNL     1      -0.536  10.133  22.659  0.00  0.00    +0.000 A 
ATOM     15  C   UNL     1      -1.321  11.246  22.337  0.00  0.00    +0.000 A 
ATOM     16  C   UNL     1      -2.193  11.904  23.363  0.00  0.00    +0.000 C 
ATOM     17  C   UNL     1      -1.282  11.753  21.036  0.00  0.00    +0.000 A 
ATOM     18  C   UNL     1      -0.478  11.149  20.068  0.00  0.00    +0.000 A 
ENDBRANCH   9  12
ENDBRANCH   5   7
BRANCH   1  19
ATOM     19  C   UNL     1       6.999   6.491  16.995  0.00  0.00    +0.000 C 
ATOM     20  O   UNL     1       7.570   5.872  16.105  0.00  0.00    +0.000 OA
BRANCH  19  22
ATOM     21  C   UNL     1       7.920   8.745  17.390  0.00  0.00    +0.000 C 
ATOM     22  C   UNL     1       7.691   7.501  17.837  0.00  0.00    +0.000 C 
BRANCH  21  25
ATOM     23  C   UNL     1       9.415  12.076  18.405  0.00  0.00    +0.000 A 
ATOM     24  C   UNL     1       8.788  11.056  17.666  0.00  0.00    +0.000 A 
ATOM     25  C   UNL     1       8.579   9.779  18.205  0.00  0.00    +0.000 A 
ATOM     26  C   UNL     1       8.970   9.545  19.528  0.00  0.00    +0.000 A 
ATOM     27  C   UNL     1       9.600  10.542  20.273  0.00  0.00    +0.000 A 
ATOM     28  C   UNL     1       9.829  11.800  19.712  0.00  0.00    +0.000 A 
BRANCH  23  30
ATOM     29  C   UNL     1      10.806  13.565  17.151  0.00  0.00    +0.000 C 
ATOM     30  O   UNL     1       9.538  13.246  17.705  0.00  0.00    +0.000 OA
ENDBRANCH  23  30
BRANCH  28  31
ATOM     31  O   UNL     1      10.464  12.737  20.480  0.00  0.00    +0.000 OA
ATOM     32  H   UNL     1      10.009  12.812  21.335  0.00  0.00    +0.000 HD
ENDBRANCH  28  31
ENDBRANCH  21  25
ENDBRANCH  19  22
ENDBRANCH   1  19
TORSDOF 7
ENDMDL
MODEL 2
REMARK VINA RESULT:      -8.6      5.200     11.102
REMARK  Name = 
REMARK  9 active torsions:
REMARK  status: ('A' for Active; 'I' for Inactive)
REMARK    1  A    between atoms: C_1  and  O_2
REMARK    2  A    between atoms: O_2  and  C_3
REMARK    3  A    between atoms: C_5  and  C_6
REMARK    4  A    between atoms: C_7  and  C_8
REMARK    5  A    between atoms: C_8  and  C_10
REMARK    6  A    between atoms: C_14  and  N_15
REMARK    7  A    between atoms: C_17  and  C_18
REMARK    8  A    between atoms: C_21  and  C_22
REMARK    9  A    between atoms: C_30  and  O_31
REMARK                            x       y       z     vdW  Elec       q    Type
REMARK                         _______ _______ _______ _____ _____    ______ ____
ROOT
ATOM      1  C   UNL     1      -0.155  10.323  21.374  0.00  0.00    +0.000 A 
ATOM      2  C   UNL     1      -0.689  11.150  20.382  0.00  0.00    +0.000 A 
ATOM      3  C   UNL     1      -0.322  10.971  19.049  0.00  0.00    +0.000 A 
ATOM      4  C   UNL     1       0.566   9.951  18.696  0.00  0.00    +0.000 A 
ATOM      5  C   UNL     1       1.078   9.092  19.679  0.00  0.00    +0.000 A 
ATOM      6  C   UNL     1       0.716   9.281  21.021  0.00  0.00    +0.000 A 
ENDROOT
BRANCH   5   7
ATOM      7  N   UNL     1       1.932   8.015  19.332  0.00  0.00    +0.000 N 
ATOM      8  C   UNL     1       2.621   7.819  18.162  0.00  0.00    +0.000 A 
ATOM      9  C   UNL     1       3.217   6.588  18.304  0.00  0.00    +0.000 A 
ATOM     10  N   UNL     1       2.943   6.099  19.550  0.00  0.00    +0.000 NA
ATOM     11  N   UNL     1       2.164   6.977  20.173  0.00  0.00    +0.000 NA
BRANCH   9  12
ATOM     12  C   UNL     1       4.029   5.923  17.306  0.00  0.00    +0.000 A 
ATOM     13  C   UNL     1       4.740   6.673  16.363  0.00  0.00    +0.000 A 
ATOM     14  C   UNL     1       5.503   6.035  15.380  0.00  0.00    +0.000 A 
ATOM     15  C   UNL     1       5.574   4.638  15.331  0.00  0.00    +0.000 A 
ATOM     16  C   UNL     1       6.387   3.938  14.285  0.00  0.00    +0.000 C 
ATOM     17  C   UNL     1       4.879   3.888  16.283  0.00  0.00    +0.000 A 
ATOM     18  C   UNL     1       4.115   4.525  17.262  0.00  0.00    +0.000 A 
ENDBRANCH   9  12
ENDBRANCH   5   7
BRANCH   1  19
ATOM     19  C   UNL     1      -0.555  10.551  22.790  0.00  0.00    +0.000 C 
ATOM     20  O   UNL     1       0.063  10.026  23.709  0.00  0.00    +0.000 OA
BRANCH  19  22
ATOM     21  C   UNL     1      -1.643  12.688  23.365  0.00  0.00    +0.000 C 
ATOM     22  C   UNL     1      -1.755  11.398  23.014  0.00  0.00    +0.000 C 
BRANCH  21  25
ATOM     23  C   UNL     1      -5.226  13.921  23.369  0.00  0.00    +0.000 A 
ATOM     24  C   UNL     1      -4.084  13.119  23.195  0.00  0.00    +0.000 A 
ATOM     25  C   UNL     1      -2.808  13.564  23.570  0.00  0.00    +0.000 A 
ATOM     26  C   UNL     1      -2.695  14.822  24.173  0.00  0.00    +0.000 A 
ATOM     27  C   UNL     1      -3.817  15.633  24.347  0.00  0.00    +0.000 A 
ATOM     28  C   UNL     1      -5.076  15.188  23.940  0.00  0.00    +0.000 A 
BRANCH  23  30
ATOM     29  C   UNL     1      -7.241  12.744  23.901  0.00  0.00    +0.000 C 
ATOM     30  O   UNL     1      -6.375  13.317  22.932  0.00  0.00    +0.000 OA
ENDBRANCH  23  30
BRANCH  28  31
ATOM     31  O   UNL     1      -6.141  16.029  24.120  0.00  0.00    +0.000 OA
ATOM     32  H   UNL     1      -6.490  15.914  25.019  0.00  0.00    +0.000 HD
ENDBRANCH  28  31
ENDBRANCH  21  25
ENDBRANCH  19  22
ENDBRANCH   1  19
TORSDOF 7
ENDMDL
MODEL 3
REMARK VINA RESULT:      -8.4      5.099     10.924
REMARK  Name = 
REMARK  9 active torsions:
REMARK  status: ('A' for Active; 'I' for Inactive)
REMARK    1  A    between atoms: C_1  and  O_2
REMARK    2  A    between atoms: O_2  and  C_3
REMARK    3  A    between atoms: C_5  and  C_6
REMARK    4  A    between atoms: C_7  and  C_8
REMARK    5  A    between atoms: C_8  and  C_10
REMARK    6  A    between atoms: C_14  and  N_15
REMARK    7  A    between atoms: C_17  and  C_18
REMARK    8  A    between atoms: C_21  and  C_22
REMARK    9  A    between atoms: C_30  and  O_31
REMARK                            x       y       z     vdW  Elec       q    Type
REMARK                         _______ _______ _______ _____ _____    ______ ____
ROOT
ATOM      1  C   UNL     1      -0.190  10.615  21.155  0.00  0.00    +0.000 A 
ATOM      2  C   UNL     1      -0.765  11.357  20.119  0.00  0.00    +0.000 A 
ATOM      3  C   UNL     1      -0.433  11.082  18.793  0.00  0.00    +0.000 A 
ATOM      4  C   UNL     1       0.461  10.050  18.493  0.00  0.00    +0.000 A 
ATOM      5  C   UNL     1       1.014   9.275  19.523  0.00  0.00    +0.000 A 
ATOM      6  C   UNL     1       0.687   9.562  20.856  0.00  0.00    +0.000 A 
ENDROOT
BRANCH   5   7
ATOM      7  N   UNL     1       1.874   8.187  19.233  0.00  0.00    +0.000 N 
ATOM      8  C   UNL     1       2.557   7.928  18.072  0.00  0.00    +0.000 A 
ATOM      9  C   UNL     1       3.164   6.713  18.281  0.00  0.00    +0.000 A 
ATOM     10  N   UNL     1       2.902   6.295  19.556  0.00  0.00    +0.000 NA
ATOM     11  N   UNL     1       2.119   7.201  20.131  0.00  0.00    +0.000 NA
BRANCH   9  12
ATOM     12  C   UNL     1       3.975   5.996  17.319  0.00  0.00    +0.000 A 
ATOM     13  C   UNL     1       4.775   6.699  16.411  0.00  0.00    +0.000 A 
ATOM     14  C   UNL     1       5.538   6.013  15.461  0.00  0.00    +0.000 A 
ATOM     15  C   UNL     1       5.521   4.615  15.411  0.00  0.00    +0.000 A 
ATOM     16  C   UNL     1       6.333   3.864  14.400  0.00  0.00    +0.000 C 
ATOM     17  C   UNL     1       4.737   3.911  16.328  0.00  0.00    +0.000 A 
ATOM     18  C   UNL     1       3.972   4.595  17.274  0.00  0.00    +0.000 A 
ENDBRANCH   9  12
ENDBRANCH   5   7
BRANCH   1  19
ATOM     19  C   UNL     1      -0.554  10.945  22.560  0.00  0.00    +0.000 C 
ATOM     20  O   UNL     1      -0.190  10.230  23.487  0.00  0.00    +0.000 OA
BRANCH  19  22
ATOM     21  C   UNL     1      -2.625  12.046  23.321  0.00  0.00    +0.000 C 
ATOM     22  C   UNL     1      -1.410  12.143  22.762  0.00  0.00    +0.000 C 
BRANCH  21  25
ATOM     23  C   UNL     1      -3.798  15.422  24.579  0.00  0.00    +0.000 A 
ATOM     24  C   UNL     1      -3.008  14.288  24.322  0.00  0.00    +0.000 A 
ATOM     25  C   UNL     1      -3.490  13.213  23.561  0.00  0.00    +0.000 A 
ATOM     26  C   UNL     1      -4.774  13.311  23.013  0.00  0.00    +0.000 A 
ATOM     27  C   UNL     1      -5.574  14.426  23.264  0.00  0.00    +0.000 A 
ATOM     28  C   UNL     1      -5.091  15.475  24.050  0.00  0.00    +0.000 A 
BRANCH  23  30
ATOM     29  C   UNL     1      -2.298  17.283  24.701  0.00  0.00    +0.000 C 
ATOM     30  O   UNL     1      -3.157  16.357  25.349  0.00  0.00    +0.000 OA
ENDBRANCH  23  30
BRANCH  28  31
ATOM     31  O   UNL     1      -5.921  16.538  24.278  0.00  0.00    +0.000 OA
ATOM     32  H   UNL     1      -6.827  16.298  24.021  0.00  0.00    +0.000 HD
ENDBRANCH  28  31
ENDBRANCH  21  25
ENDBRANCH  19  22
ENDBRANCH   1  19
TORSDOF 7
ENDMDL
MODEL 4
REMARK VINA RESULT:      -8.4      1.346      1.829
REMARK  Name = 
REMARK  9 active torsions:
REMARK  status: ('A' for Active; 'I' for Inactive)
REMARK    1  A    between atoms: C_1  and  O_2
REMARK    2  A    between atoms: O_2  and  C_3
REMARK    3  A    between atoms: C_5  and  C_6
REMARK    4  A    between atoms: C_7  and  C_8
REMARK    5  A    between atoms: C_8  and  C_10
REMARK    6  A    between atoms: C_14  and  N_15
REMARK    7  A    between atoms: C_17  and  C_18
REMARK    8  A    between atoms: C_21  and  C_22
REMARK    9  A    between atoms: C_30  and  O_31
REMARK                            x       y       z     vdW  Elec       q    Type
REMARK                         _______ _______ _______ _____ _____    ______ ____
ROOT
ATOM      1  C   UNL     1       5.626   5.917  17.279  0.00  0.00    +0.000 A 
ATOM      2  C   UNL     1       5.417   4.646  16.736  0.00  0.00    +0.000 A 
ATOM      3  C   UNL     1       4.307   3.894  17.121  0.00  0.00    +0.000 A 
ATOM      4  C   UNL     1       3.388   4.416  18.036  0.00  0.00    +0.000 A 
ATOM      5  C   UNL     1       3.569   5.706  18.556  0.00  0.00    +0.000 A 
ATOM      6  C   UNL     1       4.692   6.455  18.176  0.00  0.00    +0.000 A 
ENDROOT
BRANCH   5   7
ATOM      7  N   UNL     1       2.616   6.275  19.438  0.00  0.00    +0.000 N 
ATOM      8  C   UNL     1       2.243   7.590  19.554  0.00  0.00    +0.000 A 
ATOM      9  C   UNL     1       1.363   7.616  20.610  0.00  0.00    +0.000 A 
ATOM     10  N   UNL     1       1.168   6.342  21.062  0.00  0.00    +0.000 NA
ATOM     11  N   UNL     1       1.931   5.529  20.340  0.00  0.00    +0.000 NA
BRANCH   9  12
ATOM     12  C   UNL     1       0.720   8.799  21.145  0.00  0.00    +0.000 A 
ATOM     13  C   UNL     1       0.460   9.894  20.315  0.00  0.00    +0.000 A 
ATOM     14  C   UNL     1      -0.135  11.049  20.832  0.00  0.00    +0.000 A 
ATOM     15  C   UNL     1      -0.487  11.122  22.184  0.00  0.00    +0.000 A 
ATOM     16  C   UNL     1      -1.126  12.352  22.755  0.00  0.00    +0.000 C 
ATOM     17  C   UNL     1      -0.245  10.022  23.011  0.00  0.00    +0.000 A 
ATOM     18  C   UNL     1       0.352   8.871  22.495  0.00  0.00    +0.000 A 
ENDBRANCH   9  12
ENDBRANCH   5   7
BRANCH   1  19
ATOM     19  C   UNL     1       6.829   6.687  16.859  0.00  0.00    +0.000 C 
ATOM     20  O   UNL     1       7.541   6.288  15.945  0.00  0.00    +0.000 OA
BRANCH  19  22
ATOM     21  C   UNL     1       8.335   8.513  17.552  0.00  0.00    +0.000 C 
ATOM     22  C   UNL     1       7.136   7.917  17.634  0.00  0.00    +0.000 C 
BRANCH  21  25
ATOM     23  C   UNL     1       8.798  12.194  18.319  0.00  0.00    +0.000 A 
ATOM     24  C   UNL     1       8.493  10.990  17.661  0.00  0.00    +0.000 A 
ATOM     25  C   UNL     1       8.666   9.746  18.284  0.00  0.00    +0.000 A 
ATOM     26  C   UNL     1       9.111   9.725  19.611  0.00  0.00    +0.000 A 
ATOM     27  C   UNL     1       9.425  10.910  20.277  0.00  0.00    +0.000 A 
ATOM     28  C   UNL     1       9.277  12.140  19.632  0.00  0.00    +0.000 A 
BRANCH  23  30
ATOM     29  C   UNL     1       7.326  13.964  17.669  0.00  0.00    +0.000 C 
ATOM     30  O   UNL     1       8.574  13.300  17.543  0.00  0.00    +0.000 OA
ENDBRANCH  23  30
BRANCH  28  31
ATOM     31  O   UNL     1       9.613  13.271  20.325  0.00  0.00    +0.000 OA
ATOM     32  H   UNL     1      10.557  13.238  20.551  0.00  0.00    +0.000 HD
ENDBRANCH  28  31
ENDBRANCH  21  25
ENDBRANCH  19  22
ENDBRANCH   1  19
TORSDOF 7
ENDMDL
MODEL 5
REMARK VINA RESULT:      -8.4      5.091     10.692
REMARK  Name = 
REMARK  9 active torsions:
REMARK  status: ('A' for Active; 'I' for Inactive)
REMARK    1  A    between atoms: C_1  and  O_2
REMARK    2  A    between atoms: O_2  and  C_3
REMARK    3  A    between atoms: C_5  and  C_6
REMARK    4  A    between atoms: C_7  and  C_8
REMARK    5  A    between atoms: C_8  and  C_10
REMARK    6  A    between atoms: C_14  and  N_15
REMARK    7  A    between atoms: C_17  and  C_18
REMARK    8  A    between atoms: C_21  and  C_22
REMARK    9  A    between atoms: C_30  and  O_31
REMARK                            x       y       z     vdW  Elec       q    Type
REMARK                         _______ _______ _______ _____ _____    ______ ____
ROOT
ATOM      1  C   UNL     1       0.064  10.087  21.446  0.00  0.00    +0.000 A 
ATOM      2  C   UNL     1      -0.482  10.953  20.495  0.00  0.00    +0.000 A 
ATOM      3  C   UNL     1      -0.134  10.826  19.151  0.00  0.00    +0.000 A 
ATOM      4  C   UNL     1       0.747   9.819  18.746  0.00  0.00    +0.000 A 
ATOM      5  C   UNL     1       1.269   8.921  19.688  0.00  0.00    +0.000 A 
ATOM      6  C   UNL     1       0.927   9.058  21.041  0.00  0.00    +0.000 A 
ENDROOT
BRANCH   5   7
ATOM      7  N   UNL     1       2.115   7.857  19.287  0.00  0.00    +0.000 N 
ATOM      8  C   UNL     1       2.755   7.685  18.085  0.00  0.00    +0.000 A 
ATOM      9  C   UNL     1       3.366   6.457  18.181  0.00  0.00    +0.000 A 
ATOM     10  N   UNL     1       3.149   5.946  19.429  0.00  0.00    +0.000 NA
ATOM     11  N   UNL     1       2.390   6.807  20.099  0.00  0.00    +0.000 NA
BRANCH   9  12
ATOM     12  C   UNL     1       4.139   5.814  17.139  0.00  0.00    +0.000 A 
ATOM     13  C   UNL     1       4.198   4.419  17.066  0.00  0.00    +0.000 A 
ATOM     14  C   UNL     1       4.965   3.793  16.079  0.00  0.00    +0.000 A 
ATOM     15  C   UNL     1       5.677   4.553  15.143  0.00  0.00    +0.000 A 
ATOM     16  C   UNL     1       6.504   3.899  14.078  0.00  0.00    +0.000 C 
ATOM     17  C   UNL     1       5.604   5.947  15.203  0.00  0.00    +0.000 A 
ATOM     18  C   UNL     1       4.841   6.572  16.191  0.00  0.00    +0.000 A 
ENDBRANCH   9  12
ENDBRANCH   5   7
BRANCH   1  19
ATOM     19  C   UNL     1      -0.316  10.260  22.876  0.00  0.00    +0.000 C 
ATOM     20  O   UNL     1       0.344   9.742  23.768  0.00  0.00    +0.000 OA
BRANCH  19  22
ATOM     21  C   UNL     1      -1.517  12.381  23.258  0.00  0.00    +0.000 C 
ATOM     22  C   UNL     1      -1.550  11.044  23.146  0.00  0.00    +0.000 C 
BRANCH  21  25
ATOM     23  C   UNL     1      -3.731  15.403  23.824  0.00  0.00    +0.000 A 
ATOM     24  C   UNL     1      -2.610  14.586  23.591  0.00  0.00    +0.000 A 
ATOM     25  C   UNL     1      -2.721  13.192  23.500  0.00  0.00    +0.000 A 
ATOM     26  C   UNL     1      -3.995  12.620  23.600  0.00  0.00    +0.000 A 
ATOM     27  C   UNL     1      -5.117  13.414  23.837  0.00  0.00    +0.000 A 
ATOM     28  C   UNL     1      -4.985  14.799  23.957  0.00  0.00    +0.000 A 
BRANCH  23  30
ATOM     29  C   UNL     1      -2.090  17.127  23.583  0.00  0.00    +0.000 C 
ATOM     30  O   UNL     1      -3.419  16.734  23.891  0.00  0.00    +0.000 OA
ENDBRANCH  23  30
BRANCH  28  31
ATOM     31  O   UNL     1      -6.115  15.530  24.204  0.00  0.00    +0.000 OA
ATOM     32  H   UNL     1      -6.884  15.067  23.832  0.00  0.00    +0.000 HD
ENDBRANCH  28  31
ENDBRANCH  21  25
ENDBRANCH  19  22
ENDBRANCH   1  19
TORSDOF 7
ENDMDL
MODEL 6
REMARK VINA RESULT:      -8.3      0.663      1.747
REMARK  Name = 
REMARK  9 active torsions:
REMARK  status: ('A' for Active; 'I' for Inactive)
REMARK    1  A    between atoms: C_1  and  O_2
REMARK    2  A    between atoms: O_2  and  C_3
REMARK    3  A    between atoms: C_5  and  C_6
REMARK    4  A    between atoms: C_7  and  C_8
REMARK    5  A    between atoms: C_8  and  C_10
REMARK    6  A    between atoms: C_14  and  N_15
REMARK    7  A    between atoms: C_17  and  C_18
REMARK    8  A    between atoms: C_21  and  C_22
REMARK    9  A    between atoms: C_30  and  O_31
REMARK                            x       y       z     vdW  Elec       q    Type
REMARK                         _______ _______ _______ _____ _____    ______ ____
ROOT
ATOM      1  C   UNL     1       5.619   6.112  17.458  0.00  0.00    +0.000 A 
ATOM      2  C   UNL     1       5.125   4.811  17.325  0.00  0.00    +0.000 A 
ATOM      3  C   UNL     1       3.785   4.539  17.597  0.00  0.00    +0.000 A 
ATOM      4  C   UNL     1       2.924   5.570  17.985  0.00  0.00    +0.000 A 
ATOM      5  C   UNL     1       3.401   6.886  18.084  0.00  0.00    +0.000 A 
ATOM      6  C   UNL     1       4.752   7.154  17.821  0.00  0.00    +0.000 A 
ENDROOT
BRANCH   5   7
ATOM      7  N   UNL     1       2.529   7.952  18.417  0.00  0.00    +0.000 N 
ATOM      8  C   UNL     1       1.954   8.234  19.630  0.00  0.00    +0.000 A 
ATOM      9  C   UNL     1       1.131   9.309  19.390  0.00  0.00    +0.000 A 
ATOM     10  N   UNL     1       1.266   9.695  18.087  0.00  0.00    +0.000 NA
ATOM     11  N   UNL     1       2.124   8.866  17.500  0.00  0.00    +0.000 NA
BRANCH   9  12
ATOM     12  C   UNL     1       0.276   9.952  20.366  0.00  0.00    +0.000 A 
ATOM     13  C   UNL     1      -0.470  11.082  20.012  0.00  0.00    +0.000 A 
ATOM     14  C   UNL     1      -1.276  11.723  20.958  0.00  0.00    +0.000 A 
ATOM     15  C   UNL     1      -1.357  11.238  22.269  0.00  0.00    +0.000 A 
ATOM     16  C   UNL     1      -2.216  11.912  23.295  0.00  0.00    +0.000 C 
ATOM     17  C   UNL     1      -0.627  10.099  22.619  0.00  0.00    +0.000 A 
ATOM     18  C   UNL     1       0.181   9.462  21.676  0.00  0.00    +0.000 A 
ENDBRANCH   9  12
ENDBRANCH   5   7
BRANCH   1  19
ATOM     19  C   UNL     1       7.059   6.366  17.176  0.00  0.00    +0.000 C 
ATOM     20  O   UNL     1       7.822   5.439  16.933  0.00  0.00    +0.000 OA
BRANCH  19  22
ATOM     21  C   UNL     1       8.109   8.259  18.358  0.00  0.00    +0.000 C 
ATOM     22  C   UNL     1       7.514   7.778  17.256  0.00  0.00    +0.000 C 
BRANCH  21  25
ATOM     23  C   UNL     1       9.716  11.379  19.786  0.00  0.00    +0.000 A 
ATOM     24  C   UNL     1       9.236  10.065  19.637  0.00  0.00    +0.000 A 
ATOM     25  C   UNL     1       8.596   9.644  18.463  0.00  0.00    +0.000 A 
ATOM     26  C   UNL     1       8.481  10.554  17.407  0.00  0.00    +0.000 A 
ATOM     27  C   UNL     1       8.945  11.863  17.539  0.00  0.00    +0.000 A 
ATOM     28  C   UNL     1       9.553  12.277  18.727  0.00  0.00    +0.000 A 
BRANCH  23  30
ATOM     29  C   UNL     1       9.573  12.349  21.969  0.00  0.00    +0.000 C 
ATOM     30  O   UNL     1      10.299  11.601  21.004  0.00  0.00    +0.000 OA
ENDBRANCH  23  30
BRANCH  28  31
ATOM     31  O   UNL     1       9.976  13.576  18.810  0.00  0.00    +0.000 OA
ATOM     32  H   UNL     1      10.923  13.617  18.598  0.00  0.00    +0.000 HD
ENDBRANCH  28  31
ENDBRANCH  21  25
ENDBRANCH  19  22
ENDBRANCH   1  19
TORSDOF 7
ENDMDL
MODEL 7
REMARK VINA RESULT:      -8.3      3.165      6.101
REMARK  Name = 
REMARK  9 active torsions:
REMARK  status: ('A' for Active; 'I' for Inactive)
REMARK    1  A    between atoms: C_1  and  O_2
REMARK    2  A    between atoms: O_2  and  C_3
REMARK    3  A    between atoms: C_5  and  C_6
REMARK    4  A    between atoms: C_7  and  C_8
REMARK    5  A    between atoms: C_8  and  C_10
REMARK    6  A    between atoms: C_14  and  N_15
REMARK    7  A    between atoms: C_17  and  C_18
REMARK    8  A    between atoms: C_21  and  C_22
REMARK    9  A    between atoms: C_30  and  O_31
REMARK                            x       y       z     vdW  Elec       q    Type
REMARK                         _______ _______ _______ _____ _____    ______ ____
ROOT
ATOM      1  C   UNL     1       1.582   8.161  19.696  0.00  0.00    +0.000 A 
ATOM      2  C   UNL     1       1.863   8.770  18.470  0.00  0.00    +0.000 A 
ATOM      3  C   UNL     1       1.359  10.038  18.185  0.00  0.00    +0.000 A 
ATOM      4  C   UNL     1       0.586  10.715  19.133  0.00  0.00    +0.000 A 
ATOM      5  C   UNL     1       0.330  10.128  20.381  0.00  0.00    +0.000 A 
ATOM      6  C   UNL     1       0.829   8.848  20.660  0.00  0.00    +0.000 A 
ENDROOT
BRANCH   5   7
ATOM      7  N   UNL     1      -0.400  10.825  21.376  0.00  0.00    +0.000 N 
ATOM      8  C   UNL     1      -1.520  11.602  21.222  0.00  0.00    +0.000 A 
ATOM      9  C   UNL     1      -1.771  12.115  22.473  0.00  0.00    +0.000 A 
ATOM     10  N   UNL     1      -0.863  11.603  23.356  0.00  0.00    +0.000 NA
ATOM     11  N   UNL     1      -0.034  10.813  22.682  0.00  0.00    +0.000 NA
BRANCH   9  12
ATOM     12  C   UNL     1      -2.839  13.032  22.812  0.00  0.00    +0.000 A 
ATOM     13  C   UNL     1      -2.734  13.848  23.943  0.00  0.00    +0.000 A 
ATOM     14  C   UNL     1      -3.775  14.715  24.290  0.00  0.00    +0.000 A 
ATOM     15  C   UNL     1      -4.932  14.785  23.506  0.00  0.00    +0.000 A 
ATOM     16  C   UNL     1      -6.057  15.709  23.864  0.00  0.00    +0.000 C 
ATOM     17  C   UNL     1      -5.031  13.984  22.366  0.00  0.00    +0.000 A 
ATOM     18  C   UNL     1      -3.994  13.117  22.021  0.00  0.00    +0.000 A 
ENDBRANCH   9  12
ENDBRANCH   5   7
BRANCH   1  19
ATOM     19  C   UNL     1       2.123   6.800  19.961  0.00  0.00    +0.000 C 
ATOM     20  O   UNL     1       1.588   6.061  20.779  0.00  0.00    +0.000 OA
BRANCH  19  22
ATOM     21  C   UNL     1       3.300   5.939  17.973  0.00  0.00    +0.000 C 
ATOM     22  C   UNL     1       3.355   6.418  19.225  0.00  0.00    +0.000 C 
BRANCH  21  25
ATOM     23  C   UNL     1       6.771   6.138  16.466  0.00  0.00    +0.000 A 
ATOM     24  C   UNL     1       5.603   6.441  17.189  0.00  0.00    +0.000 A 
ATOM     25  C   UNL     1       4.501   5.575  17.203  0.00  0.00    +0.000 A 
ATOM     26  C   UNL     1       4.602   4.362  16.512  0.00  0.00    +0.000 A 
ATOM     27  C   UNL     1       5.750   4.048  15.785  0.00  0.00    +0.000 A 
ATOM     28  C   UNL     1       6.828   4.935  15.755  0.00  0.00    +0.000 A 
BRANCH  23  30
ATOM     29  C   UNL     1       7.868   7.790  17.805  0.00  0.00    +0.000 C 
ATOM     30  O   UNL     1       7.730   7.110  16.567  0.00  0.00    +0.000 OA
ENDBRANCH  23  30
BRANCH  28  31
ATOM     31  O   UNL     1       7.924   4.586  15.014  0.00  0.00    +0.000 OA
ATOM     32  H   UNL     1       8.701   5.063  15.349  0.00  0.00    +0.000 HD
ENDBRANCH  28  31
ENDBRANCH  21  25
ENDBRANCH  19  22
ENDBRANCH   1  19
TORSDOF 7
ENDMDL
MODEL 8
REMARK VINA RESULT:      -8.2      5.168     10.736
REMARK  Name = 
REMARK  9 active torsions:
REMARK  status: ('A' for Active; 'I' for Inactive)
REMARK    1  A    between atoms: C_1  and  O_2
REMARK    2  A    between atoms: O_2  and  C_3
REMARK    3  A    between atoms: C_5  and  C_6
REMARK    4  A    between atoms: C_7  and  C_8
REMARK    5  A    between atoms: C_8  and  C_10
REMARK    6  A    between atoms: C_14  and  N_15
REMARK    7  A    between atoms: C_17  and  C_18
REMARK    8  A    between atoms: C_21  and  C_22
REMARK    9  A    between atoms: C_30  and  O_31
REMARK                            x       y       z     vdW  Elec       q    Type
REMARK                         _______ _______ _______ _____ _____    ______ ____
ROOT
ATOM      1  C   UNL     1       0.309  10.804  20.554  0.00  0.00    +0.000 A 
ATOM      2  C   UNL     1      -0.165  10.689  21.864  0.00  0.00    +0.000 A 
ATOM      3  C   UNL     1      -0.000   9.496  22.566  0.00  0.00    +0.000 A 
ATOM      4  C   UNL     1       0.659   8.416  21.971  0.00  0.00    +0.000 A 
ATOM      5  C   UNL     1       1.172   8.535  20.671  0.00  0.00    +0.000 A 
ATOM      6  C   UNL     1       0.995   9.732  19.963  0.00  0.00    +0.000 A 
ENDROOT
BRANCH   5   7
ATOM      7  N   UNL     1       1.896   7.472  20.075  0.00  0.00    +0.000 N 
ATOM      8  C   UNL     1       2.646   7.492  18.927  0.00  0.00    +0.000 A 
ATOM      9  C   UNL     1       3.053   6.191  18.747  0.00  0.00    +0.000 A 
ATOM     10  N   UNL     1       2.611   5.435  19.795  0.00  0.00    +0.000 NA
ATOM     11  N   UNL     1       1.911   6.223  20.604  0.00  0.00    +0.000 NA
BRANCH   9  12
ATOM     12  C   UNL     1       3.845   5.699  17.639  0.00  0.00    +0.000 A 
ATOM     13  C   UNL     1       3.961   4.324  17.412  0.00  0.00    +0.000 A 
ATOM     14  C   UNL     1       4.747   3.843  16.361  0.00  0.00    +0.000 A 
ATOM     15  C   UNL     1       5.422   4.730  15.514  0.00  0.00    +0.000 A 
ATOM     16  C   UNL     1       6.269   4.232  14.383  0.00  0.00    +0.000 C 
ATOM     17  C   UNL     1       5.294   6.105  15.728  0.00  0.00    +0.000 A 
ATOM     18  C   UNL     1       4.512   6.584  16.780  0.00  0.00    +0.000 A 
ENDBRANCH   9  12
ENDBRANCH   5   7
BRANCH   1  19
ATOM     19  C   UNL     1       0.102  12.086  19.826  0.00  0.00    +0.000 C 
ATOM     20  O   UNL     1       1.048  12.822  19.569  0.00  0.00    +0.000 OA
BRANCH  19  22
ATOM     21  C   UNL     1      -2.141  11.525  18.969  0.00  0.00    +0.000 C 
ATOM     22  C   UNL     1      -1.300  12.436  19.481  0.00  0.00    +0.000 C 
BRANCH  21  25
ATOM     23  C   UNL     1      -5.717  12.722  19.340  0.00  0.00    +0.000 A 
ATOM     24  C   UNL     1      -4.371  12.417  19.606  0.00  0.00    +0.000 A 
ATOM     25  C   UNL     1      -3.543  11.829  18.639  0.00  0.00    +0.000 A 
ATOM     26  C   UNL     1      -4.076  11.590  17.367  0.00  0.00    +0.000 A 
ATOM     27  C   UNL     1      -5.411  11.881  17.087  0.00  0.00    +0.000 A 
ATOM     28  C   UNL     1      -6.232  12.438  18.071  0.00  0.00    +0.000 A 
BRANCH  23  30
ATOM     29  C   UNL     1      -5.737  14.366  21.078  0.00  0.00    +0.000 C 
ATOM     30  O   UNL     1      -6.362  13.280  20.411  0.00  0.00    +0.000 OA
ENDBRANCH  23  30
BRANCH  28  31
ATOM     31  O   UNL     1      -7.537  12.689  17.749  0.00  0.00    +0.000 OA
ATOM     32  H   UNL     1      -7.923  11.899  17.336  0.00  0.00    +0.000 HD
ENDBRANCH  28  31
ENDBRANCH  21  25
ENDBRANCH  19  22
ENDBRANCH   1  19
TORSDOF 7
ENDMDL
MODEL 9
REMARK VINA RESULT:      -8.2      3.220      5.444
REMARK  Name = 
REMARK  9 active torsions:
REMARK  status: ('A' for Active; 'I' for Inactive)
REMARK    1  A    between atoms: C_1  and  O_2
REMARK    2  A    between atoms: O_2  and  C_3
REMARK    3  A    between atoms: C_5  and  C_6
REMARK    4  A    between atoms: C_7  and  C_8
REMARK    5  A    between atoms: C_8  and  C_10
REMARK    6  A    between atoms: C_14  and  N_15
REMARK    7  A    between atoms: C_17  and  C_18
REMARK    8  A    between atoms: C_21  and  C_22
REMARK    9  A    between atoms: C_30  and  O_31
REMARK                            x       y       z     vdW  Elec       q    Type
REMARK                         _______ _______ _______ _____ _____    ______ ____
ROOT
ATOM      1  C   UNL     1       2.080   3.424  19.260  0.00  0.00    +0.000 A 
ATOM      2  C   UNL     1       2.290   2.722  20.451  0.00  0.00    +0.000 A 
ATOM      3  C   UNL     1       2.286   3.396  21.671  0.00  0.00    +0.000 A 
ATOM      4  C   UNL     1       2.051   4.773  21.711  0.00  0.00    +0.000 A 
ATOM      5  C   UNL     1       1.802   5.480  20.525  0.00  0.00    +0.000 A 
ATOM      6  C   UNL     1       1.818   4.801  19.298  0.00  0.00    +0.000 A 
ENDROOT
BRANCH   5   7
ATOM      7  N   UNL     1       1.502   6.865  20.553  0.00  0.00    +0.000 N 
ATOM      8  C   UNL     1       0.589   7.522  21.339  0.00  0.00    +0.000 A 
ATOM      9  C   UNL     1       0.628   8.828  20.909  0.00  0.00    +0.000 A 
ATOM     10  N   UNL     1       1.585   8.953  19.942  0.00  0.00    +0.000 NA
ATOM     11  N   UNL     1       2.117   7.753  19.734  0.00  0.00    +0.000 NA
BRANCH   9  12
ATOM     12  C   UNL     1      -0.193   9.908  21.416  0.00  0.00    +0.000 A 
ATOM     13  C   UNL     1      -0.644  10.913  20.553  0.00  0.00    +0.000 A 
ATOM     14  C   UNL     1      -1.414  11.973  21.041  0.00  0.00    +0.000 A 
ATOM     15  C   UNL     1      -1.752  12.039  22.398  0.00  0.00    +0.000 A 
ATOM     16  C   UNL     1      -2.576  13.168  22.939  0.00  0.00    +0.000 C 
ATOM     17  C   UNL     1      -1.317  11.028  23.258  0.00  0.00    +0.000 A 
ATOM     18  C   UNL     1      -0.546   9.971  22.771  0.00  0.00    +0.000 A 
ENDBRANCH   9  12
ENDBRANCH   5   7
BRANCH   1  19
ATOM     19  C   UNL     1       2.108   2.676  17.973  0.00  0.00    +0.000 C 
ATOM     20  O   UNL     1       1.362   1.723  17.785  0.00  0.00    +0.000 OA
BRANCH  19  22
ATOM     21  C   UNL     1       4.196   3.819  17.328  0.00  0.00    +0.000 C 
ATOM     22  C   UNL     1       3.111   3.117  16.969  0.00  0.00    +0.000 C 
BRANCH  21  25
ATOM     23  C   UNL     1       7.098   5.736  15.824  0.00  0.00    +0.000 A 
ATOM     24  C   UNL     1       6.103   5.287  16.710  0.00  0.00    +0.000 A 
ATOM     25  C   UNL     1       5.223   4.251  16.366  0.00  0.00    +0.000 A 
ATOM     26  C   UNL     1       5.385   3.629  15.123  0.00  0.00    +0.000 A 
ATOM     27  C   UNL     1       6.362   4.066  14.228  0.00  0.00    +0.000 A 
ATOM     28  C   UNL     1       7.211   5.120  14.573  0.00  0.00    +0.000 A 
BRANCH  23  30
ATOM     29  C   UNL     1       7.421   7.362  17.548  0.00  0.00    +0.000 C 
ATOM     30  O   UNL     1       7.848   6.760  16.335  0.00  0.00    +0.000 OA
ENDBRANCH  23  30
BRANCH  28  31
ATOM     31  O   UNL     1       8.142   5.519  13.654  0.00  0.00    +0.000 OA
ATOM     32  H   UNL     1       7.694   5.971  12.920  0.00  0.00    +0.000 HD
ENDBRANCH  28  31
ENDBRANCH  21  25
ENDBRANCH  19  22
ENDBRANCH   1  19
TORSDOF 7
ENDMDL
