MODEL 1
REMARK VINA RESULT:      -8.8      0.000      0.000
REMARK  Name = 
REMARK  7 active torsions:
REMARK  status: ('A' for Active; 'I' for Inactive)
REMARK    1  A    between atoms: C_1  and  C_2
REMARK    2  A    between atoms: C_5  and  N_6
REMARK    3  A    between atoms: C_7  and  C_9
REMARK    4  A    between atoms: C_9  and  N_10
REMARK    5  A    between atoms: C_11  and  S_12
REMARK    6  A    between atoms: S_12  and  C_13
REMARK    7  A    between atoms: C_13  and  C_14
REMARK                            x       y       z     vdW  Elec       q    Type
REMARK                         _______ _______ _______ _____ _____    ______ ____
ROOT
ATOM      1  N   UNL     1       3.349   4.978  18.315  0.00  0.00    +0.000 N 
ATOM      2  C   UNL     1       3.643   4.088  17.309  0.00  0.00    +0.000 A 
ATOM      3  N   UNL     1       3.168   2.885  17.559  0.00  0.00    +0.000 NA
ATOM      4  C   UNL     1       2.537   2.993  18.769  0.00  0.00    +0.000 A 
ATOM      5  C   UNL     1       1.823   2.059  19.526  0.00  0.00    +0.000 A 
ATOM      6  C   UNL     1       1.252   2.506  20.720  0.00  0.00    +0.000 A 
ATOM      7  C   UNL     1       1.448   3.826  21.115  0.00  0.00    +0.000 A 
ATOM      8  N   UNL     1       2.161   4.763  20.437  0.00  0.00    +0.000 NA
ATOM      9  C   UNL     1       2.652   4.282  19.273  0.00  0.00    +0.000 A 
ENDROOT
BRANCH   1  10
ATOM     10  C   UNL     1       3.727   6.370  18.449  0.00  0.00    +0.000 C 
BRANCH  10  12
ATOM     11  N   UNL     1       2.393   7.677  20.052  0.00  0.00    +0.000 N 
ATOM     12  C   UNL     1       2.559   7.302  18.725  0.00  0.00    +0.000 C 
ATOM     13  O   UNL     1       1.898   7.730  17.779  0.00  0.00    +0.000 OA
ATOM     14  H   UNL     1       2.996   7.215  20.737  0.00  0.00    +0.000 HD
BRANCH  11  19
ATOM     15  C   UNL     1      -1.344  11.413  22.309  0.00  0.00    +0.000 C 
ATOM     16  C   UNL     1      -0.401  10.420  21.702  0.00  0.00    +0.000 A 
ATOM     17  C   UNL     1      -0.126  10.441  20.335  0.00  0.00    +0.000 A 
ATOM     18  C   UNL     1       0.783   9.535  19.775  0.00  0.00    +0.000 A 
ATOM     19  C   UNL     1       1.440   8.588  20.566  0.00  0.00    +0.000 A 
ATOM     20  C   UNL     1       1.132   8.538  21.928  0.00  0.00    +0.000 A 
ATOM     21  C   UNL     1       0.231   9.453  22.486  0.00  0.00    +0.000 A 
ATOM     22  F   UNL     1      -0.015   9.401  23.803  0.00  0.00    +0.000 F 
ENDBRANCH  11  19
ENDBRANCH  10  12
ENDBRANCH   1  10
BRANCH   2  23
ATOM     23  S   UNL     1       4.552   4.497  15.883  0.00  0.00    +0.000 S 
BRANCH  23  24
ATOM     24  C   UNL     1       6.243   4.124  16.444  0.00  0.00    +0.000 C 
BRANCH  24  25
ATOM     25  C   UNL     1       6.896   5.285  17.167  0.00  0.00    +0.000 A 
ATOM     26  C   UNL     1       7.483   5.099  18.431  0.00  0.00    +0.000 A 
ATOM     27  C   UNL     1       8.128   6.158  19.078  0.00  0.00    +0.000 A 
ATOM     28  C   UNL     1       8.180   7.405  18.471  0.00  0.00    +0.000 A 
ATOM     29  F   UNL     1       8.806   8.417  19.088  0.00  0.00    +0.000 F 
ATOM     30  C   UNL     1       7.594   7.618  17.229  0.00  0.00    +0.000 A 
ATOM     31  C   UNL     1       6.950   6.561  16.578  0.00  0.00    +0.000 A 
ENDBRANCH  24  25
ENDBRANCH  23  24
ENDBRANCH   2  23
TORSDOF 6
ENDMDL
MODEL 2
REMARK VINA RESULT:      -8.8      3.376      7.193
REMARK  Name = 
REMARK  7 active torsions:
REMARK  status: ('A' for Active; 'I' for Inactive)
REMARK    1  A    between atoms: C_1  and  C_2
REMARK    2  A    between atoms: C_5  and  N_6
REMARK    3  A    between atoms: C_7  and  C_9
REMARK    4  A    between atoms: C_9  and  N_10
REMARK    5  A    between atoms: C_11  and  S_12
REMARK    6  A    between atoms: S_12  and  C_13
REMARK    7  A    between atoms: C_13  and  C_14
REMARK                            x       y       z     vdW  Elec       q    Type
REMARK                         _______ _______ _______ _____ _____    ______ ____
ROOT
ATOM      1  N   UNL     1       6.589   5.439  17.278  0.00  0.00    +0.000 N 
ATOM      2  C   UNL     1       5.335   5.103  17.735  0.00  0.00    +0.000 A 
ATOM      3  N   UNL     1       4.583   4.592  16.782  0.00  0.00    +0.000 NA
ATOM      4  C   UNL     1       5.374   4.589  15.664  0.00  0.00    +0.000 A 
ATOM      5  C   UNL     1       5.133   4.136  14.362  0.00  0.00    +0.000 A 
ATOM      6  C   UNL     1       6.183   4.236  13.447  0.00  0.00    +0.000 A 
ATOM      7  C   UNL     1       7.386   4.806  13.851  0.00  0.00    +0.000 A 
ATOM      8  N   UNL     1       7.661   5.293  15.089  0.00  0.00    +0.000 NA
ATOM      9  C   UNL     1       6.622   5.131  15.940  0.00  0.00    +0.000 A 
ENDROOT
BRANCH   1  10
ATOM     10  C   UNL     1       7.686   6.067  17.985  0.00  0.00    +0.000 C 
BRANCH  10  12
ATOM     11  N   UNL     1       8.588   8.236  18.723  0.00  0.00    +0.000 N 
ATOM     12  C   UNL     1       7.707   7.582  17.871  0.00  0.00    +0.000 C 
ATOM     13  O   UNL     1       7.029   8.127  16.999  0.00  0.00    +0.000 OA
ATOM     14  H   UNL     1       9.062   7.657  19.420  0.00  0.00    +0.000 HD
BRANCH  11  19
ATOM     15  C   UNL     1       9.884  13.828  18.974  0.00  0.00    +0.000 C 
ATOM     16  C   UNL     1       9.506  12.379  18.914  0.00  0.00    +0.000 A 
ATOM     17  C   UNL     1       8.809  11.869  17.820  0.00  0.00    +0.000 A 
ATOM     18  C   UNL     1       8.488  10.508  17.749  0.00  0.00    +0.000 A 
ATOM     19  C   UNL     1       8.857   9.624  18.768  0.00  0.00    +0.000 A 
ATOM     20  C   UNL     1       9.518  10.142  19.884  0.00  0.00    +0.000 A 
ATOM     21  C   UNL     1       9.847  11.502  19.945  0.00  0.00    +0.000 A 
ATOM     22  F   UNL     1      10.514  11.961  21.015  0.00  0.00    +0.000 F 
ENDBRANCH  11  19
ENDBRANCH  10  12
ENDBRANCH   1  10
BRANCH   2  23
ATOM     23  S   UNL     1       4.800   5.344  19.372  0.00  0.00    +0.000 S 
BRANCH  23  24
ATOM     24  C   UNL     1       2.995   5.325  19.143  0.00  0.00    +0.000 C 
BRANCH  24  25
ATOM     25  C   UNL     1       2.379   6.709  19.185  0.00  0.00    +0.000 A 
ATOM     26  C   UNL     1       1.832   7.211  20.380  0.00  0.00    +0.000 A 
ATOM     27  C   UNL     1       1.307   8.505  20.432  0.00  0.00    +0.000 A 
ATOM     28  C   UNL     1       1.317   9.299  19.292  0.00  0.00    +0.000 A 
ATOM     29  F   UNL     1       0.821  10.543  19.346  0.00  0.00    +0.000 F 
ATOM     30  C   UNL     1       1.837   8.820  18.096  0.00  0.00    +0.000 A 
ATOM     31  C   UNL     1       2.365   7.526  18.040  0.00  0.00    +0.000 A 
ENDBRANCH  24  25
ENDBRANCH  23  24
ENDBRANCH   2  23
TORSDOF 6
ENDMDL
MODEL 3
REMARK VINA RESULT:      -8.7      3.385      7.193
REMARK  Name = 
REMARK  7 active torsions:
REMARK  status: ('A' for Active; 'I' for Inactive)
REMARK    1  A    between atoms: C_1  and  C_2
REMARK    2  A    between atoms: C_5  and  N_6
REMARK    3  A    between atoms: C_7  and  C_9
REMARK    4  A    between atoms: C_9  and  N_10
REMARK    5  A    between atoms: C_11  and  S_12
REMARK    6  A    between atoms: S_12  and  C_13
REMARK    7  A    between atoms: C_13  and  C_14
REMARK                            x       y       z     vdW  Elec       q    Type
REMARK                         _______ _______ _______ _____ _____    ______ ____
ROOT
ATOM      1  N   UNL     1       6.578   5.376  17.324  0.00  0.00    +0.000 N 
ATOM      2  C   UNL     1       5.326   5.037  17.783  0.00  0.00    +0.000 A 
ATOM      3  N   UNL     1       4.578   4.511  16.836  0.00  0.00    +0.000 NA
ATOM      4  C   UNL     1       5.368   4.500  15.719  0.00  0.00    +0.000 A 
ATOM      5  C   UNL     1       5.131   4.031  14.422  0.00  0.00    +0.000 A 
ATOM      6  C   UNL     1       6.181   4.128  13.506  0.00  0.00    +0.000 A 
ATOM      7  C   UNL     1       7.380   4.710  13.904  0.00  0.00    +0.000 A 
ATOM      8  N   UNL     1       7.651   5.212  15.137  0.00  0.00    +0.000 NA
ATOM      9  C   UNL     1       6.614   5.053  15.989  0.00  0.00    +0.000 A 
ENDROOT
BRANCH   1  10
ATOM     10  C   UNL     1       7.671   6.019  18.024  0.00  0.00    +0.000 C 
BRANCH  10  12
ATOM     11  N   UNL     1       8.537   8.207  18.745  0.00  0.00    +0.000 N 
ATOM     12  C   UNL     1       7.698   7.530  17.869  0.00  0.00    +0.000 C 
ATOM     13  O   UNL     1       7.063   8.050  16.951  0.00  0.00    +0.000 OA
ATOM     14  H   UNL     1       8.977   7.648  19.480  0.00  0.00    +0.000 HD
BRANCH  11  19
ATOM     15  C   UNL     1       9.415  13.885  18.783  0.00  0.00    +0.000 C 
ATOM     16  C   UNL     1       9.225  12.400  18.761  0.00  0.00    +0.000 A 
ATOM     17  C   UNL     1       9.806  11.593  19.739  0.00  0.00    +0.000 A 
ATOM     18  C   UNL     1       9.599  10.208  19.739  0.00  0.00    +0.000 A 
ATOM     19  C   UNL     1       8.805   9.596  18.765  0.00  0.00    +0.000 A 
ATOM     20  C   UNL     1       8.258  10.398  17.760  0.00  0.00    +0.000 A 
ATOM     21  C   UNL     1       8.459  11.784  17.770  0.00  0.00    +0.000 A 
ATOM     22  F   UNL     1       7.890  12.529  16.812  0.00  0.00    +0.000 F 
ENDBRANCH  11  19
ENDBRANCH  10  12
ENDBRANCH   1  10
BRANCH   2  23
ATOM     23  S   UNL     1       4.789   5.293  19.418  0.00  0.00    +0.000 S 
BRANCH  23  24
ATOM     24  C   UNL     1       2.986   5.360  19.173  0.00  0.00    +0.000 C 
BRANCH  24  25
ATOM     25  C   UNL     1       2.449   6.776  19.126  0.00  0.00    +0.000 A 
ATOM     26  C   UNL     1       2.455   7.502  17.922  0.00  0.00    +0.000 A 
ATOM     27  C   UNL     1       1.916   8.792  17.866  0.00  0.00    +0.000 A 
ATOM     28  C   UNL     1       1.377   9.362  19.012  0.00  0.00    +0.000 A 
ATOM     29  F   UNL     1       0.853  10.594  18.955  0.00  0.00    +0.000 F 
ATOM     30  C   UNL     1       1.373   8.671  20.217  0.00  0.00    +0.000 A 
ATOM     31  C   UNL     1       1.911   7.381  20.276  0.00  0.00    +0.000 A 
ENDBRANCH  24  25
ENDBRANCH  23  24
ENDBRANCH   2  23
TORSDOF 6
ENDMDL
MODEL 4
REMARK VINA RESULT:      -8.5      0.934      1.412
REMARK  Name = 
REMARK  7 active torsions:
REMARK  status: ('A' for Active; 'I' for Inactive)
REMARK    1  A    between atoms: C_1  and  C_2
REMARK    2  A    between atoms: C_5  and  N_6
REMARK    3  A    between atoms: C_7  and  C_9
REMARK    4  A    between atoms: C_9  and  N_10
REMARK    5  A    between atoms: C_11  and  S_12
REMARK    6  A    between atoms: S_12  and  C_13
REMARK    7  A    between atoms: C_13  and  C_14
REMARK                            x       y       z     vdW  Elec       q    Type
REMARK                         _______ _______ _______ _____ _____    ______ ____
ROOT
ATOM      1  N   UNL     1       3.377   5.172  18.063  0.00  0.00    +0.000 N 
ATOM      2  C   UNL     1       3.675   4.294  17.047  0.00  0.00    +0.000 A 
ATOM      3  N   UNL     1       3.033   3.152  17.176  0.00  0.00    +0.000 NA
ATOM      4  C   UNL     1       2.282   3.289  18.313  0.00  0.00    +0.000 A 
ATOM      5  C   UNL     1       1.377   2.422  18.934  0.00  0.00    +0.000 A 
ATOM      6  C   UNL     1       0.730   2.889  20.081  0.00  0.00    +0.000 A 
ATOM      7  C   UNL     1       1.037   4.155  20.568  0.00  0.00    +0.000 A 
ATOM      8  N   UNL     1       1.932   5.022  20.026  0.00  0.00    +0.000 NA
ATOM      9  C   UNL     1       2.494   4.531  18.898  0.00  0.00    +0.000 A 
ENDROOT
BRANCH   1  10
ATOM     10  C   UNL     1       3.903   6.498  18.316  0.00  0.00    +0.000 C 
BRANCH  10  12
ATOM     11  N   UNL     1       2.148   7.937  19.268  0.00  0.00    +0.000 N 
ATOM     12  C   UNL     1       2.883   7.610  18.136  0.00  0.00    +0.000 C 
ATOM     13  O   UNL     1       2.825   8.202  17.057  0.00  0.00    +0.000 OA
ATOM     14  H   UNL     1       2.278   7.337  20.086  0.00  0.00    +0.000 HD
BRANCH  11  19
ATOM     15  C   UNL     1      -1.587  12.253  19.928  0.00  0.00    +0.000 C 
ATOM     16  C   UNL     1      -0.645  11.103  19.745  0.00  0.00    +0.000 A 
ATOM     17  C   UNL     1      -0.334  10.632  18.470  0.00  0.00    +0.000 A 
ATOM     18  C   UNL     1       0.574   9.581  18.297  0.00  0.00    +0.000 A 
ATOM     19  C   UNL     1       1.196   8.977  19.394  0.00  0.00    +0.000 A 
ATOM     20  C   UNL     1       0.854   9.419  20.674  0.00  0.00    +0.000 A 
ATOM     21  C   UNL     1      -0.047  10.478  20.841  0.00  0.00    +0.000 A 
ATOM     22  F   UNL     1      -0.327  10.903  22.082  0.00  0.00    +0.000 F 
ENDBRANCH  11  19
ENDBRANCH  10  12
ENDBRANCH   1  10
BRANCH   2  23
ATOM     23  S   UNL     1       4.787   4.643  15.756  0.00  0.00    +0.000 S 
BRANCH  23  24
ATOM     24  C   UNL     1       6.367   4.193  16.540  0.00  0.00    +0.000 C 
BRANCH  24  25
ATOM     25  C   UNL     1       7.047   5.366  17.216  0.00  0.00    +0.000 A 
ATOM     26  C   UNL     1       7.120   6.615  16.574  0.00  0.00    +0.000 A 
ATOM     27  C   UNL     1       7.705   7.711  17.216  0.00  0.00    +0.000 A 
ATOM     28  C   UNL     1       8.226   7.562  18.495  0.00  0.00    +0.000 A 
ATOM     29  F   UNL     1       8.778   8.615  19.112  0.00  0.00    +0.000 F 
ATOM     30  C   UNL     1       8.179   6.334  19.144  0.00  0.00    +0.000 A 
ATOM     31  C   UNL     1       7.594   5.236  18.505  0.00  0.00    +0.000 A 
ENDBRANCH  24  25
ENDBRANCH  23  24
ENDBRANCH   2  23
TORSDOF 6
ENDMDL
MODEL 5
REMARK VINA RESULT:      -8.2      3.953      6.158
REMARK  Name = 
REMARK  7 active torsions:
REMARK  status: ('A' for Active; 'I' for Inactive)
REMARK    1  A    between atoms: C_1  and  C_2
REMARK    2  A    between atoms: C_5  and  N_6
REMARK    3  A    between atoms: C_7  and  C_9
REMARK    4  A    between atoms: C_9  and  N_10
REMARK    5  A    between atoms: C_11  and  S_12
REMARK    6  A    between atoms: S_12  and  C_13
REMARK    7  A    between atoms: C_13  and  C_14
REMARK                            x       y       z     vdW  Elec       q    Type
REMARK                         _______ _______ _______ _____ _____    ______ ____
ROOT
ATOM      1  N   UNL     1       0.826  10.401  19.643  0.00  0.00    +0.000 N 
ATOM      2  C   UNL     1       1.351   9.131  19.564  0.00  0.00    +0.000 A 
ATOM      3  N   UNL     1       1.156   8.446  20.671  0.00  0.00    +0.000 NA
ATOM      4  C   UNL     1       0.474   9.294  21.503  0.00  0.00    +0.000 A 
ATOM      5  C   UNL     1      -0.033   9.113  22.794  0.00  0.00    +0.000 A 
ATOM      6  C   UNL     1      -0.732  10.181  23.360  0.00  0.00    +0.000 A 
ATOM      7  C   UNL     1      -0.858  11.368  22.645  0.00  0.00    +0.000 A 
ATOM      8  N   UNL     1      -0.355  11.609  21.406  0.00  0.00    +0.000 NA
ATOM      9  C   UNL     1       0.274  10.526  20.895  0.00  0.00    +0.000 A 
ENDROOT
BRANCH   1  10
ATOM     10  C   UNL     1       0.870  11.476  18.673  0.00  0.00    +0.000 C 
BRANCH  10  12
ATOM     11  N   UNL     1      -1.549  11.157  18.347  0.00  0.00    +0.000 N 
ATOM     12  C   UNL     1      -0.492  12.059  18.337  0.00  0.00    +0.000 C 
ATOM     13  O   UNL     1      -0.598  13.274  18.166  0.00  0.00    +0.000 OA
ATOM     14  H   UNL     1      -1.306  10.171  18.471  0.00  0.00    +0.000 HD
BRANCH  11  19
ATOM     15  C   UNL     1      -7.081  12.533  17.633  0.00  0.00    +0.000 C 
ATOM     16  C   UNL     1      -5.650  12.135  17.818  0.00  0.00    +0.000 A 
ATOM     17  C   UNL     1      -4.928  11.562  16.772  0.00  0.00    +0.000 A 
ATOM     18  C   UNL     1      -3.579  11.223  16.935  0.00  0.00    +0.000 A 
ATOM     19  C   UNL     1      -2.919  11.449  18.146  0.00  0.00    +0.000 A 
ATOM     20  C   UNL     1      -3.652  11.983  19.208  0.00  0.00    +0.000 A 
ATOM     21  C   UNL     1      -4.997  12.331  19.037  0.00  0.00    +0.000 A 
ATOM     22  F   UNL     1      -5.663  12.875  20.067  0.00  0.00    +0.000 F 
ENDBRANCH  11  19
ENDBRANCH  10  12
ENDBRANCH   1  10
BRANCH   2  23
ATOM     23  S   UNL     1       2.192   8.513  18.172  0.00  0.00    +0.000 S 
BRANCH  23  24
ATOM     24  C   UNL     1       2.678   6.867  18.777  0.00  0.00    +0.000 C 
BRANCH  24  25
ATOM     25  C   UNL     1       3.587   6.128  17.815  0.00  0.00    +0.000 A 
ATOM     26  C   UNL     1       3.491   4.733  17.672  0.00  0.00    +0.000 A 
ATOM     27  C   UNL     1       4.296   4.056  16.750  0.00  0.00    +0.000 A 
ATOM     28  C   UNL     1       5.203   4.768  15.976  0.00  0.00    +0.000 A 
ATOM     29  F   UNL     1       5.968   4.119  15.086  0.00  0.00    +0.000 F 
ATOM     30  C   UNL     1       5.328   6.145  16.110  0.00  0.00    +0.000 A 
ATOM     31  C   UNL     1       4.524   6.825  17.030  0.00  0.00    +0.000 A 
ENDBRANCH  24  25
ENDBRANCH  23  24
ENDBRANCH   2  23
TORSDOF 6
ENDMDL
MODEL 6
REMARK VINA RESULT:      -8.2      1.156      1.447
REMARK  Name = 
REMARK  7 active torsions:
REMARK  status: ('A' for Active; 'I' for Inactive)
REMARK    1  A    between atoms: C_1  and  C_2
REMARK    2  A    between atoms: C_5  and  N_6
REMARK    3  A    between atoms: C_7  and  C_9
REMARK    4  A    between atoms: C_9  and  N_10
REMARK    5  A    between atoms: C_11  and  S_12
REMARK    6  A    between atoms: S_12  and  C_13
REMARK    7  A    between atoms: C_13  and  C_14
REMARK                            x       y       z     vdW  Elec       q    Type
REMARK                         _______ _______ _______ _____ _____    ______ ____
ROOT
ATOM      1  N   UNL     1       3.313   4.887  18.314  0.00  0.00    +0.000 N 
ATOM      2  C   UNL     1       3.584   4.157  17.180  0.00  0.00    +0.000 A 
ATOM      3  N   UNL     1       2.910   3.026  17.148  0.00  0.00    +0.000 NA
ATOM      4  C   UNL     1       2.167   3.018  18.298  0.00  0.00    +0.000 A 
ATOM      5  C   UNL     1       1.240   2.096  18.794  0.00  0.00    +0.000 A 
ATOM      6  C   UNL     1       0.610   2.409  20.000  0.00  0.00    +0.000 A 
ATOM      7  C   UNL     1       0.954   3.584  20.663  0.00  0.00    +0.000 A 
ATOM      8  N   UNL     1       1.872   4.495  20.245  0.00  0.00    +0.000 NA
ATOM      9  C   UNL     1       2.416   4.157  19.054  0.00  0.00    +0.000 A 
ENDROOT
BRANCH   1  10
ATOM     10  C   UNL     1       3.877   6.148  18.752  0.00  0.00    +0.000 C 
BRANCH  10  12
ATOM     11  N   UNL     1       2.302   7.563  20.006  0.00  0.00    +0.000 N 
ATOM     12  C   UNL     1       2.881   7.295  18.772  0.00  0.00    +0.000 C 
ATOM     13  O   UNL     1       2.709   7.959  17.750  0.00  0.00    +0.000 OA
ATOM     14  H   UNL     1       2.512   6.905  20.761  0.00  0.00    +0.000 HD
BRANCH  11  19
ATOM     15  C   UNL     1      -1.455  11.769  21.103  0.00  0.00    +0.000 C 
ATOM     16  C   UNL     1      -0.446  10.696  20.833  0.00  0.00    +0.000 A 
ATOM     17  C   UNL     1       0.104   9.956  21.879  0.00  0.00    +0.000 A 
ATOM     18  C   UNL     1       1.021   8.929  21.623  0.00  0.00    +0.000 A 
ATOM     19  C   UNL     1       1.408   8.615  20.317  0.00  0.00    +0.000 A 
ATOM     20  C   UNL     1       0.891   9.384  19.272  0.00  0.00    +0.000 A 
ATOM     21  C   UNL     1      -0.034  10.403  19.531  0.00  0.00    +0.000 A 
ATOM     22  F   UNL     1      -0.539  11.099  18.503  0.00  0.00    +0.000 F 
ENDBRANCH  11  19
ENDBRANCH  10  12
ENDBRANCH   1  10
BRANCH   2  23
ATOM     23  S   UNL     1       4.701   4.659  15.944  0.00  0.00    +0.000 S 
BRANCH  23  24
ATOM     24  C   UNL     1       6.288   4.261  16.743  0.00  0.00    +0.000 C 
BRANCH  24  25
ATOM     25  C   UNL     1       6.949   5.468  17.377  0.00  0.00    +0.000 A 
ATOM     26  C   UNL     1       7.595   5.355  18.621  0.00  0.00    +0.000 A 
ATOM     27  C   UNL     1       8.247   6.457  19.186  0.00  0.00    +0.000 A 
ATOM     28  C   UNL     1       8.249   7.673  18.515  0.00  0.00    +0.000 A 
ATOM     29  F   UNL     1       8.881   8.725  19.053  0.00  0.00    +0.000 F 
ATOM     30  C   UNL     1       7.604   7.813  17.292  0.00  0.00    +0.000 A 
ATOM     31  C   UNL     1       6.952   6.714  16.724  0.00  0.00    +0.000 A 
ENDBRANCH  24  25
ENDBRANCH  23  24
ENDBRANCH   2  23
TORSDOF 6
ENDMDL
MODEL 7
REMARK VINA RESULT:      -8.1      2.387      3.015
REMARK  Name = 
REMARK  7 active torsions:
REMARK  status: ('A' for Active; 'I' for Inactive)
REMARK    1  A    between atoms: C_1  and  C_2
REMARK    2  A    between atoms: C_5  and  N_6
REMARK    3  A    between atoms: C_7  and  C_9
REMARK    4  A    between atoms: C_9  and  N_10
REMARK    5  A    between atoms: C_11  and  S_12
REMARK    6  A    between atoms: S_12  and  C_13
REMARK    7  A    between atoms: C_13  and  C_14
REMARK                            x       y       z     vdW  Elec       q    Type
REMARK                         _______ _______ _______ _____ _____    ______ ____
ROOT
ATOM      1  N   UNL     1       3.192   5.336  18.748  0.00  0.00    +0.000 N 
ATOM      2  C   UNL     1       3.750   5.050  17.523  0.00  0.00    +0.000 A 
ATOM      3  N   UNL     1       3.345   3.888  17.055  0.00  0.00    +0.000 NA
ATOM      4  C   UNL     1       2.487   3.398  18.003  0.00  0.00    +0.000 A 
ATOM      5  C   UNL     1       1.727   2.225  18.046  0.00  0.00    +0.000 A 
ATOM      6  C   UNL     1       0.903   2.037  19.158  0.00  0.00    +0.000 A 
ATOM      7  C   UNL     1       0.903   2.989  20.173  0.00  0.00    +0.000 A 
ATOM      8  N   UNL     1       1.646   4.126  20.199  0.00  0.00    +0.000 NA
ATOM      9  C   UNL     1       2.390   4.272  19.079  0.00  0.00    +0.000 A 
ENDROOT
BRANCH   1  10
ATOM     10  C   UNL     1       3.414   6.476  19.615  0.00  0.00    +0.000 C 
BRANCH  10  12
ATOM     11  N   UNL     1       1.887   8.050  20.734  0.00  0.00    +0.000 N 
ATOM     12  C   UNL     1       2.333   7.540  19.521  0.00  0.00    +0.000 C 
ATOM     13  O   UNL     1       1.984   7.944  18.411  0.00  0.00    +0.000 OA
ATOM     14  H   UNL     1       2.242   7.594  21.578  0.00  0.00    +0.000 HD
BRANCH  11  19
ATOM     15  C   UNL     1      -1.831  12.319  21.716  0.00  0.00    +0.000 C 
ATOM     16  C   UNL     1      -0.888  11.189  21.433  0.00  0.00    +0.000 A 
ATOM     17  C   UNL     1      -0.221  11.107  20.212  0.00  0.00    +0.000 A 
ATOM     18  C   UNL     1       0.687  10.070  19.961  0.00  0.00    +0.000 A 
ATOM     19  C   UNL     1       0.952   9.094  20.926  0.00  0.00    +0.000 A 
ATOM     20  C   UNL     1       0.252   9.151  22.133  0.00  0.00    +0.000 A 
ATOM     21  C   UNL     1      -0.646  10.196  22.384  0.00  0.00    +0.000 A 
ATOM     22  F   UNL     1      -1.275  10.242  23.567  0.00  0.00    +0.000 F 
ENDBRANCH  11  19
ENDBRANCH  10  12
ENDBRANCH   1  10
BRANCH   2  23
ATOM     23  S   UNL     1       4.874   6.092  16.700  0.00  0.00    +0.000 S 
BRANCH  23  24
ATOM     24  C   UNL     1       6.272   4.952  16.455  0.00  0.00    +0.000 C 
BRANCH  24  25
ATOM     25  C   UNL     1       6.562   4.678  14.993  0.00  0.00    +0.000 A 
ATOM     26  C   UNL     1       5.775   3.765  14.268  0.00  0.00    +0.000 A 
ATOM     27  C   UNL     1       6.011   3.547  12.907  0.00  0.00    +0.000 A 
ATOM     28  C   UNL     1       7.036   4.232  12.268  0.00  0.00    +0.000 A 
ATOM     29  F   UNL     1       7.255   4.029  10.962  0.00  0.00    +0.000 F 
ATOM     30  C   UNL     1       7.837   5.128  12.966  0.00  0.00    +0.000 A 
ATOM     31  C   UNL     1       7.603   5.350  14.326  0.00  0.00    +0.000 A 
ENDBRANCH  24  25
ENDBRANCH  23  24
ENDBRANCH   2  23
TORSDOF 6
ENDMDL
MODEL 8
REMARK VINA RESULT:      -8.0      2.548      3.238
REMARK  Name = 
REMARK  7 active torsions:
REMARK  status: ('A' for Active; 'I' for Inactive)
REMARK    1  A    between atoms: C_1  and  C_2
REMARK    2  A    between atoms: C_5  and  N_6
REMARK    3  A    between atoms: C_7  and  C_9
REMARK    4  A    between atoms: C_9  and  N_10
REMARK    5  A    between atoms: C_11  and  S_12
REMARK    6  A    between atoms: S_12  and  C_13
REMARK    7  A    between atoms: C_13  and  C_14
REMARK                            x       y       z     vdW  Elec       q    Type
REMARK                         _______ _______ _______ _____ _____    ______ ____
ROOT
ATOM      1  N   UNL     1       3.845   4.707  18.786  0.00  0.00    +0.000 N 
ATOM      2  C   UNL     1       4.636   4.030  17.886  0.00  0.00    +0.000 A 
ATOM      3  N   UNL     1       4.086   2.898  17.499  0.00  0.00    +0.000 NA
ATOM      4  C   UNL     1       2.891   2.833  18.164  0.00  0.00    +0.000 A 
ATOM      5  C   UNL     1       1.865   1.883  18.132  0.00  0.00    +0.000 A 
ATOM      6  C   UNL     1       0.734   2.138  18.911  0.00  0.00    +0.000 A 
ATOM      7  C   UNL     1       0.695   3.283  19.700  0.00  0.00    +0.000 A 
ATOM      8  N   UNL     1       1.677   4.218  19.797  0.00  0.00    +0.000 NA
ATOM      9  C   UNL     1       2.725   3.938  18.990  0.00  0.00    +0.000 A 
ENDROOT
BRANCH   1  10
ATOM     10  C   UNL     1       4.104   5.950  19.483  0.00  0.00    +0.000 C 
BRANCH  10  12
ATOM     11  N   UNL     1       2.286   7.468  20.155  0.00  0.00    +0.000 N 
ATOM     12  C   UNL     1       3.135   7.067  19.132  0.00  0.00    +0.000 C 
ATOM     13  O   UNL     1       3.210   7.598  18.024  0.00  0.00    +0.000 OA
ATOM     14  H   UNL     1       2.311   6.911  21.013  0.00  0.00    +0.000 HD
BRANCH  11  19
ATOM     15  C   UNL     1      -1.440  11.840  20.199  0.00  0.00    +0.000 C 
ATOM     16  C   UNL     1      -0.495  10.679  20.164  0.00  0.00    +0.000 A 
ATOM     17  C   UNL     1       0.206  10.366  19.000  0.00  0.00    +0.000 A 
ATOM     18  C   UNL     1       1.116   9.302  18.978  0.00  0.00    +0.000 A 
ATOM     19  C   UNL     1       1.350   8.528  20.119  0.00  0.00    +0.000 A 
ATOM     20  C   UNL     1       0.617   8.813  21.272  0.00  0.00    +0.000 A 
ATOM     21  C   UNL     1      -0.284   9.885  21.293  0.00  0.00    +0.000 A 
ATOM     22  F   UNL     1      -0.946  10.156  22.428  0.00  0.00    +0.000 F 
ENDBRANCH  11  19
ENDBRANCH  10  12
ENDBRANCH   1  10
BRANCH   2  23
ATOM     23  S   UNL     1       6.188   4.594  17.340  0.00  0.00    +0.000 S 
BRANCH  23  24
ATOM     24  C   UNL     1       5.698   5.580  15.891  0.00  0.00    +0.000 C 
BRANCH  24  25
ATOM     25  C   UNL     1       6.134   4.960  14.579  0.00  0.00    +0.000 A 
ATOM     26  C   UNL     1       7.344   5.348  13.974  0.00  0.00    +0.000 A 
ATOM     27  C   UNL     1       7.771   4.742  12.788  0.00  0.00    +0.000 A 
ATOM     28  C   UNL     1       6.991   3.756  12.199  0.00  0.00    +0.000 A 
ATOM     29  F   UNL     1       7.406   3.170  11.068  0.00  0.00    +0.000 F 
ATOM     30  C   UNL     1       5.785   3.366  12.769  0.00  0.00    +0.000 A 
ATOM     31  C   UNL     1       5.355   3.969  13.955  0.00  0.00    +0.000 A 
ENDBRANCH  24  25
ENDBRANCH  23  24
ENDBRANCH   2  23
TORSDOF 6
ENDMDL
MODEL 9
REMARK VINA RESULT:      -8.0      4.111      6.421
REMARK  Name = 
REMARK  7 active torsions:
REMARK  status: ('A' for Active; 'I' for Inactive)
REMARK    1  A    between atoms: C_1  and  C_2
REMARK    2  A    between atoms: C_5  and  N_6
REMARK    3  A    between atoms: C_7  and  C_9
REMARK    4  A    between atoms: C_9  and  N_10
REMARK    5  A    between atoms: C_11  and  S_12
REMARK    6  A    between atoms: S_12  and  C_13
REMARK    7  A    between atoms: C_13  and  C_14
REMARK                            x       y       z     vdW  Elec       q    Type
REMARK                         _______ _______ _______ _____ _____    ______ ____
ROOT
ATOM      1  N   UNL     1       0.866  10.335  19.479  0.00  0.00    +0.000 N 
ATOM      2  C   UNL     1       1.357   9.064  19.290  0.00  0.00    +0.000 A 
ATOM      3  N   UNL     1       1.201   8.311  20.359  0.00  0.00    +0.000 NA
ATOM      4  C   UNL     1       0.582   9.115  21.278  0.00  0.00    +0.000 A 
ATOM      5  C   UNL     1       0.136   8.860  22.579  0.00  0.00    +0.000 A 
ATOM      6  C   UNL     1      -0.509   9.902  23.249  0.00  0.00    +0.000 A 
ATOM      7  C   UNL     1      -0.642  11.136  22.620  0.00  0.00    +0.000 A 
ATOM      8  N   UNL     1      -0.197  11.448  21.375  0.00  0.00    +0.000 NA
ATOM      9  C   UNL     1       0.380  10.389  20.763  0.00  0.00    +0.000 A 
ENDROOT
BRANCH   1  10
ATOM     10  C   UNL     1       0.888  11.471  18.580  0.00  0.00    +0.000 C 
BRANCH  10  12
ATOM     11  N   UNL     1      -1.532  11.147  18.268  0.00  0.00    +0.000 N 
ATOM     12  C   UNL     1      -0.485  12.059  18.297  0.00  0.00    +0.000 C 
ATOM     13  O   UNL     1      -0.605  13.280  18.197  0.00  0.00    +0.000 OA
ATOM     14  H   UNL     1      -1.278  10.158  18.331  0.00  0.00    +0.000 HD
BRANCH  11  19
ATOM     15  C   UNL     1      -7.087  12.505  17.707  0.00  0.00    +0.000 C 
ATOM     16  C   UNL     1      -5.649  12.111  17.851  0.00  0.00    +0.000 A 
ATOM     17  C   UNL     1      -4.940  11.592  16.768  0.00  0.00    +0.000 A 
ATOM     18  C   UNL     1      -3.587  11.257  16.894  0.00  0.00    +0.000 A 
ATOM     19  C   UNL     1      -2.907  11.435  18.103  0.00  0.00    +0.000 A 
ATOM     20  C   UNL     1      -3.627  11.916  19.199  0.00  0.00    +0.000 A 
ATOM     21  C   UNL     1      -4.978  12.260  19.066  0.00  0.00    +0.000 A 
ATOM     22  F   UNL     1      -5.631  12.752  20.129  0.00  0.00    +0.000 F 
ENDBRANCH  11  19
ENDBRANCH  10  12
ENDBRANCH   1  10
BRANCH   2  23
ATOM     23  S   UNL     1       2.112   8.521  17.820  0.00  0.00    +0.000 S 
BRANCH  23  24
ATOM     24  C   UNL     1       3.379   7.397  18.487  0.00  0.00    +0.000 C 
BRANCH  24  25
ATOM     25  C   UNL     1       3.124   5.945  18.135  0.00  0.00    +0.000 A 
ATOM     26  C   UNL     1       1.831   5.402  18.239  0.00  0.00    +0.000 A 
ATOM     27  C   UNL     1       1.586   4.075  17.869  0.00  0.00    +0.000 A 
ATOM     28  C   UNL     1       2.630   3.287  17.403  0.00  0.00    +0.000 A 
ATOM     29  F   UNL     1       2.392   2.019  17.040  0.00  0.00    +0.000 F 
ATOM     30  C   UNL     1       3.919   3.796  17.306  0.00  0.00    +0.000 A 
ATOM     31  C   UNL     1       4.168   5.122  17.674  0.00  0.00    +0.000 A 
ENDBRANCH  24  25
ENDBRANCH  23  24
ENDBRANCH   2  23
TORSDOF 6
ENDMDL
