MODEL 1
REMARK VINA RESULT:      -7.0      0.000      0.000
REMARK  Name = 
REMARK  11 active torsions:
REMARK  status: ('A' for Active; 'I' for Inactive)
REMARK    1  A    between atoms: C_1  and  C_2
REMARK    2  A    between atoms: C_2  and  C_3
REMARK    3  A    between atoms: C_3  and  C_4
REMARK    4  A    between atoms: C_3  and  C_5
REMARK    5  A    between atoms: C_10  and  O_11
REMARK    6  A    between atoms: O_11  and  C_12
REMARK    7  A    between atoms: C_12  and  C_13
REMARK    8  A    between atoms: C_13  and  O_14
REMARK    9  A    between atoms: C_13  and  C_15
REMARK   10  A    between atoms: C_15  and  N_16
REMARK   11  A    between atoms: N_16  and  C_17
REMARK                            x       y       z     vdW  Elec       q    Type
REMARK                         _______ _______ _______ _____ _____    ______ ____
ROOT
ATOM      1  C   UNL     1       5.852   4.984  19.184  0.00  0.00    +0.000 C 
ENDROOT
BRANCH   1   2
ATOM      2  O   UNL     1       4.969   4.826  18.119  0.00  0.00    +0.000 OA
BRANCH   2   8
ATOM      3  C   UNL     1       2.642   4.916  18.842  0.00  0.00    +0.000 A 
ATOM      4  C   UNL     1       1.428   4.213  19.020  0.00  0.00    +0.000 A 
ATOM      5  C   UNL     1       1.288   2.891  18.617  0.00  0.00    +0.000 A 
ATOM      6  C   UNL     1       2.351   2.227  18.022  0.00  0.00    +0.000 A 
ATOM      7  C   UNL     1       3.563   2.880  17.840  0.00  0.00    +0.000 A 
ATOM      8  C   UNL     1       3.746   4.227  18.250  0.00  0.00    +0.000 A 
BRANCH   3   9
ATOM      9  C   UNL     1       2.679   6.368  19.326  0.00  0.00    +0.000 C 
ATOM     10  C   UNL     1       1.713   6.582  20.500  0.00  0.00    +0.000 C 
BRANCH   9  12
ATOM     11  C   UNL     1       1.841   8.688  18.626  0.00  0.00    +0.000 C 
ATOM     12  C   UNL     1       2.461   7.364  18.167  0.00  0.00    +0.000 C 
ENDBRANCH   9  12
ENDBRANCH   3   9
ENDBRANCH   2   8
ENDBRANCH   1   2
BRANCH   1  13
ATOM     13  C   UNL     1       7.231   5.505  18.739  0.00  0.00    +0.000 C 
BRANCH  13  14
ATOM     14  O   UNL     1       8.176   5.344  19.767  0.00  0.00    +0.000 OA
ATOM     15  H   UNL     1       8.526   4.417  19.716  0.00  0.00    +0.000 HD
ENDBRANCH  13  14
BRANCH  13  16
ATOM     16  C   UNL     1       7.717   4.770  17.464  0.00  0.00    +0.000 C 
BRANCH  16  17
ATOM     17  N   UNL     1       7.286   5.472  16.245  0.00  0.00    +0.000 NA
ATOM     18  H   UNL     1       8.022   6.164  15.972  0.00  0.00    +0.000 HD
BRANCH  17  19
ATOM     19  C   UNL     1       7.023   4.550  15.121  0.00  0.00    +0.000 C 
ATOM     20  C   UNL     1       5.526   4.422  14.836  0.00  0.00    +0.000 C 
ATOM     21  C   UNL     1       5.523   3.667  13.515  0.00  0.00    +0.000 C 
ATOM     22  C   UNL     1       6.743   4.204  12.746  0.00  0.00    +0.000 C 
ATOM     23  C   UNL     1       7.515   5.057  13.763  0.00  0.00    +0.000 C 
ENDBRANCH  17  19
ENDBRANCH  16  17
ENDBRANCH  13  16
ENDBRANCH   1  13
TORSDOF 9
ENDMDL
MODEL 2
REMARK VINA RESULT:      -6.9      1.373      1.658
REMARK  Name = 
REMARK  11 active torsions:
REMARK  status: ('A' for Active; 'I' for Inactive)
REMARK    1  A    between atoms: C_1  and  C_2
REMARK    2  A    between atoms: C_2  and  C_3
REMARK    3  A    between atoms: C_3  and  C_4
REMARK    4  A    between atoms: C_3  and  C_5
REMARK    5  A    between atoms: C_10  and  O_11
REMARK    6  A    between atoms: O_11  and  C_12
REMARK    7  A    between atoms: C_12  and  C_13
REMARK    8  A    between atoms: C_13  and  O_14
REMARK    9  A    between atoms: C_13  and  C_15
REMARK   10  A    between atoms: C_15  and  N_16
REMARK   11  A    between atoms: N_16  and  C_17
REMARK                            x       y       z     vdW  Elec       q    Type
REMARK                         _______ _______ _______ _____ _____    ______ ____
ROOT
ATOM      1  C   UNL     1       5.776   4.227  18.337  0.00  0.00    +0.000 C 
ENDROOT
BRANCH   1   2
ATOM      2  O   UNL     1       4.954   4.998  19.155  0.00  0.00    +0.000 OA
BRANCH   2   8
ATOM      3  C   UNL     1       2.671   5.462  19.876  0.00  0.00    +0.000 A 
ATOM      4  C   UNL     1       1.478   4.950  20.436  0.00  0.00    +0.000 A 
ATOM      5  C   UNL     1       1.332   3.599  20.724  0.00  0.00    +0.000 A 
ATOM      6  C   UNL     1       2.367   2.713  20.462  0.00  0.00    +0.000 A 
ATOM      7  C   UNL     1       3.558   3.180  19.922  0.00  0.00    +0.000 A 
ATOM      8  C   UNL     1       3.747   4.556  19.625  0.00  0.00    +0.000 A 
BRANCH   3   9
ATOM      9  C   UNL     1       2.717   6.967  19.602  0.00  0.00    +0.000 C 
ATOM     10  C   UNL     1       1.660   7.710  20.430  0.00  0.00    +0.000 C 
BRANCH   9  12
ATOM     11  C   UNL     1       1.892   8.581  17.789  0.00  0.00    +0.000 C 
ATOM     12  C   UNL     1       2.639   7.278  18.091  0.00  0.00    +0.000 C 
ENDBRANCH   9  12
ENDBRANCH   3   9
ENDBRANCH   2   8
ENDBRANCH   1   2
BRANCH   1  13
ATOM     13  C   UNL     1       6.997   5.007  17.820  0.00  0.00    +0.000 C 
BRANCH  13  14
ATOM     14  O   UNL     1       8.038   4.126  17.477  0.00  0.00    +0.000 OA
ATOM     15  H   UNL     1       8.898   4.578  17.675  0.00  0.00    +0.000 HD
ENDBRANCH  13  14
BRANCH  13  16
ATOM     16  C   UNL     1       6.623   5.873  16.590  0.00  0.00    +0.000 C 
BRANCH  16  17
ATOM     17  N   UNL     1       7.568   5.665  15.482  0.00  0.00    +0.000 NA
ATOM     18  H   UNL     1       8.270   4.943  15.764  0.00  0.00    +0.000 HD
BRANCH  17  19
ATOM     19  C   UNL     1       6.896   5.252  14.232  0.00  0.00    +0.000 C 
ATOM     20  C   UNL     1       7.899   5.045  13.096  0.00  0.00    +0.000 C 
ATOM     21  C   UNL     1       7.035   4.381  12.034  0.00  0.00    +0.000 C 
ATOM     22  C   UNL     1       6.064   3.479  12.816  0.00  0.00    +0.000 C 
ATOM     23  C   UNL     1       6.263   3.859  14.291  0.00  0.00    +0.000 C 
ENDBRANCH  17  19
ENDBRANCH  16  17
ENDBRANCH  13  16
ENDBRANCH   1  13
TORSDOF 9
ENDMDL
MODEL 3
REMARK VINA RESULT:      -6.9      0.994      1.042
REMARK  Name = 
REMARK  11 active torsions:
REMARK  status: ('A' for Active; 'I' for Inactive)
REMARK    1  A    between atoms: C_1  and  C_2
REMARK    2  A    between atoms: C_2  and  C_3
REMARK    3  A    between atoms: C_3  and  C_4
REMARK    4  A    between atoms: C_3  and  C_5
REMARK    5  A    between atoms: C_10  and  O_11
REMARK    6  A    between atoms: O_11  and  C_12
REMARK    7  A    between atoms: C_12  and  C_13
REMARK    8  A    between atoms: C_13  and  O_14
REMARK    9  A    between atoms: C_13  and  C_15
REMARK   10  A    between atoms: C_15  and  N_16
REMARK   11  A    between atoms: N_16  and  C_17
REMARK                            x       y       z     vdW  Elec       q    Type
REMARK                         _______ _______ _______ _____ _____    ______ ____
ROOT
ATOM      1  C   UNL     1       5.664   6.330  17.753  0.00  0.00    +0.000 C 
ENDROOT
BRANCH   1   2
ATOM      2  O   UNL     1       4.716   5.729  16.929  0.00  0.00    +0.000 OA
BRANCH   2   8
ATOM      3  C   UNL     1       2.695   5.568  18.284  0.00  0.00    +0.000 A 
ATOM      4  C   UNL     1       1.686   4.731  18.812  0.00  0.00    +0.000 A 
ATOM      5  C   UNL     1       1.617   3.381  18.488  0.00  0.00    +0.000 A 
ATOM      6  C   UNL     1       2.550   2.823  17.626  0.00  0.00    +0.000 A 
ATOM      7  C   UNL     1       3.563   3.611  17.096  0.00  0.00    +0.000 A 
ATOM      8  C   UNL     1       3.671   4.991  17.414  0.00  0.00    +0.000 A 
BRANCH   3   9
ATOM      9  C   UNL     1       2.670   7.037  18.713  0.00  0.00    +0.000 C 
ATOM     10  C   UNL     1       2.096   7.188  20.129  0.00  0.00    +0.000 C 
BRANCH   9  12
ATOM     11  C   UNL     1       2.040   9.420  18.007  0.00  0.00    +0.000 C 
ATOM     12  C   UNL     1       1.962   7.928  17.669  0.00  0.00    +0.000 C 
ENDBRANCH   9  12
ENDBRANCH   3   9
ENDBRANCH   2   8
ENDBRANCH   1   2
BRANCH   1  13
ATOM     13  C   UNL     1       6.785   5.363  18.172  0.00  0.00    +0.000 C 
BRANCH  13  14
ATOM     14  O   UNL     1       6.325   4.467  19.153  0.00  0.00    +0.000 OA
ATOM     15  H   UNL     1       6.583   3.551  18.874  0.00  0.00    +0.000 HD
ENDBRANCH  13  14
BRANCH  13  16
ATOM     16  C   UNL     1       7.319   4.570  16.952  0.00  0.00    +0.000 C 
BRANCH  16  17
ATOM     17  N   UNL     1       7.215   5.358  15.714  0.00  0.00    +0.000 NA
ATOM     18  H   UNL     1       8.007   6.040  15.677  0.00  0.00    +0.000 HD
BRANCH  17  19
ATOM     19  C   UNL     1       7.221   4.514  14.501  0.00  0.00    +0.000 C 
ATOM     20  C   UNL     1       5.804   4.122  14.081  0.00  0.00    +0.000 C 
ATOM     21  C   UNL     1       6.043   3.513  12.707  0.00  0.00    +0.000 C 
ATOM     22  C   UNL     1       7.177   4.351  12.091  0.00  0.00    +0.000 C 
ATOM     23  C   UNL     1       7.689   5.238  13.236  0.00  0.00    +0.000 C 
ENDBRANCH  17  19
ENDBRANCH  16  17
ENDBRANCH  13  16
ENDBRANCH   1  13
TORSDOF 9
ENDMDL
MODEL 4
REMARK VINA RESULT:      -6.8      1.028      1.031
REMARK  Name = 
REMARK  11 active torsions:
REMARK  status: ('A' for Active; 'I' for Inactive)
REMARK    1  A    between atoms: C_1  and  C_2
REMARK    2  A    between atoms: C_2  and  C_3
REMARK    3  A    between atoms: C_3  and  C_4
REMARK    4  A    between atoms: C_3  and  C_5
REMARK    5  A    between atoms: C_10  and  O_11
REMARK    6  A    between atoms: O_11  and  C_12
REMARK    7  A    between atoms: C_12  and  C_13
REMARK    8  A    between atoms: C_13  and  O_14
REMARK    9  A    between atoms: C_13  and  C_15
REMARK   10  A    between atoms: C_15  and  N_16
REMARK   11  A    between atoms: N_16  and  C_17
REMARK                            x       y       z     vdW  Elec       q    Type
REMARK                         _______ _______ _______ _____ _____    ______ ____
ROOT
ATOM      1  C   UNL     1       6.129   5.401  19.065  0.00  0.00    +0.000 C 
ENDROOT
BRANCH   1   2
ATOM      2  O   UNL     1       5.500   4.207  19.408  0.00  0.00    +0.000 OA
BRANCH   2   8
ATOM      3  C   UNL     1       3.221   4.762  18.741  0.00  0.00    +0.000 A 
ATOM      4  C   UNL     1       1.974   4.287  18.274  0.00  0.00    +0.000 A 
ATOM      5  C   UNL     1       1.783   2.951  17.944  0.00  0.00    +0.000 A 
ATOM      6  C   UNL     1       2.827   2.046  18.067  0.00  0.00    +0.000 A 
ATOM      7  C   UNL     1       4.063   2.472  18.533  0.00  0.00    +0.000 A 
ATOM      8  C   UNL     1       4.292   3.827  18.890  0.00  0.00    +0.000 A 
BRANCH   3   9
ATOM      9  C   UNL     1       3.314   6.253  19.074  0.00  0.00    +0.000 C 
ATOM     10  C   UNL     1       2.209   6.668  20.056  0.00  0.00    +0.000 C 
BRANCH   9  12
ATOM     11  C   UNL     1       2.480   8.377  17.903  0.00  0.00    +0.000 C 
ATOM     12  C   UNL     1       3.355   7.124  17.799  0.00  0.00    +0.000 C 
ENDBRANCH   9  12
ENDBRANCH   3   9
ENDBRANCH   2   8
ENDBRANCH   1   2
BRANCH   1  13
ATOM     13  C   UNL     1       7.127   5.234  17.905  0.00  0.00    +0.000 C 
BRANCH  13  14
ATOM     14  O   UNL     1       7.822   4.018  18.022  0.00  0.00    +0.000 OA
ATOM     15  H   UNL     1       7.216   3.360  18.449  0.00  0.00    +0.000 HD
ENDBRANCH  13  14
BRANCH  13  16
ATOM     16  C   UNL     1       6.403   5.290  16.536  0.00  0.00    +0.000 C 
BRANCH  16  17
ATOM     17  N   UNL     1       7.345   5.577  15.443  0.00  0.00    +0.000 NA
ATOM     18  H   UNL     1       8.319   5.580  15.826  0.00  0.00    +0.000 HD
BRANCH  17  19
ATOM     19  C   UNL     1       7.243   4.605  14.336  0.00  0.00    +0.000 C 
ATOM     20  C   UNL     1       5.787   4.255  14.025  0.00  0.00    +0.000 C 
ATOM     21  C   UNL     1       5.923   3.483  12.721  0.00  0.00    +0.000 C 
ATOM     22  C   UNL     1       7.069   4.177  11.964  0.00  0.00    +0.000 C 
ATOM     23  C   UNL     1       7.686   5.153  12.976  0.00  0.00    +0.000 C 
ENDBRANCH  17  19
ENDBRANCH  16  17
ENDBRANCH  13  16
ENDBRANCH   1  13
TORSDOF 9
ENDMDL
MODEL 5
REMARK VINA RESULT:      -6.6      1.051      1.551
REMARK  Name = 
REMARK  11 active torsions:
REMARK  status: ('A' for Active; 'I' for Inactive)
REMARK    1  A    between atoms: C_1  and  C_2
REMARK    2  A    between atoms: C_2  and  C_3
REMARK    3  A    between atoms: C_3  and  C_4
REMARK    4  A    between atoms: C_3  and  C_5
REMARK    5  A    between atoms: C_10  and  O_11
REMARK    6  A    between atoms: O_11  and  C_12
REMARK    7  A    between atoms: C_12  and  C_13
REMARK    8  A    between atoms: C_13  and  O_14
REMARK    9  A    between atoms: C_13  and  C_15
REMARK   10  A    between atoms: C_15  and  N_16
REMARK   11  A    between atoms: N_16  and  C_17
REMARK                            x       y       z     vdW  Elec       q    Type
REMARK                         _______ _______ _______ _____ _____    ______ ____
ROOT
ATOM      1  C   UNL     1       6.272   5.100  19.409  0.00  0.00    +0.000 C 
ENDROOT
BRANCH   1   2
ATOM      2  O   UNL     1       5.071   5.603  18.917  0.00  0.00    +0.000 OA
BRANCH   2   8
ATOM      3  C   UNL     1       2.761   5.310  18.190  0.00  0.00    +0.000 A 
ATOM      4  C   UNL     1       1.761   4.412  17.752  0.00  0.00    +0.000 A 
ATOM      5  C   UNL     1       2.039   3.069  17.528  0.00  0.00    +0.000 A 
ATOM      6  C   UNL     1       3.320   2.578  17.730  0.00  0.00    +0.000 A 
ATOM      7  C   UNL     1       4.327   3.427  18.171  0.00  0.00    +0.000 A 
ATOM      8  C   UNL     1       4.077   4.803  18.421  0.00  0.00    +0.000 A 
BRANCH   3   9
ATOM      9  C   UNL     1       2.339   6.766  18.405  0.00  0.00    +0.000 C 
ATOM     10  C   UNL     1       3.230   7.722  17.600  0.00  0.00    +0.000 C 
BRANCH   9  12
ATOM     11  C   UNL     1       1.631   6.011  20.750  0.00  0.00    +0.000 C 
ATOM     12  C   UNL     1       2.256   7.124  19.904  0.00  0.00    +0.000 C 
ENDBRANCH   9  12
ENDBRANCH   3   9
ENDBRANCH   2   8
ENDBRANCH   1   2
BRANCH   1  13
ATOM     13  C   UNL     1       7.500   5.707  18.708  0.00  0.00    +0.000 C 
BRANCH  13  14
ATOM     14  O   UNL     1       8.301   4.696  18.149  0.00  0.00    +0.000 OA
ATOM     15  H   UNL     1       8.561   4.983  17.236  0.00  0.00    +0.000 HD
ENDBRANCH  13  14
BRANCH  13  16
ATOM     16  C   UNL     1       7.072   6.704  17.602  0.00  0.00    +0.000 C 
BRANCH  16  17
ATOM     17  N   UNL     1       7.586   6.295  16.285  0.00  0.00    +0.000 NA
ATOM     18  H   UNL     1       8.590   6.019  16.382  0.00  0.00    +0.000 HD
BRANCH  17  19
ATOM     19  C   UNL     1       6.814   5.183  15.694  0.00  0.00    +0.000 C 
ATOM     20  C   UNL     1       5.412   5.631  15.274  0.00  0.00    +0.000 C 
ATOM     21  C   UNL     1       4.929   4.432  14.473  0.00  0.00    +0.000 C 
ATOM     22  C   UNL     1       6.177   3.911  13.740  0.00  0.00    +0.000 C 
ATOM     23  C   UNL     1       7.354   4.688  14.349  0.00  0.00    +0.000 C 
ENDBRANCH  17  19
ENDBRANCH  16  17
ENDBRANCH  13  16
ENDBRANCH   1  13
TORSDOF 9
ENDMDL
MODEL 6
REMARK VINA RESULT:      -6.6      1.557      1.801
REMARK  Name = 
REMARK  11 active torsions:
REMARK  status: ('A' for Active; 'I' for Inactive)
REMARK    1  A    between atoms: C_1  and  C_2
REMARK    2  A    between atoms: C_2  and  C_3
REMARK    3  A    between atoms: C_3  and  C_4
REMARK    4  A    between atoms: C_3  and  C_5
REMARK    5  A    between atoms: C_10  and  O_11
REMARK    6  A    between atoms: O_11  and  C_12
REMARK    7  A    between atoms: C_12  and  C_13
REMARK    8  A    between atoms: C_13  and  O_14
REMARK    9  A    between atoms: C_13  and  C_15
REMARK   10  A    between atoms: C_15  and  N_16
REMARK   11  A    between atoms: N_16  and  C_17
REMARK                            x       y       z     vdW  Elec       q    Type
REMARK                         _______ _______ _______ _____ _____    ______ ____
ROOT
ATOM      1  C   UNL     1       6.008   5.130  19.181  0.00  0.00    +0.000 C 
ENDROOT
BRANCH   1   2
ATOM      2  O   UNL     1       5.067   4.137  18.922  0.00  0.00    +0.000 OA
BRANCH   2   8
ATOM      3  C   UNL     1       2.987   4.810  20.001  0.00  0.00    +0.000 A 
ATOM      4  C   UNL     1       1.984   4.491  20.946  0.00  0.00    +0.000 A 
ATOM      5  C   UNL     1       1.986   3.279  21.625  0.00  0.00    +0.000 A 
ATOM      6  C   UNL     1       2.983   2.345  21.384  0.00  0.00    +0.000 A 
ATOM      7  C   UNL     1       3.991   2.626  20.471  0.00  0.00    +0.000 A 
ATOM      8  C   UNL     1       4.028   3.859  19.767  0.00  0.00    +0.000 A 
BRANCH   3   9
ATOM      9  C   UNL     1       2.882   6.175  19.315  0.00  0.00    +0.000 C 
ATOM     10  C   UNL     1       2.081   7.162  20.174  0.00  0.00    +0.000 C 
BRANCH   9  12
ATOM     11  C   UNL     1       1.658   4.713  17.601  0.00  0.00    +0.000 C 
ATOM     12  C   UNL     1       2.352   6.052  17.870  0.00  0.00    +0.000 C 
ENDBRANCH   9  12
ENDBRANCH   3   9
ENDBRANCH   2   8
ENDBRANCH   1   2
BRANCH   1  13
ATOM     13  C   UNL     1       7.053   5.264  18.059  0.00  0.00    +0.000 C 
BRANCH  13  14
ATOM     14  O   UNL     1       7.746   4.055  17.880  0.00  0.00    +0.000 OA
ATOM     15  H   UNL     1       7.511   3.454  18.633  0.00  0.00    +0.000 HD
ENDBRANCH  13  14
BRANCH  13  16
ATOM     16  C   UNL     1       6.384   5.683  16.725  0.00  0.00    +0.000 C 
BRANCH  16  17
ATOM     17  N   UNL     1       7.369   5.761  15.634  0.00  0.00    +0.000 NA
ATOM     18  H   UNL     1       8.331   5.691  16.038  0.00  0.00    +0.000 HD
BRANCH  17  19
ATOM     19  C   UNL     1       7.174   4.709  14.616  0.00  0.00    +0.000 C 
ATOM     20  C   UNL     1       5.690   4.433  14.368  0.00  0.00    +0.000 C 
ATOM     21  C   UNL     1       5.740   3.547  13.132  0.00  0.00    +0.000 C 
ATOM     22  C   UNL     1       6.907   4.096  12.294  0.00  0.00    +0.000 C 
ATOM     23  C   UNL     1       7.615   5.109  13.205  0.00  0.00    +0.000 C 
ENDBRANCH  17  19
ENDBRANCH  16  17
ENDBRANCH  13  16
ENDBRANCH   1  13
TORSDOF 9
ENDMDL
MODEL 7
REMARK VINA RESULT:      -6.6      1.146      1.449
REMARK  Name = 
REMARK  11 active torsions:
REMARK  status: ('A' for Active; 'I' for Inactive)
REMARK    1  A    between atoms: C_1  and  C_2
REMARK    2  A    between atoms: C_2  and  C_3
REMARK    3  A    between atoms: C_3  and  C_4
REMARK    4  A    between atoms: C_3  and  C_5
REMARK    5  A    between atoms: C_10  and  O_11
REMARK    6  A    between atoms: O_11  and  C_12
REMARK    7  A    between atoms: C_12  and  C_13
REMARK    8  A    between atoms: C_13  and  O_14
REMARK    9  A    between atoms: C_13  and  C_15
REMARK   10  A    between atoms: C_15  and  N_16
REMARK   11  A    between atoms: N_16  and  C_17
REMARK                            x       y       z     vdW  Elec       q    Type
REMARK                         _______ _______ _______ _____ _____    ______ ____
ROOT
ATOM      1  C   UNL     1       6.052   4.577  19.267  0.00  0.00    +0.000 C 
ENDROOT
BRANCH   1   2
ATOM      2  O   UNL     1       4.759   4.957  19.614  0.00  0.00    +0.000 OA
BRANCH   2   8
ATOM      3  C   UNL     1       2.656   5.536  18.522  0.00  0.00    +0.000 A 
ATOM      4  C   UNL     1       1.504   5.072  17.847  0.00  0.00    +0.000 A 
ATOM      5  C   UNL     1       1.341   3.730  17.527  0.00  0.00    +0.000 A 
ATOM      6  C   UNL     1       2.320   2.808  17.866  0.00  0.00    +0.000 A 
ATOM      7  C   UNL     1       3.461   3.223  18.540  0.00  0.00    +0.000 A 
ATOM      8  C   UNL     1       3.656   4.585  18.893  0.00  0.00    +0.000 A 
BRANCH   3   9
ATOM      9  C   UNL     1       2.726   7.036  18.822  0.00  0.00    +0.000 C 
ATOM     10  C   UNL     1       2.011   7.367  20.140  0.00  0.00    +0.000 C 
BRANCH   9  12
ATOM     11  C   UNL     1       1.954   9.341  18.008  0.00  0.00    +0.000 C 
ATOM     12  C   UNL     1       2.232   7.883  17.629  0.00  0.00    +0.000 C 
ENDBRANCH   9  12
ENDBRANCH   3   9
ENDBRANCH   2   8
ENDBRANCH   1   2
BRANCH   1  13
ATOM     13  C   UNL     1       7.064   5.729  19.395  0.00  0.00    +0.000 C 
BRANCH  13  14
ATOM     14  O   UNL     1       7.972   5.478  20.438  0.00  0.00    +0.000 OA
ATOM     15  H   UNL     1       8.788   6.014  20.268  0.00  0.00    +0.000 HD
ENDBRANCH  13  14
BRANCH  13  16
ATOM     16  C   UNL     1       7.839   5.937  18.069  0.00  0.00    +0.000 C 
BRANCH  16  17
ATOM     17  N   UNL     1       7.074   6.769  17.127  0.00  0.00    +0.000 NA
ATOM     18  H   UNL     1       7.656   7.592  16.849  0.00  0.00    +0.000 HD
BRANCH  17  19
ATOM     19  C   UNL     1       6.652   6.023  15.923  0.00  0.00    +0.000 C 
ATOM     20  C   UNL     1       7.205   4.596  15.922  0.00  0.00    +0.000 C 
ATOM     21  C   UNL     1       6.438   3.966  14.769  0.00  0.00    +0.000 C 
ATOM     22  C   UNL     1       5.037   4.597  14.829  0.00  0.00    +0.000 C 
ATOM     23  C   UNL     1       5.150   5.731  15.858  0.00  0.00    +0.000 C 
ENDBRANCH  17  19
ENDBRANCH  16  17
ENDBRANCH  13  16
ENDBRANCH   1  13
TORSDOF 9
ENDMDL
MODEL 8
REMARK VINA RESULT:      -6.6      1.458      3.258
REMARK  Name = 
REMARK  11 active torsions:
REMARK  status: ('A' for Active; 'I' for Inactive)
REMARK    1  A    between atoms: C_1  and  C_2
REMARK    2  A    between atoms: C_2  and  C_3
REMARK    3  A    between atoms: C_3  and  C_4
REMARK    4  A    between atoms: C_3  and  C_5
REMARK    5  A    between atoms: C_10  and  O_11
REMARK    6  A    between atoms: O_11  and  C_12
REMARK    7  A    between atoms: C_12  and  C_13
REMARK    8  A    between atoms: C_13  and  O_14
REMARK    9  A    between atoms: C_13  and  C_15
REMARK   10  A    between atoms: C_15  and  N_16
REMARK   11  A    between atoms: N_16  and  C_17
REMARK                            x       y       z     vdW  Elec       q    Type
REMARK                         _______ _______ _______ _____ _____    ______ ____
ROOT
ATOM      1  C   UNL     1       4.664   4.022  17.411  0.00  0.00    +0.000 C 
ENDROOT
BRANCH   1   2
ATOM      2  O   UNL     1       3.485   4.749  17.268  0.00  0.00    +0.000 OA
BRANCH   2   8
ATOM      3  C   UNL     1       2.391   4.957  19.437  0.00  0.00    +0.000 A 
ATOM      4  C   UNL     1       1.804   5.820  20.391  0.00  0.00    +0.000 A 
ATOM      5  C   UNL     1       1.798   7.199  20.216  0.00  0.00    +0.000 A 
ATOM      6  C   UNL     1       2.377   7.761  19.088  0.00  0.00    +0.000 A 
ATOM      7  C   UNL     1       2.953   6.945  18.123  0.00  0.00    +0.000 A 
ATOM      8  C   UNL     1       2.969   5.532  18.263  0.00  0.00    +0.000 A 
BRANCH   3   9
ATOM      9  C   UNL     1       2.338   3.456  19.737  0.00  0.00    +0.000 C 
ATOM     10  C   UNL     1       1.056   2.828  19.175  0.00  0.00    +0.000 C 
BRANCH   9  12
ATOM     11  C   UNL     1       1.359   2.460  21.887  0.00  0.00    +0.000 C 
ATOM     12  C   UNL     1       2.555   3.163  21.237  0.00  0.00    +0.000 C 
ENDBRANCH   9  12
ENDBRANCH   3   9
ENDBRANCH   2   8
ENDBRANCH   1   2
BRANCH   1  13
ATOM     13  C   UNL     1       5.890   4.922  17.651  0.00  0.00    +0.000 C 
BRANCH  13  14
ATOM     14  O   UNL     1       7.047   4.144  17.832  0.00  0.00    +0.000 OA
ATOM     15  H   UNL     1       6.981   3.703  18.717  0.00  0.00    +0.000 HD
ENDBRANCH  13  14
BRANCH  13  16
ATOM     16  C   UNL     1       6.100   5.901  16.467  0.00  0.00    +0.000 C 
BRANCH  16  17
ATOM     17  N   UNL     1       7.188   5.449  15.586  0.00  0.00    +0.000 NA
ATOM     18  H   UNL     1       7.648   4.613  16.014  0.00  0.00    +0.000 HD
BRANCH  17  19
ATOM     19  C   UNL     1       6.717   5.120  14.225  0.00  0.00    +0.000 C 
ATOM     20  C   UNL     1       7.872   5.087  13.222  0.00  0.00    +0.000 C 
ATOM     21  C   UNL     1       7.204   4.480  11.997  0.00  0.00    +0.000 C 
ATOM     22  C   UNL     1       6.208   3.448  12.556  0.00  0.00    +0.000 C 
ATOM     23  C   UNL     1       6.185   3.692  14.072  0.00  0.00    +0.000 C 
ENDBRANCH  17  19
ENDBRANCH  16  17
ENDBRANCH  13  16
ENDBRANCH   1  13
TORSDOF 9
ENDMDL
MODEL 9
REMARK VINA RESULT:      -6.5      1.432      1.765
REMARK  Name = 
REMARK  11 active torsions:
REMARK  status: ('A' for Active; 'I' for Inactive)
REMARK    1  A    between atoms: C_1  and  C_2
REMARK    2  A    between atoms: C_2  and  C_3
REMARK    3  A    between atoms: C_3  and  C_4
REMARK    4  A    between atoms: C_3  and  C_5
REMARK    5  A    between atoms: C_10  and  O_11
REMARK    6  A    between atoms: O_11  and  C_12
REMARK    7  A    between atoms: C_12  and  C_13
REMARK    8  A    between atoms: C_13  and  O_14
REMARK    9  A    between atoms: C_13  and  C_15
REMARK   10  A    between atoms: C_15  and  N_16
REMARK   11  A    between atoms: N_16  and  C_17
REMARK                            x       y       z     vdW  Elec       q    Type
REMARK                         _______ _______ _______ _____ _____    ______ ____
ROOT
ATOM      1  C   UNL     1       6.619   4.804  17.751  0.00  0.00    +0.000 C 
ENDROOT
BRANCH   1   2
ATOM      2  O   UNL     1       5.494   5.053  18.533  0.00  0.00    +0.000 OA
BRANCH   2   8
ATOM      3  C   UNL     1       3.090   5.419  18.351  0.00  0.00    +0.000 A 
ATOM      4  C   UNL     1       1.823   4.856  18.076  0.00  0.00    +0.000 A 
ATOM      5  C   UNL     1       1.689   3.537  17.659  0.00  0.00    +0.000 A 
ATOM      6  C   UNL     1       2.812   2.738  17.501  0.00  0.00    +0.000 A 
ATOM      7  C   UNL     1       4.073   3.252  17.772  0.00  0.00    +0.000 A 
ATOM      8  C   UNL     1       4.247   4.592  18.211  0.00  0.00    +0.000 A 
BRANCH   3   9
ATOM      9  C   UNL     1       3.114   6.881  18.804  0.00  0.00    +0.000 C 
ATOM     10  C   UNL     1       2.124   7.118  19.953  0.00  0.00    +0.000 C 
BRANCH   9  12
ATOM     11  C   UNL     1       1.841   8.908  17.885  0.00  0.00    +0.000 C 
ATOM     12  C   UNL     1       2.918   7.852  17.619  0.00  0.00    +0.000 C 
ENDBRANCH   9  12
ENDBRANCH   3   9
ENDBRANCH   2   8
ENDBRANCH   1   2
BRANCH   1  13
ATOM     13  C   UNL     1       6.677   5.693  16.496  0.00  0.00    +0.000 C 
BRANCH  13  14
ATOM     14  O   UNL     1       7.582   6.752  16.682  0.00  0.00    +0.000 OA
ATOM     15  H   UNL     1       7.928   6.699  17.609  0.00  0.00    +0.000 HD
ENDBRANCH  13  14
BRANCH  13  16
ATOM     16  C   UNL     1       7.090   4.868  15.250  0.00  0.00    +0.000 C 
BRANCH  16  17
ATOM     17  N   UNL     1       6.002   4.813  14.261  0.00  0.00    +0.000 NA
ATOM     18  H   UNL     1       6.016   5.689  13.690  0.00  0.00    +0.000 HD
BRANCH  17  19
ATOM     19  C   UNL     1       6.100   3.635  13.374  0.00  0.00    +0.000 C 
ATOM     20  C   UNL     1       4.866   3.500  12.480  0.00  0.00    +0.000 C 
ATOM     21  C   UNL     1       5.306   2.420  11.502  0.00  0.00    +0.000 C 
ATOM     22  C   UNL     1       6.805   2.678  11.270  0.00  0.00    +0.000 C 
ATOM     23  C   UNL     1       7.196   3.739  12.310  0.00  0.00    +0.000 C 
ENDBRANCH  17  19
ENDBRANCH  16  17
ENDBRANCH  13  16
ENDBRANCH   1  13
TORSDOF 9
ENDMDL
