MODEL 1
REMARK VINA RESULT:      -8.8      0.000      0.000
REMARK  Name = 
REMARK  8 active torsions:
REMARK  status: ('A' for Active; 'I' for Inactive)
REMARK    1  A    between atoms: N_1  and  S_2
REMARK    2  A    between atoms: S_2  and  C_5
REMARK    3  A    between atoms: C_10  and  N_11
REMARK    4  A    between atoms: N_11  and  S_12
REMARK    5  A    between atoms: S_12  and  C_15
REMARK    6  A    between atoms: C_15  and  C_16
REMARK    7  A    between atoms: C_16  and  C_17
REMARK    8  A    between atoms: C_20  and  C_21
REMARK                            x       y       z     vdW  Elec       q    Type
REMARK                         _______ _______ _______ _____ _____    ______ ____
ROOT
ATOM      1  N   UNL     1       4.781   3.407  17.992  0.00  0.00    +0.000 N 
ATOM      2  H   UNL     1       4.848   2.385  18.021  0.00  0.00    +0.000 HD
ENDROOT
BRANCH   1   8
ATOM      3  C   UNL     1       6.611   4.824  16.986  0.00  0.00    +0.000 A 
ATOM      4  C   UNL     1       7.308   5.267  15.844  0.00  0.00    +0.000 A 
ATOM      5  C   UNL     1       6.897   4.824  14.599  0.00  0.00    +0.000 A 
ATOM      6  C   UNL     1       5.781   3.996  14.468  0.00  0.00    +0.000 A 
ATOM      7  C   UNL     1       5.070   3.572  15.581  0.00  0.00    +0.000 A 
ATOM      8  C   UNL     1       5.515   3.944  16.865  0.00  0.00    +0.000 A 
ATOM      9  C   UNL     1       5.517   3.694  13.023  0.00  0.00    +0.000 C 
ATOM     10  C   UNL     1       6.885   4.017  12.402  0.00  0.00    +0.000 C 
ATOM     11  C   UNL     1       7.500   5.131  13.263  0.00  0.00    +0.000 C 
BRANCH   3  12
ATOM     12  S   UNL     1       7.248   5.340  18.553  0.00  0.00    +0.000 S 
ATOM     13  O   UNL     1       8.451   4.583  18.835  0.00  0.00    +0.000 OA
ATOM     14  O   UNL     1       6.195   5.459  19.542  0.00  0.00    +0.000 OA
BRANCH  12  15
ATOM     15  N   UNL     1       7.758   6.905  18.236  0.00  0.00    +0.000 NA
ATOM     16  H   UNL     1       8.170   7.319  19.067  0.00  0.00    +0.000 HD
ATOM     17  H   UNL     1       7.011   7.452  17.798  0.00  0.00    +0.000 HD
ENDBRANCH  12  15
ENDBRANCH   3  12
ENDBRANCH   1   8
BRANCH   1  18
ATOM     18  S   UNL     1       3.147   3.837  18.076  0.00  0.00    +0.000 S 
ATOM     19  O   UNL     1       2.459   3.269  16.934  0.00  0.00    +0.000 OA
ATOM     20  O   UNL     1       2.734   3.547  19.434  0.00  0.00    +0.000 OA
BRANCH  18  21
ATOM     21  C   UNL     1       3.176   5.627  17.862  0.00  0.00    +0.000 C 
BRANCH  21  22
ATOM     22  C   UNL     1       3.006   6.279  19.236  0.00  0.00    +0.000 C 
BRANCH  22  23
ATOM     23  C   UNL     1       2.198   7.552  19.233  0.00  0.00    +0.000 A 
ATOM     24  C   UNL     1       1.603   8.021  20.410  0.00  0.00    +0.000 A 
ATOM     25  C   UNL     1       0.886   9.223  20.418  0.00  0.00    +0.000 A 
ATOM     26  C   UNL     1       0.738   9.986  19.251  0.00  0.00    +0.000 A 
ATOM     27  C   UNL     1       1.345   9.514  18.078  0.00  0.00    +0.000 A 
ATOM     28  C   UNL     1       2.064   8.313  18.067  0.00  0.00    +0.000 A 
BRANCH  26  29
ATOM     29  C   UNL     1      -0.035  11.227  19.266  0.00  0.00    +0.000 A 
ATOM     30  C   UNL     1      -1.191  11.637  19.902  0.00  0.00    +0.000 A 
ATOM     31  C   UNL     1      -1.443  12.966  19.482  0.00  0.00    +0.000 A 
ATOM     32  C   UNL     1      -0.426  13.291  18.618  0.00  0.00    +0.000 A 
ATOM     33  O   UNL     1       0.429  12.250  18.481  0.00  0.00    +0.000 OA
ENDBRANCH  26  29
ENDBRANCH  22  23
ENDBRANCH  21  22
ENDBRANCH  18  21
ENDBRANCH   1  18
TORSDOF 8
ENDMDL
MODEL 2
REMARK VINA RESULT:      -8.6      5.559      7.295
REMARK  Name = 
REMARK  8 active torsions:
REMARK  status: ('A' for Active; 'I' for Inactive)
REMARK    1  A    between atoms: N_1  and  S_2
REMARK    2  A    between atoms: S_2  and  C_5
REMARK    3  A    between atoms: C_10  and  N_11
REMARK    4  A    between atoms: N_11  and  S_12
REMARK    5  A    between atoms: S_12  and  C_15
REMARK    6  A    between atoms: C_15  and  C_16
REMARK    7  A    between atoms: C_16  and  C_17
REMARK    8  A    between atoms: C_20  and  C_21
REMARK                            x       y       z     vdW  Elec       q    Type
REMARK                         _______ _______ _______ _____ _____    ______ ____
ROOT
ATOM      1  N   UNL     1       6.036   6.465  17.795  0.00  0.00    +0.000 N 
ATOM      2  H   UNL     1       6.337   6.710  16.848  0.00  0.00    +0.000 HD
ENDROOT
BRANCH   1   8
ATOM      3  C   UNL     1       4.493   4.802  16.688  0.00  0.00    +0.000 A 
ATOM      4  C   UNL     1       3.341   3.994  16.752  0.00  0.00    +0.000 A 
ATOM      5  C   UNL     1       2.555   4.041  17.890  0.00  0.00    +0.000 A 
ATOM      6  C   UNL     1       2.866   4.909  18.937  0.00  0.00    +0.000 A 
ATOM      7  C   UNL     1       3.984   5.730  18.878  0.00  0.00    +0.000 A 
ATOM      8  C   UNL     1       4.843   5.644  17.765  0.00  0.00    +0.000 A 
ATOM      9  C   UNL     1       1.845   4.803  20.029  0.00  0.00    +0.000 C 
ATOM     10  C   UNL     1       1.221   3.435  19.715  0.00  0.00    +0.000 C 
ATOM     11  C   UNL     1       1.318   3.253  18.193  0.00  0.00    +0.000 C 
BRANCH   3  12
ATOM     12  S   UNL     1       5.511   4.620  15.253  0.00  0.00    +0.000 S 
ATOM     13  O   UNL     1       6.335   5.804  15.118  0.00  0.00    +0.000 OA
ATOM     14  O   UNL     1       4.756   4.107  14.128  0.00  0.00    +0.000 OA
BRANCH  12  15
ATOM     15  N   UNL     1       6.553   3.388  15.707  0.00  0.00    +0.000 NA
ATOM     16  H   UNL     1       6.401   3.134  16.678  0.00  0.00    +0.000 HD
ATOM     17  H   UNL     1       7.520   3.616  15.459  0.00  0.00    +0.000 HD
ENDBRANCH  12  15
ENDBRANCH   3  12
ENDBRANCH   1   8
BRANCH   1  18
ATOM     18  S   UNL     1       7.358   5.807  18.622  0.00  0.00    +0.000 S 
ATOM     19  O   UNL     1       6.914   5.360  19.926  0.00  0.00    +0.000 OA
ATOM     20  O   UNL     1       7.997   4.905  17.684  0.00  0.00    +0.000 OA
BRANCH  18  21
ATOM     21  C   UNL     1       8.442   7.227  18.869  0.00  0.00    +0.000 C 
BRANCH  21  22
ATOM     22  C   UNL     1       7.993   8.346  17.929  0.00  0.00    +0.000 C 
BRANCH  22  23
ATOM     23  C   UNL     1       8.542   9.710  18.264  0.00  0.00    +0.000 A 
ATOM     24  C   UNL     1       8.198  10.826  17.493  0.00  0.00    +0.000 A 
ATOM     25  C   UNL     1       8.676  12.099  17.826  0.00  0.00    +0.000 A 
ATOM     26  C   UNL     1       9.514  12.291  18.934  0.00  0.00    +0.000 A 
ATOM     27  C   UNL     1       9.846  11.169  19.707  0.00  0.00    +0.000 A 
ATOM     28  C   UNL     1       9.369   9.895  19.378  0.00  0.00    +0.000 A 
BRANCH  26  29
ATOM     29  C   UNL     1      10.027  13.621  19.257  0.00  0.00    +0.000 A 
ATOM     30  C   UNL     1      11.226  14.272  19.041  0.00  0.00    +0.000 A 
ATOM     31  C   UNL     1      11.108  15.557  19.624  0.00  0.00    +0.000 A 
ATOM     32  C   UNL     1       9.845  15.618  20.159  0.00  0.00    +0.000 A 
ATOM     33  O   UNL     1       9.183  14.456  19.942  0.00  0.00    +0.000 OA
ENDBRANCH  26  29
ENDBRANCH  22  23
ENDBRANCH  21  22
ENDBRANCH  18  21
ENDBRANCH   1  18
TORSDOF 8
ENDMDL
MODEL 3
REMARK VINA RESULT:      -8.5      0.717      1.134
REMARK  Name = 
REMARK  8 active torsions:
REMARK  status: ('A' for Active; 'I' for Inactive)
REMARK    1  A    between atoms: N_1  and  S_2
REMARK    2  A    between atoms: S_2  and  C_5
REMARK    3  A    between atoms: C_10  and  N_11
REMARK    4  A    between atoms: N_11  and  S_12
REMARK    5  A    between atoms: S_12  and  C_15
REMARK    6  A    between atoms: C_15  and  C_16
REMARK    7  A    between atoms: C_16  and  C_17
REMARK    8  A    between atoms: C_20  and  C_21
REMARK                            x       y       z     vdW  Elec       q    Type
REMARK                         _______ _______ _______ _____ _____    ______ ____
ROOT
ATOM      1  N   UNL     1       4.786   3.520  18.262  0.00  0.00    +0.000 N 
ATOM      2  H   UNL     1       4.816   2.497  18.306  0.00  0.00    +0.000 HD
ENDROOT
BRANCH   1   8
ATOM      3  C   UNL     1       6.617   4.861  17.156  0.00  0.00    +0.000 A 
ATOM      4  C   UNL     1       7.282   5.257  15.980  0.00  0.00    +0.000 A 
ATOM      5  C   UNL     1       6.812   4.800  14.761  0.00  0.00    +0.000 A 
ATOM      6  C   UNL     1       5.670   4.002  14.690  0.00  0.00    +0.000 A 
ATOM      7  C   UNL     1       4.989   3.623  15.839  0.00  0.00    +0.000 A 
ATOM      8  C   UNL     1       5.492   4.010  17.097  0.00  0.00    +0.000 A 
ATOM      9  C   UNL     1       5.344   3.676  13.264  0.00  0.00    +0.000 C 
ATOM     10  C   UNL     1       6.695   3.945  12.585  0.00  0.00    +0.000 C 
ATOM     11  C   UNL     1       7.374   5.059  13.397  0.00  0.00    +0.000 C 
BRANCH   3  12
ATOM     12  S   UNL     1       7.327   5.392  18.687  0.00  0.00    +0.000 S 
ATOM     13  O   UNL     1       8.543   4.641  18.918  0.00  0.00    +0.000 OA
ATOM     14  O   UNL     1       6.321   5.518  19.723  0.00  0.00    +0.000 OA
BRANCH  12  15
ATOM     15  N   UNL     1       7.816   6.956  18.332  0.00  0.00    +0.000 NA
ATOM     16  H   UNL     1       8.582   7.234  18.938  0.00  0.00    +0.000 HD
ATOM     17  H   UNL     1       7.016   7.595  18.313  0.00  0.00    +0.000 HD
ENDBRANCH  12  15
ENDBRANCH   3  12
ENDBRANCH   1   8
BRANCH   1  18
ATOM     18  S   UNL     1       3.174   4.013  18.404  0.00  0.00    +0.000 S 
ATOM     19  O   UNL     1       2.358   3.186  17.540  0.00  0.00    +0.000 OA
ATOM     20  O   UNL     1       2.918   4.111  19.827  0.00  0.00    +0.000 OA
BRANCH  18  21
ATOM     21  C   UNL     1       3.186   5.679  17.716  0.00  0.00    +0.000 C 
BRANCH  21  22
ATOM     22  C   UNL     1       3.440   6.669  18.854  0.00  0.00    +0.000 C 
BRANCH  22  23
ATOM     23  C   UNL     1       2.393   7.745  19.000  0.00  0.00    +0.000 A 
ATOM     24  C   UNL     1       1.995   8.506  17.895  0.00  0.00    +0.000 A 
ATOM     25  C   UNL     1       0.997   9.478  18.020  0.00  0.00    +0.000 A 
ATOM     26  C   UNL     1       0.372   9.721  19.251  0.00  0.00    +0.000 A 
ATOM     27  C   UNL     1       0.769   8.947  20.352  0.00  0.00    +0.000 A 
ATOM     28  C   UNL     1       1.768   7.973  20.230  0.00  0.00    +0.000 A 
BRANCH  26  29
ATOM     29  C   UNL     1      -0.653  10.756  19.375  0.00  0.00    +0.000 A 
ATOM     30  C   UNL     1      -1.026  11.630  20.377  0.00  0.00    +0.000 A 
ATOM     31  C   UNL     1      -2.124  12.378  19.885  0.00  0.00    +0.000 A 
ATOM     32  C   UNL     1      -2.355  11.919  18.611  0.00  0.00    +0.000 A 
ATOM     33  O   UNL     1      -1.473  10.942  18.293  0.00  0.00    +0.000 OA
ENDBRANCH  26  29
ENDBRANCH  22  23
ENDBRANCH  21  22
ENDBRANCH  18  21
ENDBRANCH   1  18
TORSDOF 8
ENDMDL
MODEL 4
REMARK VINA RESULT:      -8.3      5.267      6.587
REMARK  Name = 
REMARK  8 active torsions:
REMARK  status: ('A' for Active; 'I' for Inactive)
REMARK    1  A    between atoms: N_1  and  S_2
REMARK    2  A    between atoms: S_2  and  C_5
REMARK    3  A    between atoms: C_10  and  N_11
REMARK    4  A    between atoms: N_11  and  S_12
REMARK    5  A    between atoms: S_12  and  C_15
REMARK    6  A    between atoms: C_15  and  C_16
REMARK    7  A    between atoms: C_16  and  C_17
REMARK    8  A    between atoms: C_20  and  C_21
REMARK                            x       y       z     vdW  Elec       q    Type
REMARK                         _______ _______ _______ _____ _____    ______ ____
ROOT
ATOM      1  N   UNL     1       6.155   6.145  17.518  0.00  0.00    +0.000 N 
ATOM      2  H   UNL     1       6.373   7.120  17.296  0.00  0.00    +0.000 HD
ENDROOT
BRANCH   1   8
ATOM      3  C   UNL     1       5.089   4.348  16.101  0.00  0.00    +0.000 A 
ATOM      4  C   UNL     1       5.034   3.643  14.883  0.00  0.00    +0.000 A 
ATOM      5  C   UNL     1       5.958   3.943  13.897  0.00  0.00    +0.000 A 
ATOM      6  C   UNL     1       6.959   4.889  14.120  0.00  0.00    +0.000 A 
ATOM      7  C   UNL     1       7.041   5.574  15.325  0.00  0.00    +0.000 A 
ATOM      8  C   UNL     1       6.066   5.344  16.315  0.00  0.00    +0.000 A 
ATOM      9  C   UNL     1       7.854   5.000  12.922  0.00  0.00    +0.000 C 
ATOM     10  C   UNL     1       6.957   4.398  11.830  0.00  0.00    +0.000 C 
ATOM     11  C   UNL     1       6.069   3.355  12.524  0.00  0.00    +0.000 C 
BRANCH   3  12
ATOM     12  S   UNL     1       3.819   3.994  17.280  0.00  0.00    +0.000 S 
ATOM     13  O   UNL     1       4.432   3.441  18.470  0.00  0.00    +0.000 OA
ATOM     14  O   UNL     1       2.683   3.343  16.658  0.00  0.00    +0.000 OA
BRANCH  12  15
ATOM     15  N   UNL     1       3.289   5.526  17.709  0.00  0.00    +0.000 NA
ATOM     16  H   UNL     1       4.034   6.206  17.585  0.00  0.00    +0.000 HD
ATOM     17  H   UNL     1       2.853   5.517  18.635  0.00  0.00    +0.000 HD
ENDBRANCH  12  15
ENDBRANCH   3  12
ENDBRANCH   1   8
BRANCH   1  18
ATOM     18  S   UNL     1       7.261   5.603  18.679  0.00  0.00    +0.000 S 
ATOM     19  O   UNL     1       6.566   5.433  19.938  0.00  0.00    +0.000 OA
ATOM     20  O   UNL     1       7.982   4.512  18.054  0.00  0.00    +0.000 OA
BRANCH  18  21
ATOM     21  C   UNL     1       8.390   6.997  18.861  0.00  0.00    +0.000 C 
BRANCH  21  22
ATOM     22  C   UNL     1       7.895   8.137  17.968  0.00  0.00    +0.000 C 
BRANCH  22  23
ATOM     23  C   UNL     1       8.477   9.490  18.293  0.00  0.00    +0.000 A 
ATOM     24  C   UNL     1       8.197  10.598  17.486  0.00  0.00    +0.000 A 
ATOM     25  C   UNL     1       8.705  11.862  17.808  0.00  0.00    +0.000 A 
ATOM     26  C   UNL     1       9.510  12.053  18.940  0.00  0.00    +0.000 A 
ATOM     27  C   UNL     1       9.778  10.939  19.749  0.00  0.00    +0.000 A 
ATOM     28  C   UNL     1       9.271   9.673  19.430  0.00  0.00    +0.000 A 
BRANCH  26  29
ATOM     29  C   UNL     1      10.054  13.373  19.252  0.00  0.00    +0.000 A 
ATOM     30  C   UNL     1      10.020  14.194  20.363  0.00  0.00    +0.000 A 
ATOM     31  C   UNL     1      10.727  15.374  20.026  0.00  0.00    +0.000 A 
ATOM     32  C   UNL     1      11.153  15.205  18.731  0.00  0.00    +0.000 A 
ATOM     33  O   UNL     1      10.754  14.001  18.255  0.00  0.00    +0.000 OA
ENDBRANCH  26  29
ENDBRANCH  22  23
ENDBRANCH  21  22
ENDBRANCH  18  21
ENDBRANCH   1  18
TORSDOF 8
ENDMDL
MODEL 5
REMARK VINA RESULT:      -8.2      1.331      1.565
REMARK  Name = 
REMARK  8 active torsions:
REMARK  status: ('A' for Active; 'I' for Inactive)
REMARK    1  A    between atoms: N_1  and  S_2
REMARK    2  A    between atoms: S_2  and  C_5
REMARK    3  A    between atoms: C_10  and  N_11
REMARK    4  A    between atoms: N_11  and  S_12
REMARK    5  A    between atoms: S_12  and  C_15
REMARK    6  A    between atoms: C_15  and  C_16
REMARK    7  A    between atoms: C_16  and  C_17
REMARK    8  A    between atoms: C_20  and  C_21
REMARK                            x       y       z     vdW  Elec       q    Type
REMARK                         _______ _______ _______ _____ _____    ______ ____
ROOT
ATOM      1  N   UNL     1       4.841   3.559  18.361  0.00  0.00    +0.000 N 
ATOM      2  H   UNL     1       4.736   2.540  18.344  0.00  0.00    +0.000 HD
ENDROOT
BRANCH   1   8
ATOM      3  C   UNL     1       6.739   4.788  17.240  0.00  0.00    +0.000 A 
ATOM      4  C   UNL     1       7.403   5.165  16.056  0.00  0.00    +0.000 A 
ATOM      5  C   UNL     1       6.869   4.778  14.839  0.00  0.00    +0.000 A 
ATOM      6  C   UNL     1       5.668   4.071  14.779  0.00  0.00    +0.000 A 
ATOM      7  C   UNL     1       4.989   3.713  15.936  0.00  0.00    +0.000 A 
ATOM      8  C   UNL     1       5.552   4.026  17.189  0.00  0.00    +0.000 A 
ATOM      9  C   UNL     1       5.282   3.809  13.354  0.00  0.00    +0.000 C 
ATOM     10  C   UNL     1       6.633   3.995  12.647  0.00  0.00    +0.000 C 
ATOM     11  C   UNL     1       7.414   5.031  13.467  0.00  0.00    +0.000 C 
BRANCH   3  12
ATOM     12  S   UNL     1       7.526   5.222  18.763  0.00  0.00    +0.000 S 
ATOM     13  O   UNL     1       8.774   4.494  18.863  0.00  0.00    +0.000 OA
ATOM     14  O   UNL     1       6.583   5.236  19.863  0.00  0.00    +0.000 OA
BRANCH  12  15
ATOM     15  N   UNL     1       7.951   6.823  18.505  0.00  0.00    +0.000 NA
ATOM     16  H   UNL     1       8.713   7.092  19.120  0.00  0.00    +0.000 HD
ATOM     17  H   UNL     1       7.127   7.430  18.536  0.00  0.00    +0.000 HD
ENDBRANCH  12  15
ENDBRANCH   3  12
ENDBRANCH   1   8
BRANCH   1  18
ATOM     18  S   UNL     1       3.317   4.248  18.617  0.00  0.00    +0.000 S 
ATOM     19  O   UNL     1       2.561   4.173  17.384  0.00  0.00    +0.000 OA
ATOM     20  O   UNL     1       2.825   3.663  19.848  0.00  0.00    +0.000 OA
BRANCH  18  21
ATOM     21  C   UNL     1       3.692   5.985  18.925  0.00  0.00    +0.000 C 
BRANCH  21  22
ATOM     22  C   UNL     1       2.690   6.839  18.146  0.00  0.00    +0.000 C 
BRANCH  22  23
ATOM     23  C   UNL     1       1.967   7.873  18.972  0.00  0.00    +0.000 A 
ATOM     24  C   UNL     1       1.822   7.706  20.354  0.00  0.00    +0.000 A 
ATOM     25  C   UNL     1       1.185   8.682  21.129  0.00  0.00    +0.000 A 
ATOM     26  C   UNL     1       0.670   9.848  20.545  0.00  0.00    +0.000 A 
ATOM     27  C   UNL     1       0.828  10.012  19.161  0.00  0.00    +0.000 A 
ATOM     28  C   UNL     1       1.466   9.038  18.383  0.00  0.00    +0.000 A 
BRANCH  26  29
ATOM     29  C   UNL     1      -0.015  10.849  21.361  0.00  0.00    +0.000 A 
ATOM     30  C   UNL     1      -0.050  12.230  21.366  0.00  0.00    +0.000 A 
ATOM     31  C   UNL     1      -0.895  12.616  22.435  0.00  0.00    +0.000 A 
ATOM     32  C   UNL     1      -1.328  11.451  23.018  0.00  0.00    +0.000 A 
ATOM     33  O   UNL     1      -0.804  10.378  22.376  0.00  0.00    +0.000 OA
ENDBRANCH  26  29
ENDBRANCH  22  23
ENDBRANCH  21  22
ENDBRANCH  18  21
ENDBRANCH   1  18
TORSDOF 8
ENDMDL
MODEL 6
REMARK VINA RESULT:      -8.1      1.049      1.143
REMARK  Name = 
REMARK  8 active torsions:
REMARK  status: ('A' for Active; 'I' for Inactive)
REMARK    1  A    between atoms: N_1  and  S_2
REMARK    2  A    between atoms: S_2  and  C_5
REMARK    3  A    between atoms: C_10  and  N_11
REMARK    4  A    between atoms: N_11  and  S_12
REMARK    5  A    between atoms: S_12  and  C_15
REMARK    6  A    between atoms: C_15  and  C_16
REMARK    7  A    between atoms: C_16  and  C_17
REMARK    8  A    between atoms: C_20  and  C_21
REMARK                            x       y       z     vdW  Elec       q    Type
REMARK                         _______ _______ _______ _____ _____    ______ ____
ROOT
ATOM      1  N   UNL     1       4.529   3.808  18.159  0.00  0.00    +0.000 N 
ATOM      2  H   UNL     1       4.533   2.790  18.269  0.00  0.00    +0.000 HD
ENDROOT
BRANCH   1   8
ATOM      3  C   UNL     1       6.420   5.051  17.039  0.00  0.00    +0.000 A 
ATOM      4  C   UNL     1       7.139   5.356  15.867  0.00  0.00    +0.000 A 
ATOM      5  C   UNL     1       6.717   4.815  14.665  0.00  0.00    +0.000 A 
ATOM      6  C   UNL     1       5.570   4.023  14.603  0.00  0.00    +0.000 A 
ATOM      7  C   UNL     1       4.836   3.734  15.745  0.00  0.00    +0.000 A 
ATOM      8  C   UNL     1       5.289   4.207  16.993  0.00  0.00    +0.000 A 
ATOM      9  C   UNL     1       5.301   3.596  13.191  0.00  0.00    +0.000 C 
ATOM     10  C   UNL     1       6.683   3.805  12.554  0.00  0.00    +0.000 C 
ATOM     11  C   UNL     1       7.339   4.969  13.312  0.00  0.00    +0.000 C 
BRANCH   3  12
ATOM     12  S   UNL     1       7.069   5.687  18.556  0.00  0.00    +0.000 S 
ATOM     13  O   UNL     1       6.127   5.401  19.619  0.00  0.00    +0.000 OA
ATOM     14  O   UNL     1       7.615   7.019  18.384  0.00  0.00    +0.000 OA
BRANCH  12  15
ATOM     15  N   UNL     1       8.385   4.685  18.832  0.00  0.00    +0.000 NA
ATOM     16  H   UNL     1       8.358   3.885  18.207  0.00  0.00    +0.000 HD
ATOM     17  H   UNL     1       8.473   4.462  19.827  0.00  0.00    +0.000 HD
ENDBRANCH  12  15
ENDBRANCH   3  12
ENDBRANCH   1   8
BRANCH   1  18
ATOM     18  S   UNL     1       2.925   4.343  18.206  0.00  0.00    +0.000 S 
ATOM     19  O   UNL     1       2.145   3.554  17.275  0.00  0.00    +0.000 OA
ATOM     20  O   UNL     1       2.580   4.423  19.612  0.00  0.00    +0.000 OA
BRANCH  18  21
ATOM     21  C   UNL     1       3.025   6.020  17.552  0.00  0.00    +0.000 C 
BRANCH  21  22
ATOM     22  C   UNL     1       3.311   6.974  18.713  0.00  0.00    +0.000 C 
BRANCH  22  23
ATOM     23  C   UNL     1       2.224   7.985  18.980  0.00  0.00    +0.000 A 
ATOM     24  C   UNL     1       1.663   8.107  20.257  0.00  0.00    +0.000 A 
ATOM     25  C   UNL     1       0.681   9.070  20.516  0.00  0.00    +0.000 A 
ATOM     26  C   UNL     1       0.229   9.933  19.508  0.00  0.00    +0.000 A 
ATOM     27  C   UNL     1       0.802   9.810  18.234  0.00  0.00    +0.000 A 
ATOM     28  C   UNL     1       1.785   8.849  17.971  0.00  0.00    +0.000 A 
BRANCH  26  29
ATOM     29  C   UNL     1      -0.815  10.918  19.785  0.00  0.00    +0.000 A 
ATOM     30  C   UNL     1      -1.183  11.648  20.899  0.00  0.00    +0.000 A 
ATOM     31  C   UNL     1      -2.308  12.424  20.530  0.00  0.00    +0.000 A 
ATOM     32  C   UNL     1      -2.561  12.127  19.214  0.00  0.00    +0.000 A 
ATOM     33  O   UNL     1      -1.665  11.220  18.754  0.00  0.00    +0.000 OA
ENDBRANCH  26  29
ENDBRANCH  22  23
ENDBRANCH  21  22
ENDBRANCH  18  21
ENDBRANCH   1  18
TORSDOF 8
ENDMDL
MODEL 7
REMARK VINA RESULT:      -8.1      1.080      1.499
REMARK  Name = 
REMARK  8 active torsions:
REMARK  status: ('A' for Active; 'I' for Inactive)
REMARK    1  A    between atoms: N_1  and  S_2
REMARK    2  A    between atoms: S_2  and  C_5
REMARK    3  A    between atoms: C_10  and  N_11
REMARK    4  A    between atoms: N_11  and  S_12
REMARK    5  A    between atoms: S_12  and  C_15
REMARK    6  A    between atoms: C_15  and  C_16
REMARK    7  A    between atoms: C_16  and  C_17
REMARK    8  A    between atoms: C_20  and  C_21
REMARK                            x       y       z     vdW  Elec       q    Type
REMARK                         _______ _______ _______ _____ _____    ______ ____
ROOT
ATOM      1  N   UNL     1       4.633   3.893  18.416  0.00  0.00    +0.000 N 
ATOM      2  H   UNL     1       4.348   2.909  18.394  0.00  0.00    +0.000 HD
ENDROOT
BRANCH   1   8
ATOM      3  C   UNL     1       6.648   4.886  17.265  0.00  0.00    +0.000 A 
ATOM      4  C   UNL     1       7.352   5.148  16.073  0.00  0.00    +0.000 A 
ATOM      5  C   UNL     1       6.791   4.762  14.868  0.00  0.00    +0.000 A 
ATOM      6  C   UNL     1       5.528   4.171  14.825  0.00  0.00    +0.000 A 
ATOM      7  C   UNL     1       4.811   3.929  15.989  0.00  0.00    +0.000 A 
ATOM      8  C   UNL     1       5.393   4.240  17.234  0.00  0.00    +0.000 A 
ATOM      9  C   UNL     1       5.128   3.887  13.409  0.00  0.00    +0.000 C 
ATOM     10  C   UNL     1       6.495   3.912  12.708  0.00  0.00    +0.000 C 
ATOM     11  C   UNL     1       7.367   4.903  13.493  0.00  0.00    +0.000 C 
BRANCH   3  12
ATOM     12  S   UNL     1       7.463   5.308  18.777  0.00  0.00    +0.000 S 
ATOM     13  O   UNL     1       8.669   4.514  18.889  0.00  0.00    +0.000 OA
ATOM     14  O   UNL     1       6.526   5.396  19.879  0.00  0.00    +0.000 OA
BRANCH  12  15
ATOM     15  N   UNL     1       7.975   6.877  18.484  0.00  0.00    +0.000 NA
ATOM     16  H   UNL     1       8.801   7.089  19.035  0.00  0.00    +0.000 HD
ATOM     17  H   UNL     1       7.200   7.539  18.581  0.00  0.00    +0.000 HD
ENDBRANCH  12  15
ENDBRANCH   3  12
ENDBRANCH   1   8
BRANCH   1  18
ATOM     18  S   UNL     1       3.261   4.839  18.709  0.00  0.00    +0.000 S 
ATOM     19  O   UNL     1       2.306   4.613  17.644  0.00  0.00    +0.000 OA
ATOM     20  O   UNL     1       2.918   4.612  20.099  0.00  0.00    +0.000 OA
BRANCH  18  21
ATOM     21  C   UNL     1       3.875   6.526  18.546  0.00  0.00    +0.000 C 
BRANCH  21  22
ATOM     22  C   UNL     1       2.877   7.323  17.704  0.00  0.00    +0.000 C 
BRANCH  22  23
ATOM     23  C   UNL     1       2.054   8.321  18.479  0.00  0.00    +0.000 A 
ATOM     24  C   UNL     1       1.557   9.471  17.856  0.00  0.00    +0.000 A 
ATOM     25  C   UNL     1       0.762  10.380  18.563  0.00  0.00    +0.000 A 
ATOM     26  C   UNL     1       0.445  10.167  19.912  0.00  0.00    +0.000 A 
ATOM     27  C   UNL     1       0.939   9.007  20.527  0.00  0.00    +0.000 A 
ATOM     28  C   UNL     1       1.734   8.096  19.822  0.00  0.00    +0.000 A 
BRANCH  26  29
ATOM     29  C   UNL     1      -0.367  11.136  20.648  0.00  0.00    +0.000 A 
ATOM     30  C   UNL     1      -0.236  11.780  21.863  0.00  0.00    +0.000 A 
ATOM     31  C   UNL     1      -1.387  12.591  22.025  0.00  0.00    +0.000 A 
ATOM     32  C   UNL     1      -2.150  12.397  20.900  0.00  0.00    +0.000 A 
ATOM     33  O   UNL     1      -1.544  11.522  20.062  0.00  0.00    +0.000 OA
ENDBRANCH  26  29
ENDBRANCH  22  23
ENDBRANCH  21  22
ENDBRANCH  18  21
ENDBRANCH   1  18
TORSDOF 8
ENDMDL
MODEL 8
REMARK VINA RESULT:      -8.1      6.271      7.922
REMARK  Name = 
REMARK  8 active torsions:
REMARK  status: ('A' for Active; 'I' for Inactive)
REMARK    1  A    between atoms: N_1  and  S_2
REMARK    2  A    between atoms: S_2  and  C_5
REMARK    3  A    between atoms: C_10  and  N_11
REMARK    4  A    between atoms: N_11  and  S_12
REMARK    5  A    between atoms: S_12  and  C_15
REMARK    6  A    between atoms: C_15  and  C_16
REMARK    7  A    between atoms: C_16  and  C_17
REMARK    8  A    between atoms: C_20  and  C_21
REMARK                            x       y       z     vdW  Elec       q    Type
REMARK                         _______ _______ _______ _____ _____    ______ ____
ROOT
ATOM      1  N   UNL     1       5.753   7.303  16.769  0.00  0.00    +0.000 N 
ATOM      2  H   UNL     1       5.841   7.280  15.749  0.00  0.00    +0.000 HD
ENDROOT
BRANCH   1   8
ATOM      3  C   UNL     1       5.025   4.886  16.749  0.00  0.00    +0.000 A 
ATOM      4  C   UNL     1       4.232   3.857  17.296  0.00  0.00    +0.000 A 
ATOM      5  C   UNL     1       3.362   4.163  18.329  0.00  0.00    +0.000 A 
ATOM      6  C   UNL     1       3.232   5.475  18.788  0.00  0.00    +0.000 A 
ATOM      7  C   UNL     1       3.988   6.503  18.242  0.00  0.00    +0.000 A 
ATOM      8  C   UNL     1       4.937   6.204  17.244  0.00  0.00    +0.000 A 
ATOM      9  C   UNL     1       2.202   5.551  19.874  0.00  0.00    +0.000 C 
ATOM     10  C   UNL     1       2.139   4.083  20.322  0.00  0.00    +0.000 C 
ATOM     11  C   UNL     1       2.458   3.237  19.081  0.00  0.00    +0.000 C 
BRANCH   3  12
ATOM     12  S   UNL     1       6.190   4.412  15.506  0.00  0.00    +0.000 S 
ATOM     13  O   UNL     1       6.323   5.499  14.558  0.00  0.00    +0.000 OA
ATOM     14  O   UNL     1       5.962   3.054  15.053  0.00  0.00    +0.000 OA
BRANCH  12  15
ATOM     15  N   UNL     1       7.632   4.374  16.361  0.00  0.00    +0.000 NA
ATOM     16  H   UNL     1       7.884   5.307  16.674  0.00  0.00    +0.000 HD
ATOM     17  H   UNL     1       8.356   3.877  15.835  0.00  0.00    +0.000 HD
ENDBRANCH  12  15
ENDBRANCH   3  12
ENDBRANCH   1   8
BRANCH   1  18
ATOM     18  S   UNL     1       7.305   7.406  17.436  0.00  0.00    +0.000 S 
ATOM     19  O   UNL     1       7.348   6.596  18.636  0.00  0.00    +0.000 OA
ATOM     20  O   UNL     1       8.220   7.184  16.334  0.00  0.00    +0.000 OA
BRANCH  18  21
ATOM     21  C   UNL     1       7.429   9.133  17.937  0.00  0.00    +0.000 C 
BRANCH  21  22
ATOM     22  C   UNL     1       8.809   9.357  18.556  0.00  0.00    +0.000 C 
BRANCH  22  23
ATOM     23  C   UNL     1       9.351  10.756  18.398  0.00  0.00    +0.000 A 
ATOM     24  C   UNL     1       8.597  11.744  17.755  0.00  0.00    +0.000 A 
ATOM     25  C   UNL     1       9.082  13.052  17.641  0.00  0.00    +0.000 A 
ATOM     26  C   UNL     1      10.335  13.408  18.161  0.00  0.00    +0.000 A 
ATOM     27  C   UNL     1      11.080  12.414  18.813  0.00  0.00    +0.000 A 
ATOM     28  C   UNL     1      10.598  11.105  18.929  0.00  0.00    +0.000 A 
BRANCH  26  29
ATOM     29  C   UNL     1      10.842  14.771  18.014  0.00  0.00    +0.000 A 
ATOM     30  C   UNL     1      10.369  16.020  18.368  0.00  0.00    +0.000 A 
ATOM     31  C   UNL     1      11.326  16.964  17.922  0.00  0.00    +0.000 A 
ATOM     32  C   UNL     1      12.327  16.238  17.325  0.00  0.00    +0.000 A 
ATOM     33  O   UNL     1      12.046  14.914  17.376  0.00  0.00    +0.000 OA
ENDBRANCH  26  29
ENDBRANCH  22  23
ENDBRANCH  21  22
ENDBRANCH  18  21
ENDBRANCH   1  18
TORSDOF 8
ENDMDL
MODEL 9
REMARK VINA RESULT:      -8.0      5.352      6.576
REMARK  Name = 
REMARK  8 active torsions:
REMARK  status: ('A' for Active; 'I' for Inactive)
REMARK    1  A    between atoms: N_1  and  S_2
REMARK    2  A    between atoms: S_2  and  C_5
REMARK    3  A    between atoms: C_10  and  N_11
REMARK    4  A    between atoms: N_11  and  S_12
REMARK    5  A    between atoms: S_12  and  C_15
REMARK    6  A    between atoms: C_15  and  C_16
REMARK    7  A    between atoms: C_16  and  C_17
REMARK    8  A    between atoms: C_20  and  C_21
REMARK                            x       y       z     vdW  Elec       q    Type
REMARK                         _______ _______ _______ _____ _____    ______ ____
ROOT
ATOM      1  N   UNL     1       6.263   6.271  17.423  0.00  0.00    +0.000 N 
ATOM      2  H   UNL     1       6.574   7.208  17.150  0.00  0.00    +0.000 HD
ENDROOT
BRANCH   1   8
ATOM      3  C   UNL     1       5.138   4.410  16.141  0.00  0.00    +0.000 A 
ATOM      4  C   UNL     1       5.033   3.646  14.963  0.00  0.00    +0.000 A 
ATOM      5  C   UNL     1       5.919   3.891  13.927  0.00  0.00    +0.000 A 
ATOM      6  C   UNL     1       6.930   4.843  14.063  0.00  0.00    +0.000 A 
ATOM      7  C   UNL     1       7.061   5.587  15.228  0.00  0.00    +0.000 A 
ATOM      8  C   UNL     1       6.125   5.411  16.266  0.00  0.00    +0.000 A 
ATOM      9  C   UNL     1       7.778   4.890  12.828  0.00  0.00    +0.000 C 
ATOM     10  C   UNL     1       6.837   4.238  11.803  0.00  0.00    +0.000 C 
ATOM     11  C   UNL     1       5.974   3.235  12.582  0.00  0.00    +0.000 C 
BRANCH   3  12
ATOM     12  S   UNL     1       3.914   4.122  17.385  0.00  0.00    +0.000 S 
ATOM     13  O   UNL     1       3.304   5.387  17.736  0.00  0.00    +0.000 OA
ATOM     14  O   UNL     1       4.401   3.221  18.411  0.00  0.00    +0.000 OA
BRANCH  12  15
ATOM     15  N   UNL     1       2.742   3.268  16.544  0.00  0.00    +0.000 NA
ATOM     16  H   UNL     1       1.944   3.078  17.143  0.00  0.00    +0.000 HD
ATOM     17  H   UNL     1       3.147   2.450  16.080  0.00  0.00    +0.000 HD
ENDBRANCH  12  15
ENDBRANCH   3  12
ENDBRANCH   1   8
BRANCH   1  18
ATOM     18  S   UNL     1       7.292   5.701  18.640  0.00  0.00    +0.000 S 
ATOM     19  O   UNL     1       6.504   5.428  19.824  0.00  0.00    +0.000 OA
ATOM     20  O   UNL     1       8.108   4.679  18.016  0.00  0.00    +0.000 OA
BRANCH  18  21
ATOM     21  C   UNL     1       8.342   7.123  18.998  0.00  0.00    +0.000 C 
BRANCH  21  22
ATOM     22  C   UNL     1       8.062   8.203  17.950  0.00  0.00    +0.000 C 
BRANCH  22  23
ATOM     23  C   UNL     1       8.555   9.580  18.319  0.00  0.00    +0.000 A 
ATOM     24  C   UNL     1       9.380   9.767  19.433  0.00  0.00    +0.000 A 
ATOM     25  C   UNL     1       9.870  11.039  19.755  0.00  0.00    +0.000 A 
ATOM     26  C   UNL     1       9.544  12.158  18.975  0.00  0.00    +0.000 A 
ATOM     27  C   UNL     1       8.724  11.961  17.855  0.00  0.00    +0.000 A 
ATOM     28  C   UNL     1       8.233  10.690  17.530  0.00  0.00    +0.000 A 
BRANCH  26  29
ATOM     29  C   UNL     1      10.041  13.485  19.335  0.00  0.00    +0.000 A 
ATOM     30  C   UNL     1      10.597  14.031  20.476  0.00  0.00    +0.000 A 
ATOM     31  C   UNL     1      10.851  15.396  20.198  0.00  0.00    +0.000 A 
ATOM     32  C   UNL     1      10.439  15.604  18.904  0.00  0.00    +0.000 A 
ATOM     33  O   UNL     1       9.949  14.457  18.374  0.00  0.00    +0.000 OA
ENDBRANCH  26  29
ENDBRANCH  22  23
ENDBRANCH  21  22
ENDBRANCH  18  21
ENDBRANCH   1  18
TORSDOF 8
ENDMDL
