MODEL 1
REMARK VINA RESULT:      -8.3      0.000      0.000
REMARK  Name = 
REMARK  4 active torsions:
REMARK  status: ('A' for Active; 'I' for Inactive)
REMARK    1  A    between atoms: C_2  and  C_13
REMARK    2  A    between atoms: N_3  and  C_4
REMARK    3  A    between atoms: C_4  and  C_5
REMARK    4  A    between atoms: C_5  and  C_6
REMARK                            x       y       z     vdW  Elec       q    Type
REMARK                         _______ _______ _______ _____ _____    ______ ____
ROOT
ATOM      1  N   UNL     1       5.105   5.404  19.000  0.00  0.00    +0.000 NA
ATOM      2  C   UNL     1       4.062   5.583  18.260  0.00  0.00    +0.000 C 
ATOM      3  N   UNL     1       3.729   4.637  17.234  0.00  0.00    +0.000 N 
ATOM      4  H   UNL     1       5.762   4.621  18.891  0.00  0.00    +0.000 HD
ATOM      5  H   UNL     1       3.041   4.883  16.510  0.00  0.00    +0.000 HD
ENDROOT
BRANCH   2   6
ATOM      6  C   UNL     1       3.191   6.770  18.541  0.00  0.00    +0.000 A 
ATOM      7  C   UNL     1       2.983   7.783  17.583  0.00  0.00    +0.000 A 
ATOM      8  C   UNL     1       2.122   8.854  17.845  0.00  0.00    +0.000 A 
ATOM      9  C   UNL     1       1.449   8.936  19.069  0.00  0.00    +0.000 A 
ATOM     10  C   UNL     1       0.573   9.997  19.332  0.00  0.00    +0.000 A 
ATOM     11  C   UNL     1      -0.097  10.066  20.555  0.00  0.00    +0.000 A 
ATOM     12  C   UNL     1       0.103   9.079  21.525  0.00  0.00    +0.000 A 
ATOM     13  C   UNL     1       0.971   8.014  21.273  0.00  0.00    +0.000 A 
ATOM     14  C   UNL     1       1.649   7.934  20.045  0.00  0.00    +0.000 A 
ATOM     15  C   UNL     1       2.513   6.863  19.776  0.00  0.00    +0.000 A 
ENDBRANCH   2   6
BRANCH   3  16
ATOM     16  C   UNL     1       4.264   3.288  17.235  0.00  0.00    +0.000 C 
BRANCH  16  17
ATOM     17  C   UNL     1       3.208   2.256  17.653  0.00  0.00    +0.000 C 
BRANCH  17  18
ATOM     18  C   UNL     1       2.574   2.648  18.971  0.00  0.00    +0.000 A 
ATOM     19  C   UNL     1       1.270   3.183  18.972  0.00  0.00    +0.000 A 
ATOM     20  C   UNL     1       0.641   3.532  20.167  0.00  0.00    +0.000 A 
ATOM     21  C   UNL     1       1.306   3.361  21.381  0.00  0.00    +0.000 A 
ATOM     22  C   UNL     1       2.601   2.845  21.403  0.00  0.00    +0.000 A 
ATOM     23  C   UNL     1       3.243   2.483  20.210  0.00  0.00    +0.000 A 
ATOM     24 CL   UNL     1       4.874   1.830  20.332  0.00  0.00    +0.000 Cl
ENDBRANCH  17  18
ENDBRANCH  16  17
ENDBRANCH   3  16
TORSDOF 4
ENDMDL
MODEL 2
REMARK VINA RESULT:      -7.8      1.203      1.578
REMARK  Name = 
REMARK  4 active torsions:
REMARK  status: ('A' for Active; 'I' for Inactive)
REMARK    1  A    between atoms: C_2  and  C_13
REMARK    2  A    between atoms: N_3  and  C_4
REMARK    3  A    between atoms: C_4  and  C_5
REMARK    4  A    between atoms: C_5  and  C_6
REMARK                            x       y       z     vdW  Elec       q    Type
REMARK                         _______ _______ _______ _____ _____    ______ ____
ROOT
ATOM      1  N   UNL     1       5.073   5.571  19.391  0.00  0.00    +0.000 NA
ATOM      2  C   UNL     1       4.187   5.779  18.475  0.00  0.00    +0.000 C 
ATOM      3  N   UNL     1       4.084   4.896  17.349  0.00  0.00    +0.000 N 
ATOM      4  H   UNL     1       5.762   4.808  19.364  0.00  0.00    +0.000 HD
ATOM      5  H   UNL     1       3.541   5.176  16.522  0.00  0.00    +0.000 HD
ENDROOT
BRANCH   2   6
ATOM      6  C   UNL     1       3.244   6.930  18.652  0.00  0.00    +0.000 A 
ATOM      7  C   UNL     1       3.016   7.870  17.626  0.00  0.00    +0.000 A 
ATOM      8  C   UNL     1       2.090   8.905  17.792  0.00  0.00    +0.000 A 
ATOM      9  C   UNL     1       1.370   9.024  18.986  0.00  0.00    +0.000 A 
ATOM     10  C   UNL     1       0.429  10.049  19.153  0.00  0.00    +0.000 A 
ATOM     11  C   UNL     1      -0.287  10.155  20.347  0.00  0.00    +0.000 A 
ATOM     12  C   UNL     1      -0.069   9.242  21.383  0.00  0.00    +0.000 A 
ATOM     13  C   UNL     1       0.864   8.213  21.227  0.00  0.00    +0.000 A 
ATOM     14  C   UNL     1       1.589   8.096  20.029  0.00  0.00    +0.000 A 
ATOM     15  C   UNL     1       2.518   7.061  19.856  0.00  0.00    +0.000 A 
ENDBRANCH   2   6
BRANCH   3  16
ATOM     16  C   UNL     1       4.648   3.558  17.374  0.00  0.00    +0.000 C 
BRANCH  16  17
ATOM     17  C   UNL     1       3.577   2.492  17.636  0.00  0.00    +0.000 C 
BRANCH  17  18
ATOM     18  C   UNL     1       2.817   2.805  18.909  0.00  0.00    +0.000 A 
ATOM     19  C   UNL     1       3.336   2.365  20.143  0.00  0.00    +0.000 A 
ATOM     20  C   UNL     1       2.679   2.655  21.339  0.00  0.00    +0.000 A 
ATOM     21  C   UNL     1       1.489   3.381  21.323  0.00  0.00    +0.000 A 
ATOM     22  C   UNL     1       0.951   3.816  20.113  0.00  0.00    +0.000 A 
ATOM     23  C   UNL     1       1.603   3.537  18.903  0.00  0.00    +0.000 A 
ATOM     24 CL   UNL     1       0.858   4.133  17.423  0.00  0.00    +0.000 Cl
ENDBRANCH  17  18
ENDBRANCH  16  17
ENDBRANCH   3  16
TORSDOF 4
ENDMDL
MODEL 3
REMARK VINA RESULT:      -7.8      0.619      1.627
REMARK  Name = 
REMARK  4 active torsions:
REMARK  status: ('A' for Active; 'I' for Inactive)
REMARK    1  A    between atoms: C_2  and  C_13
REMARK    2  A    between atoms: N_3  and  C_4
REMARK    3  A    between atoms: C_4  and  C_5
REMARK    4  A    between atoms: C_5  and  C_6
REMARK                            x       y       z     vdW  Elec       q    Type
REMARK                         _______ _______ _______ _____ _____    ______ ____
ROOT
ATOM      1  N   UNL     1       5.102   5.508  18.570  0.00  0.00    +0.000 NA
ATOM      2  C   UNL     1       3.851   5.484  18.249  0.00  0.00    +0.000 C 
ATOM      3  N   UNL     1       3.342   4.458  17.385  0.00  0.00    +0.000 N 
ATOM      4  H   UNL     1       5.801   4.841  18.217  0.00  0.00    +0.000 HD
ATOM      5  H   UNL     1       2.413   4.559  16.957  0.00  0.00    +0.000 HD
ENDROOT
BRANCH   2   6
ATOM      6  C   UNL     1       2.948   6.519  18.848  0.00  0.00    +0.000 A 
ATOM      7  C   UNL     1       2.355   6.347  20.115  0.00  0.00    +0.000 A 
ATOM      8  C   UNL     1       1.561   7.350  20.680  0.00  0.00    +0.000 A 
ATOM      9  C   UNL     1       1.340   8.548  19.991  0.00  0.00    +0.000 A 
ATOM     10  C   UNL     1       0.558   9.563  20.557  0.00  0.00    +0.000 A 
ATOM     11  C   UNL     1       0.349  10.757  19.863  0.00  0.00    +0.000 A 
ATOM     12  C   UNL     1       0.917  10.946  18.599  0.00  0.00    +0.000 A 
ATOM     13  C   UNL     1       1.702   9.941  18.026  0.00  0.00    +0.000 A 
ATOM     14  C   UNL     1       1.920   8.738  18.716  0.00  0.00    +0.000 A 
ATOM     15  C   UNL     1       2.715   7.729  18.157  0.00  0.00    +0.000 A 
ENDBRANCH   2   6
BRANCH   3  16
ATOM     16  C   UNL     1       4.062   3.217  17.166  0.00  0.00    +0.000 C 
BRANCH  16  17
ATOM     17  C   UNL     1       3.307   2.010  17.737  0.00  0.00    +0.000 C 
BRANCH  17  18
ATOM     18  C   UNL     1       2.610   2.382  19.030  0.00  0.00    +0.000 A 
ATOM     19  C   UNL     1       1.248   2.742  18.995  0.00  0.00    +0.000 A 
ATOM     20  C   UNL     1       0.565   3.066  20.167  0.00  0.00    +0.000 A 
ATOM     21  C   UNL     1       1.231   3.044  21.393  0.00  0.00    +0.000 A 
ATOM     22  C   UNL     1       2.581   2.704  21.448  0.00  0.00    +0.000 A 
ATOM     23  C   UNL     1       3.279   2.369  20.279  0.00  0.00    +0.000 A 
ATOM     24 CL   UNL     1       4.980   1.941  20.444  0.00  0.00    +0.000 Cl
ENDBRANCH  17  18
ENDBRANCH  16  17
ENDBRANCH   3  16
TORSDOF 4
ENDMDL
MODEL 4
REMARK VINA RESULT:      -7.4      0.913      1.108
REMARK  Name = 
REMARK  4 active torsions:
REMARK  status: ('A' for Active; 'I' for Inactive)
REMARK    1  A    between atoms: C_2  and  C_13
REMARK    2  A    between atoms: N_3  and  C_4
REMARK    3  A    between atoms: C_4  and  C_5
REMARK    4  A    between atoms: C_5  and  C_6
REMARK                            x       y       z     vdW  Elec       q    Type
REMARK                         _______ _______ _______ _____ _____    ______ ____
ROOT
ATOM      1  N   UNL     1       4.462   7.199  17.247  0.00  0.00    +0.000 NA
ATOM      2  C   UNL     1       3.340   6.801  17.747  0.00  0.00    +0.000 C 
ATOM      3  N   UNL     1       2.970   5.416  17.691  0.00  0.00    +0.000 N 
ATOM      4  H   UNL     1       5.128   6.583  16.763  0.00  0.00    +0.000 HD
ATOM      5  H   UNL     1       2.000   5.134  17.885  0.00  0.00    +0.000 HD
ENDROOT
BRANCH   2   6
ATOM      6  C   UNL     1       2.471   7.815  18.428  0.00  0.00    +0.000 A 
ATOM      7  C   UNL     1       1.889   8.889  17.725  0.00  0.00    +0.000 A 
ATOM      8  C   UNL     1       1.036   9.792  18.367  0.00  0.00    +0.000 A 
ATOM      9  C   UNL     1       0.745   9.642  19.728  0.00  0.00    +0.000 A 
ATOM     10  C   UNL     1      -0.121  10.533  20.375  0.00  0.00    +0.000 A 
ATOM     11  C   UNL     1      -0.409  10.370  21.732  0.00  0.00    +0.000 A 
ATOM     12  C   UNL     1       0.165   9.319  22.453  0.00  0.00    +0.000 A 
ATOM     13  C   UNL     1       1.028   8.422  21.817  0.00  0.00    +0.000 A 
ATOM     14  C   UNL     1       1.323   8.575  20.453  0.00  0.00    +0.000 A 
ATOM     15  C   UNL     1       2.176   7.674  19.802  0.00  0.00    +0.000 A 
ENDBRANCH   2   6
BRANCH   3  16
ATOM     16  C   UNL     1       3.952   4.372  17.463  0.00  0.00    +0.000 C 
BRANCH  16  17
ATOM     17  C   UNL     1       3.376   2.977  17.739  0.00  0.00    +0.000 C 
BRANCH  17  18
ATOM     18  C   UNL     1       2.659   2.953  19.074  0.00  0.00    +0.000 A 
ATOM     19  C   UNL     1       1.311   3.359  19.135  0.00  0.00    +0.000 A 
ATOM     20  C   UNL     1       0.609   3.327  20.340  0.00  0.00    +0.000 A 
ATOM     21  C   UNL     1       1.242   2.896  21.506  0.00  0.00    +0.000 A 
ATOM     22  C   UNL     1       2.579   2.502  21.471  0.00  0.00    +0.000 A 
ATOM     23  C   UNL     1       3.295   2.523  20.266  0.00  0.00    +0.000 A 
ATOM     24 CL   UNL     1       4.976   1.998  20.312  0.00  0.00    +0.000 Cl
ENDBRANCH  17  18
ENDBRANCH  16  17
ENDBRANCH   3  16
TORSDOF 4
ENDMDL
MODEL 5
REMARK VINA RESULT:      -7.4      4.016      7.669
REMARK  Name = 
REMARK  4 active torsions:
REMARK  status: ('A' for Active; 'I' for Inactive)
REMARK    1  A    between atoms: C_2  and  C_13
REMARK    2  A    between atoms: N_3  and  C_4
REMARK    3  A    between atoms: C_4  and  C_5
REMARK    4  A    between atoms: C_5  and  C_6
REMARK                            x       y       z     vdW  Elec       q    Type
REMARK                         _______ _______ _______ _____ _____    ______ ____
ROOT
ATOM      1  N   UNL     1       2.282   8.802  17.475  0.00  0.00    +0.000 NA
ATOM      2  C   UNL     1       1.899   8.419  18.647  0.00  0.00    +0.000 C 
ATOM      3  N   UNL     1       1.234   9.334  19.529  0.00  0.00    +0.000 N 
ATOM      4  H   UNL     1       2.173   9.760  17.117  0.00  0.00    +0.000 HD
ATOM      5  H   UNL     1       1.127   9.103  20.525  0.00  0.00    +0.000 HD
ENDROOT
BRANCH   2   6
ATOM      6  C   UNL     1       2.120   6.987  19.029  0.00  0.00    +0.000 A 
ATOM      7  C   UNL     1       1.930   6.531  20.350  0.00  0.00    +0.000 A 
ATOM      8  C   UNL     1       2.088   5.180  20.674  0.00  0.00    +0.000 A 
ATOM      9  C   UNL     1       2.438   4.253  19.686  0.00  0.00    +0.000 A 
ATOM     10  C   UNL     1       2.582   2.895  20.001  0.00  0.00    +0.000 A 
ATOM     11  C   UNL     1       2.926   1.978  19.006  0.00  0.00    +0.000 A 
ATOM     12  C   UNL     1       3.132   2.408  17.691  0.00  0.00    +0.000 A 
ATOM     13  C   UNL     1       2.987   3.759  17.365  0.00  0.00    +0.000 A 
ATOM     14  C   UNL     1       2.639   4.690  18.358  0.00  0.00    +0.000 A 
ATOM     15  C   UNL     1       2.479   6.046  18.040  0.00  0.00    +0.000 A 
ENDBRANCH   2   6
BRANCH   3  16
ATOM     16  C   UNL     1       0.611  10.550  19.040  0.00  0.00    +0.000 C 
BRANCH  16  17
ATOM     17  C   UNL     1      -0.810  10.726  19.592  0.00  0.00    +0.000 C 
BRANCH  17  18
ATOM     18  C   UNL     1      -1.819  10.749  18.463  0.00  0.00    +0.000 A 
ATOM     19  C   UNL     1      -1.584   9.963  17.317  0.00  0.00    +0.000 A 
ATOM     20  C   UNL     1      -2.501   9.936  16.267  0.00  0.00    +0.000 A 
ATOM     21  C   UNL     1      -3.666  10.701  16.338  0.00  0.00    +0.000 A 
ATOM     22  C   UNL     1      -3.913  11.496  17.456  0.00  0.00    +0.000 A 
ATOM     23  C   UNL     1      -3.003  11.527  18.523  0.00  0.00    +0.000 A 
ATOM     24 CL   UNL     1      -3.400  12.551  19.900  0.00  0.00    +0.000 Cl
ENDBRANCH  17  18
ENDBRANCH  16  17
ENDBRANCH   3  16
TORSDOF 4
ENDMDL
MODEL 6
REMARK VINA RESULT:      -7.4      2.518      4.149
REMARK  Name = 
REMARK  4 active torsions:
REMARK  status: ('A' for Active; 'I' for Inactive)
REMARK    1  A    between atoms: C_2  and  C_13
REMARK    2  A    between atoms: N_3  and  C_4
REMARK    3  A    between atoms: C_4  and  C_5
REMARK    4  A    between atoms: C_5  and  C_6
REMARK                            x       y       z     vdW  Elec       q    Type
REMARK                         _______ _______ _______ _____ _____    ______ ____
ROOT
ATOM      1  N   UNL     1       2.431   5.343  20.838  0.00  0.00    +0.000 NA
ATOM      2  C   UNL     1       2.564   6.177  19.861  0.00  0.00    +0.000 C 
ATOM      3  N   UNL     1       3.284   5.801  18.679  0.00  0.00    +0.000 N 
ATOM      4  H   UNL     1       2.843   4.401  20.853  0.00  0.00    +0.000 HD
ATOM      5  H   UNL     1       3.577   6.520  18.004  0.00  0.00    +0.000 HD
ENDROOT
BRANCH   2   6
ATOM      6  C   UNL     1       1.901   7.516  19.980  0.00  0.00    +0.000 A 
ATOM      7  C   UNL     1       1.820   8.405  18.889  0.00  0.00    +0.000 A 
ATOM      8  C   UNL     1       1.148   9.626  19.005  0.00  0.00    +0.000 A 
ATOM      9  C   UNL     1       0.542   9.987  20.214  0.00  0.00    +0.000 A 
ATOM     10  C   UNL     1      -0.146  11.202  20.333  0.00  0.00    +0.000 A 
ATOM     11  C   UNL     1      -0.751  11.549  21.543  0.00  0.00    +0.000 A 
ATOM     12  C   UNL     1      -0.672  10.688  22.642  0.00  0.00    +0.000 A 
ATOM     13  C   UNL     1       0.008   9.473  22.535  0.00  0.00    +0.000 A 
ATOM     14  C   UNL     1       0.619   9.113  21.322  0.00  0.00    +0.000 A 
ATOM     15  C   UNL     1       1.293   7.890  21.198  0.00  0.00    +0.000 A 
ENDBRANCH   2   6
BRANCH   3  16
ATOM     16  C   UNL     1       3.534   4.411  18.346  0.00  0.00    +0.000 C 
BRANCH  16  17
ATOM     17  C   UNL     1       4.697   4.262  17.356  0.00  0.00    +0.000 C 
BRANCH  17  18
ATOM     18  C   UNL     1       5.810   5.233  17.694  0.00  0.00    +0.000 A 
ATOM     19  C   UNL     1       6.653   4.955  18.788  0.00  0.00    +0.000 A 
ATOM     20  C   UNL     1       7.705   5.811  19.115  0.00  0.00    +0.000 A 
ATOM     21  C   UNL     1       7.928   6.963  18.362  0.00  0.00    +0.000 A 
ATOM     22  C   UNL     1       7.098   7.264  17.283  0.00  0.00    +0.000 A 
ATOM     23  C   UNL     1       6.041   6.409  16.938  0.00  0.00    +0.000 A 
ATOM     24 CL   UNL     1       5.050   6.862  15.554  0.00  0.00    +0.000 Cl
ENDBRANCH  17  18
ENDBRANCH  16  17
ENDBRANCH   3  16
TORSDOF 4
ENDMDL
MODEL 7
REMARK VINA RESULT:      -7.3      4.064      7.421
REMARK  Name = 
REMARK  4 active torsions:
REMARK  status: ('A' for Active; 'I' for Inactive)
REMARK    1  A    between atoms: C_2  and  C_13
REMARK    2  A    between atoms: N_3  and  C_4
REMARK    3  A    between atoms: C_4  and  C_5
REMARK    4  A    between atoms: C_5  and  C_6
REMARK                            x       y       z     vdW  Elec       q    Type
REMARK                         _______ _______ _______ _____ _____    ______ ____
ROOT
ATOM      1  N   UNL     1       1.964   9.363  17.296  0.00  0.00    +0.000 NA
ATOM      2  C   UNL     1       1.867   8.832  18.469  0.00  0.00    +0.000 C 
ATOM      3  N   UNL     1       1.223   9.541  19.536  0.00  0.00    +0.000 N 
ATOM      4  H   UNL     1       1.631  10.307  17.061  0.00  0.00    +0.000 HD
ATOM      5  H   UNL     1       1.336   9.223  20.508  0.00  0.00    +0.000 HD
ENDROOT
BRANCH   2   6
ATOM      6  C   UNL     1       2.395   7.442  18.662  0.00  0.00    +0.000 A 
ATOM      7  C   UNL     1       3.435   6.924  17.863  0.00  0.00    +0.000 A 
ATOM      8  C   UNL     1       3.951   5.646  18.096  0.00  0.00    +0.000 A 
ATOM      9  C   UNL     1       3.440   4.855  19.132  0.00  0.00    +0.000 A 
ATOM     10  C   UNL     1       3.963   3.579  19.380  0.00  0.00    +0.000 A 
ATOM     11  C   UNL     1       3.449   2.802  20.420  0.00  0.00    +0.000 A 
ATOM     12  C   UNL     1       2.409   3.289  21.217  0.00  0.00    +0.000 A 
ATOM     13  C   UNL     1       1.881   4.562  20.981  0.00  0.00    +0.000 A 
ATOM     14  C   UNL     1       2.393   5.353  19.939  0.00  0.00    +0.000 A 
ATOM     15  C   UNL     1       1.881   6.636  19.701  0.00  0.00    +0.000 A 
ENDBRANCH   2   6
BRANCH   3  16
ATOM     16  C   UNL     1       0.324  10.652  19.283  0.00  0.00    +0.000 C 
BRANCH  16  17
ATOM     17  C   UNL     1      -1.138  10.278  19.560  0.00  0.00    +0.000 C 
BRANCH  17  18
ATOM     18  C   UNL     1      -1.989  10.512  18.329  0.00  0.00    +0.000 A 
ATOM     19  C   UNL     1      -1.696   9.800  17.149  0.00  0.00    +0.000 A 
ATOM     20  C   UNL     1      -2.472   9.967  16.002  0.00  0.00    +0.000 A 
ATOM     21  C   UNL     1      -3.548  10.854  16.010  0.00  0.00    +0.000 A 
ATOM     22  C   UNL     1      -3.848  11.579  17.162  0.00  0.00    +0.000 A 
ATOM     23  C   UNL     1      -3.081  11.415  18.325  0.00  0.00    +0.000 A 
ATOM     24 CL   UNL     1      -3.538  12.363  19.738  0.00  0.00    +0.000 Cl
ENDBRANCH  17  18
ENDBRANCH  16  17
ENDBRANCH   3  16
TORSDOF 4
ENDMDL
MODEL 8
REMARK VINA RESULT:      -7.3      2.533      4.178
REMARK  Name = 
REMARK  4 active torsions:
REMARK  status: ('A' for Active; 'I' for Inactive)
REMARK    1  A    between atoms: C_2  and  C_13
REMARK    2  A    between atoms: N_3  and  C_4
REMARK    3  A    between atoms: C_4  and  C_5
REMARK    4  A    between atoms: C_5  and  C_6
REMARK                            x       y       z     vdW  Elec       q    Type
REMARK                         _______ _______ _______ _____ _____    ______ ____
ROOT
ATOM      1  N   UNL     1       2.273   5.782  18.081  0.00  0.00    +0.000 NA
ATOM      2  C   UNL     1       2.589   6.318  19.212  0.00  0.00    +0.000 C 
ATOM      3  N   UNL     1       3.576   5.708  20.054  0.00  0.00    +0.000 N 
ATOM      4  H   UNL     1       2.666   4.899  17.731  0.00  0.00    +0.000 HD
ATOM      5  H   UNL     1       3.670   6.002  21.035  0.00  0.00    +0.000 HD
ENDROOT
BRANCH   2   6
ATOM      6  C   UNL     1       1.936   7.614  19.587  0.00  0.00    +0.000 A 
ATOM      7  C   UNL     1       1.825   8.683  18.674  0.00  0.00    +0.000 A 
ATOM      8  C   UNL     1       1.163   9.863  19.026  0.00  0.00    +0.000 A 
ATOM      9  C   UNL     1       0.596  10.003  20.298  0.00  0.00    +0.000 A 
ATOM     10  C   UNL     1      -0.082  11.177  20.652  0.00  0.00    +0.000 A 
ATOM     11  C   UNL     1      -0.648  11.303  21.922  0.00  0.00    +0.000 A 
ATOM     12  C   UNL     1      -0.540  10.262  22.849  0.00  0.00    +0.000 A 
ATOM     13  C   UNL     1       0.132   9.085  22.506  0.00  0.00    +0.000 A 
ATOM     14  C   UNL     1       0.703   8.946  21.230  0.00  0.00    +0.000 A 
ATOM     15  C   UNL     1       1.367   7.766  20.871  0.00  0.00    +0.000 A 
ENDBRANCH   2   6
BRANCH   3  16
ATOM     16  C   UNL     1       4.529   4.742  19.539  0.00  0.00    +0.000 C 
BRANCH  16  17
ATOM     17  C   UNL     1       5.807   5.419  19.025  0.00  0.00    +0.000 C 
BRANCH  17  18
ATOM     18  C   UNL     1       6.037   5.081  17.566  0.00  0.00    +0.000 A 
ATOM     19  C   UNL     1       5.384   3.963  17.011  0.00  0.00    +0.000 A 
ATOM     20  C   UNL     1       5.550   3.634  15.665  0.00  0.00    +0.000 A 
ATOM     21  C   UNL     1       6.376   4.410  14.853  0.00  0.00    +0.000 A 
ATOM     22  C   UNL     1       7.042   5.513  15.385  0.00  0.00    +0.000 A 
ATOM     23  C   UNL     1       6.880   5.860  16.734  0.00  0.00    +0.000 A 
ATOM     24 CL   UNL     1       7.751   7.275  17.319  0.00  0.00    +0.000 Cl
ENDBRANCH  17  18
ENDBRANCH  16  17
ENDBRANCH   3  16
TORSDOF 4
ENDMDL
MODEL 9
REMARK VINA RESULT:      -7.3      1.414      2.106
REMARK  Name = 
REMARK  4 active torsions:
REMARK  status: ('A' for Active; 'I' for Inactive)
REMARK    1  A    between atoms: C_2  and  C_13
REMARK    2  A    between atoms: N_3  and  C_4
REMARK    3  A    between atoms: C_4  and  C_5
REMARK    4  A    between atoms: C_5  and  C_6
REMARK                            x       y       z     vdW  Elec       q    Type
REMARK                         _______ _______ _______ _____ _____    ______ ____
ROOT
ATOM      1  N   UNL     1       3.373   6.519  17.440  0.00  0.00    +0.000 NA
ATOM      2  C   UNL     1       3.153   6.664  18.704  0.00  0.00    +0.000 C 
ATOM      3  N   UNL     1       3.781   5.794  19.655  0.00  0.00    +0.000 N 
ATOM      4  H   UNL     1       3.963   5.778  17.039  0.00  0.00    +0.000 HD
ATOM      5  H   UNL     1       3.444   5.763  20.627  0.00  0.00    +0.000 HD
ENDROOT
BRANCH   2   6
ATOM      6  C   UNL     1       2.272   7.795  19.143  0.00  0.00    +0.000 A 
ATOM      7  C   UNL     1       1.832   8.787  18.243  0.00  0.00    +0.000 A 
ATOM      8  C   UNL     1       0.966   9.802  18.660  0.00  0.00    +0.000 A 
ATOM      9  C   UNL     1       0.519   9.850  19.986  0.00  0.00    +0.000 A 
ATOM     10  C   UNL     1      -0.362  10.855  20.407  0.00  0.00    +0.000 A 
ATOM     11  C   UNL     1      -0.805  10.889  21.731  0.00  0.00    +0.000 A 
ATOM     12  C   UNL     1      -0.373   9.922  22.644  0.00  0.00    +0.000 A 
ATOM     13  C   UNL     1       0.503   8.913  22.235  0.00  0.00    +0.000 A 
ATOM     14  C   UNL     1       0.954   8.868  20.905  0.00  0.00    +0.000 A 
ATOM     15  C   UNL     1       1.822   7.853  20.480  0.00  0.00    +0.000 A 
ENDBRANCH   2   6
BRANCH   3  16
ATOM     16  C   UNL     1       4.956   5.012  19.317  0.00  0.00    +0.000 C 
BRANCH  16  17
ATOM     17  C   UNL     1       4.698   3.506  19.450  0.00  0.00    +0.000 C 
BRANCH  17  18
ATOM     18  C   UNL     1       3.224   3.237  19.672  0.00  0.00    +0.000 A 
ATOM     19  C   UNL     1       2.735   3.152  20.991  0.00  0.00    +0.000 A 
ATOM     20  C   UNL     1       1.380   2.931  21.238  0.00  0.00    +0.000 A 
ATOM     21  C   UNL     1       0.491   2.784  20.173  0.00  0.00    +0.000 A 
ATOM     22  C   UNL     1       0.955   2.852  18.861  0.00  0.00    +0.000 A 
ATOM     23  C   UNL     1       2.314   3.080  18.597  0.00  0.00    +0.000 A 
ATOM     24 CL   UNL     1       2.811   3.162  16.909  0.00  0.00    +0.000 Cl
ENDBRANCH  17  18
ENDBRANCH  16  17
ENDBRANCH   3  16
TORSDOF 4
ENDMDL
