MODEL 1
REMARK VINA RESULT:      -9.6      0.000      0.000
REMARK  Name = 
REMARK  2 active torsions:
REMARK  status: ('A' for Active; 'I' for Inactive)
REMARK    1  A    between atoms: C_15  and  C_16
REMARK    2  A    between atoms: N_20  and  C_21
REMARK                            x       y       z     vdW  Elec       q    Type
REMARK                         _______ _______ _______ _____ _____    ______ ____
ROOT
ATOM      1  O   UNL     1       7.494   4.735  15.767  0.00  0.00    +0.000 OA
ATOM      2  C   UNL     1       6.474   4.691  16.446  0.00  0.00    +0.000 A 
ATOM      3  O   UNL     1       5.587   3.629  16.309  0.00  0.00    +0.000 OA
ATOM      4  C   UNL     1       4.448   3.487  17.126  0.00  0.00    +0.000 A 
ATOM      5  C   UNL     1       3.674   2.357  16.898  0.00  0.00    +0.000 A 
ATOM      6  C   UNL     1       2.541   2.151  17.676  0.00  0.00    +0.000 A 
ATOM      7  C   UNL     1       2.179   3.066  18.676  0.00  0.00    +0.000 A 
ATOM      8  C   UNL     1       1.028   2.826  19.444  0.00  0.00    +0.000 A 
ATOM      9  C   UNL     1       0.635   3.711  20.445  0.00  0.00    +0.000 A 
ATOM     10  C   UNL     1       1.389   4.848  20.693  0.00  0.00    +0.000 A 
ATOM     11  C   UNL     1       2.539   5.101  19.938  0.00  0.00    +0.000 A 
ATOM     12  C   UNL     1       2.971   4.224  18.912  0.00  0.00    +0.000 A 
ATOM     13  C   UNL     1       4.131   4.426  18.107  0.00  0.00    +0.000 A 
ATOM     14  C   UNL     1       5.031   5.575  18.230  0.00  0.00    +0.000 A 
ATOM     15  C   UNL     1       6.113   5.725  17.445  0.00  0.00    +0.000 A 
ENDROOT
BRANCH  15  16
ATOM     16  C   UNL     1       6.946   6.865  17.659  0.00  0.00    +0.000 A 
ATOM     17  N   UNL     1       6.976   7.944  16.897  0.00  0.00    +0.000 NA
ATOM     18  N   UNL     1       7.845   8.905  17.354  0.00  0.00    +0.000 NA
ATOM     19  C   UNL     1       8.501   8.546  18.436  0.00  0.00    +0.000 A 
ATOM     20  N   UNL     1       9.369   9.280  19.177  0.00  0.00    +0.000 N 
ATOM     21  S   UNL     1       8.136   6.928  18.917  0.00  0.00    +0.000 S 
ATOM     22  H   UNL     1       9.751   8.830  19.999  0.00  0.00    +0.000 HD
BRANCH  20  23
ATOM     23  C   UNL     1       9.486  10.686  19.193  0.00  0.00    +0.000 A 
ATOM     24  C   UNL     1       9.898  11.340  18.020  0.00  0.00    +0.000 A 
ATOM     25  C   UNL     1      10.089  12.725  17.989  0.00  0.00    +0.000 A 
ATOM     26  C   UNL     1       9.860  13.485  19.132  0.00  0.00    +0.000 A 
ATOM     27  C   UNL     1       9.435  12.860  20.299  0.00  0.00    +0.000 A 
ATOM     28  C   UNL     1       9.249  11.475  20.326  0.00  0.00    +0.000 A 
ENDBRANCH  20  23
ENDBRANCH  15  16
TORSDOF 2
ENDMDL
MODEL 2
REMARK VINA RESULT:      -8.5      6.523      8.311
REMARK  Name = 
REMARK  2 active torsions:
REMARK  status: ('A' for Active; 'I' for Inactive)
REMARK    1  A    between atoms: C_15  and  C_16
REMARK    2  A    between atoms: N_20  and  C_21
REMARK                            x       y       z     vdW  Elec       q    Type
REMARK                         _______ _______ _______ _____ _____    ______ ____
ROOT
ATOM      1  O   UNL     1       2.242  10.237  17.476  0.00  0.00    +0.000 OA
ATOM      2  C   UNL     1       2.241   9.135  18.013  0.00  0.00    +0.000 A 
ATOM      3  O   UNL     1       2.998   8.096  17.485  0.00  0.00    +0.000 OA
ATOM      4  C   UNL     1       3.100   6.840  18.113  0.00  0.00    +0.000 A 
ATOM      5  C   UNL     1       3.922   5.912  17.488  0.00  0.00    +0.000 A 
ATOM      6  C   UNL     1       4.074   4.655  18.061  0.00  0.00    +0.000 A 
ATOM      7  C   UNL     1       3.410   4.322  19.250  0.00  0.00    +0.000 A 
ATOM      8  C   UNL     1       3.587   3.042  19.803  0.00  0.00    +0.000 A 
ATOM      9  C   UNL     1       2.944   2.674  20.981  0.00  0.00    +0.000 A 
ATOM     10  C   UNL     1       2.116   3.580  21.626  0.00  0.00    +0.000 A 
ATOM     11  C   UNL     1       1.930   4.859  21.091  0.00  0.00    +0.000 A 
ATOM     12  C   UNL     1       2.567   5.271  19.894  0.00  0.00    +0.000 A 
ATOM     13  C   UNL     1       2.418   6.558  19.296  0.00  0.00    +0.000 A 
ATOM     14  C   UNL     1       1.578   7.627  19.839  0.00  0.00    +0.000 A 
ATOM     15  C   UNL     1       1.465   8.826  19.239  0.00  0.00    +0.000 A 
ENDROOT
BRANCH  15  16
ATOM     16  C   UNL     1       0.643   9.815  19.859  0.00  0.00    +0.000 A 
ATOM     17  N   UNL     1      -0.567  10.165  19.458  0.00  0.00    +0.000 NA
ATOM     18  N   UNL     1      -1.147  11.117  20.260  0.00  0.00    +0.000 NA
ATOM     19  C   UNL     1      -0.371  11.517  21.244  0.00  0.00    +0.000 A 
ATOM     20  N   UNL     1      -0.664  12.382  22.248  0.00  0.00    +0.000 N 
ATOM     21  S   UNL     1       1.191  10.785  21.186  0.00  0.00    +0.000 S 
ATOM     22  H   UNL     1       0.066  12.540  22.932  0.00  0.00    +0.000 HD
BRANCH  20  23
ATOM     23  C   UNL     1      -1.949  12.758  22.692  0.00  0.00    +0.000 A 
ATOM     24  C   UNL     1      -2.454  14.012  22.307  0.00  0.00    +0.000 A 
ATOM     25  C   UNL     1      -3.696  14.465  22.762  0.00  0.00    +0.000 A 
ATOM     26  C   UNL     1      -4.464  13.666  23.603  0.00  0.00    +0.000 A 
ATOM     27  C   UNL     1      -3.992  12.414  23.981  0.00  0.00    +0.000 A 
ATOM     28  C   UNL     1      -2.748  11.966  23.527  0.00  0.00    +0.000 A 
ENDBRANCH  20  23
ENDBRANCH  15  16
TORSDOF 2
ENDMDL
MODEL 3
REMARK VINA RESULT:      -8.5      6.774      8.066
REMARK  Name = 
REMARK  2 active torsions:
REMARK  status: ('A' for Active; 'I' for Inactive)
REMARK    1  A    between atoms: C_15  and  C_16
REMARK    2  A    between atoms: N_20  and  C_21
REMARK                            x       y       z     vdW  Elec       q    Type
REMARK                         _______ _______ _______ _____ _____    ______ ____
ROOT
ATOM      1  O   UNL     1       2.045  10.266  18.096  0.00  0.00    +0.000 OA
ATOM      2  C   UNL     1       2.103   9.120  18.525  0.00  0.00    +0.000 A 
ATOM      3  O   UNL     1       2.791   8.140  17.818  0.00  0.00    +0.000 OA
ATOM      4  C   UNL     1       2.961   6.832  18.312  0.00  0.00    +0.000 A 
ATOM      5  C   UNL     1       3.701   5.972  17.512  0.00  0.00    +0.000 A 
ATOM      6  C   UNL     1       3.915   4.668  17.945  0.00  0.00    +0.000 A 
ATOM      7  C   UNL     1       3.394   4.222  19.168  0.00  0.00    +0.000 A 
ATOM      8  C   UNL     1       3.630   2.899  19.576  0.00  0.00    +0.000 A 
ATOM      9  C   UNL     1       3.129   2.419  20.783  0.00  0.00    +0.000 A 
ATOM     10  C   UNL     1       2.385   3.256  21.600  0.00  0.00    +0.000 A 
ATOM     11  C   UNL     1       2.142   4.577  21.211  0.00  0.00    +0.000 A 
ATOM     12  C   UNL     1       2.636   5.102  19.991  0.00  0.00    +0.000 A 
ATOM     13  C   UNL     1       2.422   6.437  19.536  0.00  0.00    +0.000 A 
ATOM     14  C   UNL     1       1.654   7.445  20.269  0.00  0.00    +0.000 A 
ATOM     15  C   UNL     1       1.476   8.693  19.799  0.00  0.00    +0.000 A 
ENDROOT
BRANCH  15  16
ATOM     16  C   UNL     1       0.735   9.615  20.600  0.00  0.00    +0.000 A 
ATOM     17  N   UNL     1       0.979   9.895  21.868  0.00  0.00    +0.000 NA
ATOM     18  N   UNL     1       0.132  10.845  22.384  0.00  0.00    +0.000 NA
ATOM     19  C   UNL     1      -0.776  11.259  21.527  0.00  0.00    +0.000 A 
ATOM     20  N   UNL     1      -1.706  12.233  21.690  0.00  0.00    +0.000 N 
ATOM     21  S   UNL     1      -0.687  10.418  20.022  0.00  0.00    +0.000 S 
ATOM     22  H   UNL     1      -2.300  12.426  20.894  0.00  0.00    +0.000 HD
BRANCH  20  23
ATOM     23  C   UNL     1      -1.684  13.271  22.646  0.00  0.00    +0.000 A 
ATOM     24  C   UNL     1      -2.720  13.337  23.593  0.00  0.00    +0.000 A 
ATOM     25  C   UNL     1      -2.785  14.374  24.528  0.00  0.00    +0.000 A 
ATOM     26  C   UNL     1      -1.805  15.362  24.542  0.00  0.00    +0.000 A 
ATOM     27  C   UNL     1      -0.760  15.306  23.626  0.00  0.00    +0.000 A 
ATOM     28  C   UNL     1      -0.701  14.269  22.690  0.00  0.00    +0.000 A 
ENDBRANCH  20  23
ENDBRANCH  15  16
TORSDOF 2
ENDMDL
MODEL 4
REMARK VINA RESULT:      -8.4      6.623      8.243
REMARK  Name = 
REMARK  2 active torsions:
REMARK  status: ('A' for Active; 'I' for Inactive)
REMARK    1  A    between atoms: C_15  and  C_16
REMARK    2  A    between atoms: N_20  and  C_21
REMARK                            x       y       z     vdW  Elec       q    Type
REMARK                         _______ _______ _______ _____ _____    ______ ____
ROOT
ATOM      1  O   UNL     1       2.059  10.226  18.031  0.00  0.00    +0.000 OA
ATOM      2  C   UNL     1       2.106   9.085  18.476  0.00  0.00    +0.000 A 
ATOM      3  O   UNL     1       2.722   8.073  17.749  0.00  0.00    +0.000 OA
ATOM      4  C   UNL     1       2.881   6.769  18.256  0.00  0.00    +0.000 A 
ATOM      5  C   UNL     1       3.547   5.873  17.430  0.00  0.00    +0.000 A 
ATOM      6  C   UNL     1       3.746   4.571  17.874  0.00  0.00    +0.000 A 
ATOM      7  C   UNL     1       3.281   4.160  19.132  0.00  0.00    +0.000 A 
ATOM      8  C   UNL     1       3.500   2.837  19.548  0.00  0.00    +0.000 A 
ATOM      9  C   UNL     1       3.052   2.392  20.790  0.00  0.00    +0.000 A 
ATOM     10  C   UNL     1       2.381   3.264  21.632  0.00  0.00    +0.000 A 
ATOM     11  C   UNL     1       2.157   4.586  21.234  0.00  0.00    +0.000 A 
ATOM     12  C   UNL     1       2.597   5.076  19.980  0.00  0.00    +0.000 A 
ATOM     13  C   UNL     1       2.399   6.410  19.514  0.00  0.00    +0.000 A 
ATOM     14  C   UNL     1       1.705   7.453  20.272  0.00  0.00    +0.000 A 
ATOM     15  C   UNL     1       1.538   8.699  19.790  0.00  0.00    +0.000 A 
ENDROOT
BRANCH  15  16
ATOM     16  C   UNL     1       0.872   9.655  20.615  0.00  0.00    +0.000 A 
ATOM     17  N   UNL     1       1.043  10.965  20.560  0.00  0.00    +0.000 NA
ATOM     18  N   UNL     1       0.247  11.651  21.444  0.00  0.00    +0.000 NA
ATOM     19  C   UNL     1      -0.498  10.869  22.194  0.00  0.00    +0.000 A 
ATOM     20  N   UNL     1      -1.439  11.225  23.106  0.00  0.00    +0.000 N 
ATOM     21  S   UNL     1      -0.191   9.196  21.904  0.00  0.00    +0.000 S 
ATOM     22  H   UNL     1      -1.930  10.467  23.564  0.00  0.00    +0.000 HD
BRANCH  20  23
ATOM     23  C   UNL     1      -2.101  12.467  23.196  0.00  0.00    +0.000 A 
ATOM     24  C   UNL     1      -3.458  12.534  22.838  0.00  0.00    +0.000 A 
ATOM     25  C   UNL     1      -4.154  13.747  22.850  0.00  0.00    +0.000 A 
ATOM     26  C   UNL     1      -3.506  14.917  23.235  0.00  0.00    +0.000 A 
ATOM     27  C   UNL     1      -2.168  14.871  23.611  0.00  0.00    +0.000 A 
ATOM     28  C   UNL     1      -1.476  13.657  23.593  0.00  0.00    +0.000 A 
ENDBRANCH  20  23
ENDBRANCH  15  16
TORSDOF 2
ENDMDL
MODEL 5
REMARK VINA RESULT:      -8.4      6.640      7.693
REMARK  Name = 
REMARK  2 active torsions:
REMARK  status: ('A' for Active; 'I' for Inactive)
REMARK    1  A    between atoms: C_15  and  C_16
REMARK    2  A    between atoms: N_20  and  C_21
REMARK                            x       y       z     vdW  Elec       q    Type
REMARK                         _______ _______ _______ _____ _____    ______ ____
ROOT
ATOM      1  O   UNL     1       2.175  10.095  17.797  0.00  0.00    +0.000 OA
ATOM      2  C   UNL     1       2.200   8.973  18.289  0.00  0.00    +0.000 A 
ATOM      3  O   UNL     1       2.834   7.930  17.624  0.00  0.00    +0.000 OA
ATOM      4  C   UNL     1       2.966   6.645  18.188  0.00  0.00    +0.000 A 
ATOM      5  C   UNL     1       3.654   5.714  17.422  0.00  0.00    +0.000 A 
ATOM      6  C   UNL     1       3.829   4.429  17.923  0.00  0.00    +0.000 A 
ATOM      7  C   UNL     1       3.319   4.072  19.179  0.00  0.00    +0.000 A 
ATOM      8  C   UNL     1       3.514   2.765  19.656  0.00  0.00    +0.000 A 
ATOM      9  C   UNL     1       3.022   2.372  20.898  0.00  0.00    +0.000 A 
ATOM     10  C   UNL     1       2.328   3.281  21.682  0.00  0.00    +0.000 A 
ATOM     11  C   UNL     1       2.127   4.587  21.224  0.00  0.00    +0.000 A 
ATOM     12  C   UNL     1       2.613   5.024  19.967  0.00  0.00    +0.000 A 
ATOM     13  C   UNL     1       2.439   6.340  19.442  0.00  0.00    +0.000 A 
ATOM     14  C   UNL     1       1.727   7.416  20.133  0.00  0.00    +0.000 A 
ATOM     15  C   UNL     1       1.585   8.642  19.597  0.00  0.00    +0.000 A 
ENDROOT
BRANCH  15  16
ATOM     16  C   UNL     1       0.897   9.635  20.360  0.00  0.00    +0.000 A 
ATOM     17  N   UNL     1       1.179   9.974  21.606  0.00  0.00    +0.000 NA
ATOM     18  N   UNL     1       0.380  10.983  22.084  0.00  0.00    +0.000 NA
ATOM     19  C   UNL     1      -0.528  11.386  21.223  0.00  0.00    +0.000 A 
ATOM     20  N   UNL     1      -1.417  12.404  21.351  0.00  0.00    +0.000 N 
ATOM     21  S   UNL     1      -0.504  10.461  19.766  0.00  0.00    +0.000 S 
ATOM     22  H   UNL     1      -2.019  12.576  20.556  0.00  0.00    +0.000 HD
BRANCH  20  23
ATOM     23  C   UNL     1      -1.334  13.491  22.247  0.00  0.00    +0.000 A 
ATOM     24  C   UNL     1      -0.434  14.532  21.961  0.00  0.00    +0.000 A 
ATOM     25  C   UNL     1      -0.265  15.606  22.839  0.00  0.00    +0.000 A 
ATOM     26  C   UNL     1      -1.002  15.666  24.018  0.00  0.00    +0.000 A 
ATOM     27  C   UNL     1      -1.910  14.655  24.312  0.00  0.00    +0.000 A 
ATOM     28  C   UNL     1      -2.074  13.581  23.433  0.00  0.00    +0.000 A 
ENDBRANCH  20  23
ENDBRANCH  15  16
TORSDOF 2
ENDMDL
MODEL 6
REMARK VINA RESULT:      -8.2      1.236      1.600
REMARK  Name = 
REMARK  2 active torsions:
REMARK  status: ('A' for Active; 'I' for Inactive)
REMARK    1  A    between atoms: C_15  and  C_16
REMARK    2  A    between atoms: N_20  and  C_21
REMARK                            x       y       z     vdW  Elec       q    Type
REMARK                         _______ _______ _______ _____ _____    ______ ____
ROOT
ATOM      1  O   UNL     1       7.549   5.609  15.583  0.00  0.00    +0.000 OA
ATOM      2  C   UNL     1       6.581   5.411  16.308  0.00  0.00    +0.000 A 
ATOM      3  O   UNL     1       5.718   4.352  16.050  0.00  0.00    +0.000 OA
ATOM      4  C   UNL     1       4.644   4.028  16.902  0.00  0.00    +0.000 A 
ATOM      5  C   UNL     1       3.889   2.923  16.535  0.00  0.00    +0.000 A 
ATOM      6  C   UNL     1       2.819   2.543  17.337  0.00  0.00    +0.000 A 
ATOM      7  C   UNL     1       2.501   3.262  18.499  0.00  0.00    +0.000 A 
ATOM      8  C   UNL     1       1.414   2.850  19.287  0.00  0.00    +0.000 A 
ATOM      9  C   UNL     1       1.066   3.538  20.447  0.00  0.00    +0.000 A 
ATOM     10  C   UNL     1       1.802   4.648  20.835  0.00  0.00    +0.000 A 
ATOM     11  C   UNL     1       2.888   5.070  20.063  0.00  0.00    +0.000 A 
ATOM     12  C   UNL     1       3.273   4.396  18.877  0.00  0.00    +0.000 A 
ATOM     13  C   UNL     1       4.368   4.776  18.046  0.00  0.00    +0.000 A 
ATOM     14  C   UNL     1       5.240   5.924  18.304  0.00  0.00    +0.000 A 
ATOM     15  C   UNL     1       6.261   6.247  17.489  0.00  0.00    +0.000 A 
ENDROOT
BRANCH  15  16
ATOM     16  C   UNL     1       7.073   7.369  17.840  0.00  0.00    +0.000 A 
ATOM     17  N   UNL     1       8.176   7.318  18.565  0.00  0.00    +0.000 NA
ATOM     18  N   UNL     1       8.778   8.542  18.719  0.00  0.00    +0.000 NA
ATOM     19  C   UNL     1       8.119   9.526  18.146  0.00  0.00    +0.000 A 
ATOM     20  N   UNL     1       8.475  10.832  18.048  0.00  0.00    +0.000 N 
ATOM     21  S   UNL     1       6.637   8.997  17.438  0.00  0.00    +0.000 S 
ATOM     22  H   UNL     1       7.840  11.433  17.538  0.00  0.00    +0.000 HD
BRANCH  20  23
ATOM     23  C   UNL     1       9.772  11.368  18.192  0.00  0.00    +0.000 A 
ATOM     24  C   UNL     1      10.481  11.103  19.376  0.00  0.00    +0.000 A 
ATOM     25  C   UNL     1      11.747  11.653  19.603  0.00  0.00    +0.000 A 
ATOM     26  C   UNL     1      12.333  12.471  18.642  0.00  0.00    +0.000 A 
ATOM     27  C   UNL     1      11.656  12.732  17.455  0.00  0.00    +0.000 A 
ATOM     28  C   UNL     1      10.390  12.182  17.234  0.00  0.00    +0.000 A 
ENDBRANCH  20  23
ENDBRANCH  15  16
TORSDOF 2
ENDMDL
MODEL 7
REMARK VINA RESULT:      -8.2      4.907      7.507
REMARK  Name = 
REMARK  2 active torsions:
REMARK  status: ('A' for Active; 'I' for Inactive)
REMARK    1  A    between atoms: C_15  and  C_16
REMARK    2  A    between atoms: N_20  and  C_21
REMARK                            x       y       z     vdW  Elec       q    Type
REMARK                         _______ _______ _______ _____ _____    ______ ____
ROOT
ATOM      1  O   UNL     1       2.737   4.565  20.311  0.00  0.00    +0.000 OA
ATOM      2  C   UNL     1       2.350   5.707  20.094  0.00  0.00    +0.000 A 
ATOM      3  O   UNL     1       1.487   6.337  20.984  0.00  0.00    +0.000 OA
ATOM      4  C   UNL     1       1.085   7.677  20.825  0.00  0.00    +0.000 A 
ATOM      5  C   UNL     1       0.250   8.182  21.812  0.00  0.00    +0.000 A 
ATOM      6  C   UNL     1      -0.177   9.502  21.721  0.00  0.00    +0.000 A 
ATOM      7  C   UNL     1       0.223  10.315  20.651  0.00  0.00    +0.000 A 
ATOM      8  C   UNL     1      -0.227  11.644  20.590  0.00  0.00    +0.000 A 
ATOM      9  C   UNL     1       0.148  12.483  19.543  0.00  0.00    +0.000 A 
ATOM     10  C   UNL     1       0.980  12.003  18.543  0.00  0.00    +0.000 A 
ATOM     11  C   UNL     1       1.438  10.683  18.589  0.00  0.00    +0.000 A 
ATOM     12  C   UNL     1       1.079   9.801  19.637  0.00  0.00    +0.000 A 
ATOM     13  C   UNL     1       1.511   8.444  19.741  0.00  0.00    +0.000 A 
ATOM     14  C   UNL     1       2.381   7.779  18.769  0.00  0.00    +0.000 A 
ATOM     15  C   UNL     1       2.761   6.496  18.907  0.00  0.00    +0.000 A 
ENDROOT
BRANCH  15  16
ATOM     16  C   UNL     1       3.634   5.943  17.921  0.00  0.00    +0.000 A 
ATOM     17  N   UNL     1       3.452   4.792  17.298  0.00  0.00    +0.000 NA
ATOM     18  N   UNL     1       4.429   4.519  16.371  0.00  0.00    +0.000 NA
ATOM     19  C   UNL     1       5.368   5.438  16.315  0.00  0.00    +0.000 A 
ATOM     20  N   UNL     1       6.424   5.511  15.465  0.00  0.00    +0.000 N 
ATOM     21  S   UNL     1       5.140   6.681  17.490  0.00  0.00    +0.000 S 
ATOM     22  H   UNL     1       7.024   6.320  15.563  0.00  0.00    +0.000 HD
BRANCH  20  23
ATOM     23  C   UNL     1       6.559   4.850  14.226  0.00  0.00    +0.000 A 
ATOM     24  C   UNL     1       7.558   5.283  13.338  0.00  0.00    +0.000 A 
ATOM     25  C   UNL     1       7.704   4.707  12.072  0.00  0.00    +0.000 A 
ATOM     26  C   UNL     1       6.857   3.677  11.674  0.00  0.00    +0.000 A 
ATOM     27  C   UNL     1       5.873   3.221  12.544  0.00  0.00    +0.000 A 
ATOM     28  C   UNL     1       5.728   3.802  13.807  0.00  0.00    +0.000 A 
ENDBRANCH  20  23
ENDBRANCH  15  16
TORSDOF 2
ENDMDL
MODEL 8
REMARK VINA RESULT:      -8.2      6.545     10.355
REMARK  Name = 
REMARK  2 active torsions:
REMARK  status: ('A' for Active; 'I' for Inactive)
REMARK    1  A    between atoms: C_15  and  C_16
REMARK    2  A    between atoms: N_20  and  C_21
REMARK                            x       y       z     vdW  Elec       q    Type
REMARK                         _______ _______ _______ _____ _____    ______ ____
ROOT
ATOM      1  O   UNL     1      -1.261  10.144  19.569  0.00  0.00    +0.000 OA
ATOM      2  C   UNL     1      -0.444  11.015  19.290  0.00  0.00    +0.000 A 
ATOM      3  O   UNL     1      -0.832  12.348  19.232  0.00  0.00    +0.000 OA
ATOM      4  C   UNL     1       0.085  13.393  19.003  0.00  0.00    +0.000 A 
ATOM      5  C   UNL     1      -0.443  14.677  19.008  0.00  0.00    +0.000 A 
ATOM      6  C   UNL     1       0.409  15.754  18.797  0.00  0.00    +0.000 A 
ATOM      7  C   UNL     1       1.781  15.555  18.580  0.00  0.00    +0.000 A 
ATOM      8  C   UNL     1       2.613  16.666  18.372  0.00  0.00    +0.000 A 
ATOM      9  C   UNL     1       3.980  16.509  18.152  0.00  0.00    +0.000 A 
ATOM     10  C   UNL     1       4.532  15.238  18.140  0.00  0.00    +0.000 A 
ATOM     11  C   UNL     1       3.718  14.120  18.348  0.00  0.00    +0.000 A 
ATOM     12  C   UNL     1       2.324  14.240  18.575  0.00  0.00    +0.000 A 
ATOM     13  C   UNL     1       1.440  13.141  18.792  0.00  0.00    +0.000 A 
ATOM     14  C   UNL     1       1.855  11.737  18.802  0.00  0.00    +0.000 A 
ATOM     15  C   UNL     1       0.984  10.733  19.008  0.00  0.00    +0.000 A 
ENDROOT
BRANCH  15  16
ATOM     16  C   UNL     1       1.489   9.397  19.028  0.00  0.00    +0.000 A 
ATOM     17  N   UNL     1       1.525   8.608  20.087  0.00  0.00    +0.000 NA
ATOM     18  N   UNL     1       2.030   7.360  19.814  0.00  0.00    +0.000 NA
ATOM     19  C   UNL     1       2.411   7.211  18.564  0.00  0.00    +0.000 A 
ATOM     20  N   UNL     1       2.878   6.092  17.954  0.00  0.00    +0.000 N 
ATOM     21  S   UNL     1       2.242   8.665  17.650  0.00  0.00    +0.000 S 
ATOM     22  H   UNL     1       3.092   6.174  16.968  0.00  0.00    +0.000 HD
BRANCH  20  23
ATOM     23  C   UNL     1       2.715   4.761  18.392  0.00  0.00    +0.000 A 
ATOM     24  C   UNL     1       3.725   4.184  19.181  0.00  0.00    +0.000 A 
ATOM     25  C   UNL     1       3.649   2.851  19.597  0.00  0.00    +0.000 A 
ATOM     26  C   UNL     1       2.553   2.071  19.240  0.00  0.00    +0.000 A 
ATOM     27  C   UNL     1       1.534   2.627  18.475  0.00  0.00    +0.000 A 
ATOM     28  C   UNL     1       1.616   3.959  18.058  0.00  0.00    +0.000 A 
ENDBRANCH  20  23
ENDBRANCH  15  16
TORSDOF 2
ENDMDL
MODEL 9
REMARK VINA RESULT:      -8.1      6.650     10.212
REMARK  Name = 
REMARK  2 active torsions:
REMARK  status: ('A' for Active; 'I' for Inactive)
REMARK    1  A    between atoms: C_15  and  C_16
REMARK    2  A    between atoms: N_20  and  C_21
REMARK                            x       y       z     vdW  Elec       q    Type
REMARK                         _______ _______ _______ _____ _____    ______ ____
ROOT
ATOM      1  O   UNL     1      -1.082   9.621  20.467  0.00  0.00    +0.000 OA
ATOM      2  C   UNL     1      -0.458  10.569  20.003  0.00  0.00    +0.000 A 
ATOM      3  O   UNL     1      -0.986  11.853  20.062  0.00  0.00    +0.000 OA
ATOM      4  C   UNL     1      -0.270  12.985  19.624  0.00  0.00    +0.000 A 
ATOM      5  C   UNL     1      -0.911  14.206  19.779  0.00  0.00    +0.000 A 
ATOM      6  C   UNL     1      -0.257  15.364  19.374  0.00  0.00    +0.000 A 
ATOM      7  C   UNL     1       1.028  15.307  18.817  0.00  0.00    +0.000 A 
ATOM      8  C   UNL     1       1.661  16.496  18.420  0.00  0.00    +0.000 A 
ATOM      9  C   UNL     1       2.936  16.480  17.862  0.00  0.00    +0.000 A 
ATOM     10  C   UNL     1       3.598  15.273  17.694  0.00  0.00    +0.000 A 
ATOM     11  C   UNL     1       2.984  14.080  18.085  0.00  0.00    +0.000 A 
ATOM     12  C   UNL     1       1.688  14.056  18.657  0.00  0.00    +0.000 A 
ATOM     13  C   UNL     1       1.006  12.874  19.075  0.00  0.00    +0.000 A 
ATOM     14  C   UNL     1       1.556  11.521  18.961  0.00  0.00    +0.000 A 
ATOM     15  C   UNL     1       0.875  10.434  19.367  0.00  0.00    +0.000 A 
ENDROOT
BRANCH  15  16
ATOM     16  C   UNL     1       1.505   9.159  19.240  0.00  0.00    +0.000 A 
ATOM     17  N   UNL     1       1.653   8.278  20.214  0.00  0.00    +0.000 NA
ATOM     18  N   UNL     1       2.264   7.118  19.806  0.00  0.00    +0.000 NA
ATOM     19  C   UNL     1       2.614   7.129  18.538  0.00  0.00    +0.000 A 
ATOM     20  N   UNL     1       3.165   6.126  17.808  0.00  0.00    +0.000 N 
ATOM     21  S   UNL     1       2.276   8.641  17.778  0.00  0.00    +0.000 S 
ATOM     22  H   UNL     1       3.336   6.323  16.830  0.00  0.00    +0.000 HD
BRANCH  20  23
ATOM     23  C   UNL     1       3.145   4.749  18.115  0.00  0.00    +0.000 A 
ATOM     24  C   UNL     1       2.014   3.996  17.757  0.00  0.00    +0.000 A 
ATOM     25  C   UNL     1       1.910   2.641  18.085  0.00  0.00    +0.000 A 
ATOM     26  C   UNL     1       2.944   2.009  18.769  0.00  0.00    +0.000 A 
ATOM     27  C   UNL     1       4.080   2.730  19.117  0.00  0.00    +0.000 A 
ATOM     28  C   UNL     1       4.178   4.086  18.790  0.00  0.00    +0.000 A 
ENDBRANCH  20  23
ENDBRANCH  15  16
TORSDOF 2
ENDMDL
