MODEL 1
REMARK VINA RESULT:      -8.5      0.000      0.000
REMARK  Name = 
REMARK  5 active torsions:
REMARK  status: ('A' for Active; 'I' for Inactive)
REMARK    1  A    between atoms: C_1  and  O_2
REMARK    2  A    between atoms: O_2  and  C_3
REMARK    3  A    between atoms: N_9  and  C_10
REMARK    4  A    between atoms: C_10  and  C_11
REMARK    5  A    between atoms: C_10  and  C_12
REMARK                            x       y       z     vdW  Elec       q    Type
REMARK                         _______ _______ _______ _____ _____    ______ ____
ROOT
ATOM      1  C   UNL     1       3.405   6.049  18.894  0.00  0.00    +0.000 A 
ATOM      2  C   UNL     1       2.826   4.906  19.573  0.00  0.00    +0.000 A 
ATOM      3  C   UNL     1       1.513   4.828  20.118  0.00  0.00    +0.000 A 
ATOM      4  C   UNL     1       1.024   3.682  20.761  0.00  0.00    +0.000 A 
ATOM      5  C   UNL     1       1.826   2.564  20.889  0.00  0.00    +0.000 A 
ATOM      6  C   UNL     1       3.113   2.591  20.367  0.00  0.00    +0.000 A 
ATOM      7  C   UNL     1       3.609   3.733  19.713  0.00  0.00    +0.000 A 
ATOM      8  C   UNL     1       4.903   3.684  19.198  0.00  0.00    +0.000 A 
ATOM      9  C   UNL     1       5.462   4.752  18.501  0.00  0.00    +0.000 A 
ATOM     10  C   UNL     1       6.764   4.611  17.990  0.00  0.00    +0.000 A 
ATOM     11  C   UNL     1       7.365   5.630  17.261  0.00  0.00    +0.000 A 
ATOM     12  C   UNL     1       6.658   6.793  17.016  0.00  0.00    +0.000 A 
ATOM     13  C   UNL     1       5.362   6.939  17.521  0.00  0.00    +0.000 A 
ATOM     14  C   UNL     1       4.723   5.944  18.308  0.00  0.00    +0.000 A 
ENDROOT
BRANCH   1  15
ATOM     15  C   UNL     1       2.611   7.371  18.809  0.00  0.00    +0.000 C 
ATOM     16  C   UNL     1       1.650   7.438  17.606  0.00  0.00    +0.000 C 
BRANCH  15  23
ATOM     17  C   UNL     1       0.435  10.216  21.862  0.00  0.00    +0.000 A 
ATOM     18  N   UNL     1       0.330  11.232  21.022  0.00  0.00    +0.000 NA
ATOM     19  C   UNL     1       0.801  10.938  19.824  0.00  0.00    +0.000 A 
ATOM     20 CL   UNL     1       0.763  12.207  18.677  0.00  0.00    +0.000 Cl
ATOM     21  N   UNL     1       1.324   9.794  19.406  0.00  0.00    +0.000 NA
ATOM     22  C   UNL     1       1.383   8.856  20.337  0.00  0.00    +0.000 A 
ATOM     23  N   UNL     1       1.883   7.604  20.048  0.00  0.00    +0.000 N 
ATOM     24  N   UNL     1       0.965   9.028  21.583  0.00  0.00    +0.000 NA
ATOM     25  H   UNL     1       2.260   7.183  20.890  0.00  0.00    +0.000 HD
BRANCH  17  27
ATOM     26  C   UNL     1      -1.323  10.936  23.226  0.00  0.00    +0.000 C 
ATOM     27  O   UNL     1      -0.031  10.344  23.153  0.00  0.00    +0.000 OA
ENDBRANCH  17  27
ENDBRANCH  15  23
ENDBRANCH   1  15
TORSDOF 3
ENDMDL
MODEL 2
REMARK VINA RESULT:      -8.5      3.785      6.222
REMARK  Name = 
REMARK  5 active torsions:
REMARK  status: ('A' for Active; 'I' for Inactive)
REMARK    1  A    between atoms: C_1  and  O_2
REMARK    2  A    between atoms: O_2  and  C_3
REMARK    3  A    between atoms: N_9  and  C_10
REMARK    4  A    between atoms: C_10  and  C_11
REMARK    5  A    between atoms: C_10  and  C_12
REMARK                            x       y       z     vdW  Elec       q    Type
REMARK                         _______ _______ _______ _____ _____    ______ ____
ROOT
ATOM      1  C   UNL     1       0.635  10.583  19.694  0.00  0.00    +0.000 A 
ATOM      2  C   UNL     1       0.045  10.534  21.017  0.00  0.00    +0.000 A 
ATOM      3  C   UNL     1      -0.767  11.540  21.615  0.00  0.00    +0.000 A 
ATOM      4  C   UNL     1      -1.305  11.417  22.904  0.00  0.00    +0.000 A 
ATOM      5  C   UNL     1      -1.053  10.284  23.654  0.00  0.00    +0.000 A 
ATOM      6  C   UNL     1      -0.272   9.272  23.110  0.00  0.00    +0.000 A 
ATOM      7  C   UNL     1       0.265   9.383  21.814  0.00  0.00    +0.000 A 
ATOM      8  C   UNL     1       1.025   8.322  21.326  0.00  0.00    +0.000 A 
ATOM      9  C   UNL     1       1.561   8.327  20.041  0.00  0.00    +0.000 A 
ATOM     10  C   UNL     1       2.294   7.205  19.616  0.00  0.00    +0.000 A 
ATOM     11  C   UNL     1       2.829   7.138  18.336  0.00  0.00    +0.000 A 
ATOM     12  C   UNL     1       2.616   8.187  17.459  0.00  0.00    +0.000 A 
ATOM     13  C   UNL     1       1.887   9.305  17.876  0.00  0.00    +0.000 A 
ATOM     14  C   UNL     1       1.359   9.438  19.187  0.00  0.00    +0.000 A 
ENDROOT
BRANCH   1  15
ATOM     15  C   UNL     1       0.491  11.862  18.839  0.00  0.00    +0.000 C 
ATOM     16  C   UNL     1       1.840  12.490  18.437  0.00  0.00    +0.000 C 
BRANCH  15  23
ATOM     17  C   UNL     1      -3.645  11.114  16.724  0.00  0.00    +0.000 A 
ATOM     18  N   UNL     1      -4.376  11.560  17.732  0.00  0.00    +0.000 NA
ATOM     19  C   UNL     1      -3.631  12.010  18.725  0.00  0.00    +0.000 A 
ATOM     20 CL   UNL     1      -4.482  12.558  20.104  0.00  0.00    +0.000 Cl
ATOM     21  N   UNL     1      -2.308  12.064  18.799  0.00  0.00    +0.000 NA
ATOM     22  C   UNL     1      -1.688  11.583  17.735  0.00  0.00    +0.000 A 
ATOM     23  N   UNL     1      -0.311  11.590  17.655  0.00  0.00    +0.000 N 
ATOM     24  N   UNL     1      -2.316  11.083  16.680  0.00  0.00    +0.000 NA
ATOM     25  H   UNL     1       0.000  10.841  17.049  0.00  0.00    +0.000 HD
BRANCH  17  27
ATOM     26  C   UNL     1      -3.349  10.185  14.598  0.00  0.00    +0.000 C 
ATOM     27  O   UNL     1      -4.265  10.630  15.591  0.00  0.00    +0.000 OA
ENDBRANCH  17  27
ENDBRANCH  15  23
ENDBRANCH   1  15
TORSDOF 3
ENDMDL
MODEL 3
REMARK VINA RESULT:      -8.4      1.185      3.746
REMARK  Name = 
REMARK  5 active torsions:
REMARK  status: ('A' for Active; 'I' for Inactive)
REMARK    1  A    between atoms: C_1  and  O_2
REMARK    2  A    between atoms: O_2  and  C_3
REMARK    3  A    between atoms: N_9  and  C_10
REMARK    4  A    between atoms: C_10  and  C_11
REMARK    5  A    between atoms: C_10  and  C_12
REMARK                            x       y       z     vdW  Elec       q    Type
REMARK                         _______ _______ _______ _____ _____    ______ ____
ROOT
ATOM      1  C   UNL     1       3.223   5.812  18.264  0.00  0.00    +0.000 A 
ATOM      2  C   UNL     1       4.191   5.486  17.235  0.00  0.00    +0.000 A 
ATOM      3  C   UNL     1       4.970   6.415  16.488  0.00  0.00    +0.000 A 
ATOM      4  C   UNL     1       5.890   6.020  15.506  0.00  0.00    +0.000 A 
ATOM      5  C   UNL     1       6.071   4.679  15.227  0.00  0.00    +0.000 A 
ATOM      6  C   UNL     1       5.338   3.735  15.935  0.00  0.00    +0.000 A 
ATOM      7  C   UNL     1       4.419   4.122  16.927  0.00  0.00    +0.000 A 
ATOM      8  C   UNL     1       3.731   3.120  17.610  0.00  0.00    +0.000 A 
ATOM      9  C   UNL     1       2.833   3.408  18.635  0.00  0.00    +0.000 A 
ATOM     10  C   UNL     1       2.200   2.338  19.292  0.00  0.00    +0.000 A 
ATOM     11  C   UNL     1       1.317   2.559  20.340  0.00  0.00    +0.000 A 
ATOM     12  C   UNL     1       1.074   3.855  20.757  0.00  0.00    +0.000 A 
ATOM     13  C   UNL     1       1.701   4.924  20.109  0.00  0.00    +0.000 A 
ATOM     14  C   UNL     1       2.578   4.750  19.004  0.00  0.00    +0.000 A 
ENDROOT
BRANCH   1  15
ATOM     15  C   UNL     1       2.885   7.290  18.556  0.00  0.00    +0.000 C 
ATOM     16  C   UNL     1       2.027   7.955  17.462  0.00  0.00    +0.000 C 
BRANCH  15  23
ATOM     17  C   UNL     1       0.666   9.812  21.852  0.00  0.00    +0.000 A 
ATOM     18  N   UNL     1       0.396  10.834  21.057  0.00  0.00    +0.000 NA
ATOM     19  C   UNL     1       0.804  10.623  19.819  0.00  0.00    +0.000 A 
ATOM     20 CL   UNL     1       0.553  11.911  18.722  0.00  0.00    +0.000 Cl
ATOM     21  N   UNL     1       1.408   9.550  19.327  0.00  0.00    +0.000 NA
ATOM     22  C   UNL     1       1.630   8.599  20.218  0.00  0.00    +0.000 A 
ATOM     23  N   UNL     1       2.232   7.413  19.851  0.00  0.00    +0.000 N 
ATOM     24  N   UNL     1       1.290   8.693  21.495  0.00  0.00    +0.000 NA
ATOM     25  H   UNL     1       2.711   7.011  20.649  0.00  0.00    +0.000 HD
BRANCH  17  27
ATOM     26  C   UNL     1      -0.998  10.436  23.373  0.00  0.00    +0.000 C 
ATOM     27  O   UNL     1       0.286   9.856  23.176  0.00  0.00    +0.000 OA
ENDBRANCH  17  27
ENDBRANCH  15  23
ENDBRANCH   1  15
TORSDOF 3
ENDMDL
MODEL 4
REMARK VINA RESULT:      -8.4      0.134      3.619
REMARK  Name = 
REMARK  5 active torsions:
REMARK  status: ('A' for Active; 'I' for Inactive)
REMARK    1  A    between atoms: C_1  and  O_2
REMARK    2  A    between atoms: O_2  and  C_3
REMARK    3  A    between atoms: N_9  and  C_10
REMARK    4  A    between atoms: C_10  and  C_11
REMARK    5  A    between atoms: C_10  and  C_12
REMARK                            x       y       z     vdW  Elec       q    Type
REMARK                         _______ _______ _______ _____ _____    ______ ____
ROOT
ATOM      1  C   UNL     1       3.405   6.038  18.900  0.00  0.00    +0.000 A 
ATOM      2  C   UNL     1       4.724   5.949  18.304  0.00  0.00    +0.000 A 
ATOM      3  C   UNL     1       5.446   7.014  17.694  0.00  0.00    +0.000 A 
ATOM      4  C   UNL     1       6.724   6.847  17.140  0.00  0.00    +0.000 A 
ATOM      5  C   UNL     1       7.335   5.608  17.170  0.00  0.00    +0.000 A 
ATOM      6  C   UNL     1       6.672   4.540  17.761  0.00  0.00    +0.000 A 
ATOM      7  C   UNL     1       5.394   4.700  18.326  0.00  0.00    +0.000 A 
ATOM      8  C   UNL     1       4.795   3.589  18.919  0.00  0.00    +0.000 A 
ATOM      9  C   UNL     1       3.550   3.664  19.538  0.00  0.00    +0.000 A 
ATOM     10  C   UNL     1       3.029   2.503  20.136  0.00  0.00    +0.000 A 
ATOM     11  C   UNL     1       1.806   2.520  20.794  0.00  0.00    +0.000 A 
ATOM     12  C   UNL     1       1.102   3.708  20.881  0.00  0.00    +0.000 A 
ATOM     13  C   UNL     1       1.617   4.866  20.290  0.00  0.00    +0.000 A 
ATOM     14  C   UNL     1       2.840   4.887  19.569  0.00  0.00    +0.000 A 
ENDROOT
BRANCH   1  15
ATOM     15  C   UNL     1       2.613   7.361  18.808  0.00  0.00    +0.000 C 
ATOM     16  C   UNL     1       1.659   7.426  17.599  0.00  0.00    +0.000 C 
BRANCH  15  23
ATOM     17  C   UNL     1       0.427  10.215  21.845  0.00  0.00    +0.000 A 
ATOM     18  N   UNL     1       0.330  11.230  21.004  0.00  0.00    +0.000 NA
ATOM     19  C   UNL     1       0.808  10.934  19.809  0.00  0.00    +0.000 A 
ATOM     20 CL   UNL     1       0.781  12.202  18.661  0.00  0.00    +0.000 Cl
ATOM     21  N   UNL     1       1.330   9.788  19.396  0.00  0.00    +0.000 NA
ATOM     22  C   UNL     1       1.380   8.850  20.327  0.00  0.00    +0.000 A 
ATOM     23  N   UNL     1       1.878   7.596  20.042  0.00  0.00    +0.000 N 
ATOM     24  N   UNL     1       0.954   9.025  21.570  0.00  0.00    +0.000 NA
ATOM     25  H   UNL     1       2.248   7.175  20.887  0.00  0.00    +0.000 HD
BRANCH  17  27
ATOM     26  C   UNL     1      -1.316  10.986  23.202  0.00  0.00    +0.000 C 
ATOM     27  O   UNL     1      -0.048  10.344  23.133  0.00  0.00    +0.000 OA
ENDBRANCH  17  27
ENDBRANCH  15  23
ENDBRANCH   1  15
TORSDOF 3
ENDMDL
MODEL 5
REMARK VINA RESULT:      -8.3      3.812      6.887
REMARK  Name = 
REMARK  5 active torsions:
REMARK  status: ('A' for Active; 'I' for Inactive)
REMARK    1  A    between atoms: C_1  and  O_2
REMARK    2  A    between atoms: O_2  and  C_3
REMARK    3  A    between atoms: N_9  and  C_10
REMARK    4  A    between atoms: C_10  and  C_11
REMARK    5  A    between atoms: C_10  and  C_12
REMARK                            x       y       z     vdW  Elec       q    Type
REMARK                         _______ _______ _______ _____ _____    ______ ____
ROOT
ATOM      1  C   UNL     1       0.584  10.653  19.695  0.00  0.00    +0.000 A 
ATOM      2  C   UNL     1       1.350   9.513  19.228  0.00  0.00    +0.000 A 
ATOM      3  C   UNL     1       2.059   9.423  17.996  0.00  0.00    +0.000 A 
ATOM      4  C   UNL     1       2.781   8.283  17.615  0.00  0.00    +0.000 A 
ATOM      5  C   UNL     1       2.824   7.181  18.449  0.00  0.00    +0.000 A 
ATOM      6  C   UNL     1       2.154   7.225  19.664  0.00  0.00    +0.000 A 
ATOM      7  C   UNL     1       1.434   8.367  20.058  0.00  0.00    +0.000 A 
ATOM      8  C   UNL     1       0.799   8.348  21.299  0.00  0.00    +0.000 A 
ATOM      9  C   UNL     1       0.098   9.447  21.788  0.00  0.00    +0.000 A 
ATOM     10  C   UNL     1      -0.490   9.354  23.061  0.00  0.00    +0.000 A 
ATOM     11  C   UNL     1      -1.177  10.427  23.616  0.00  0.00    +0.000 A 
ATOM     12  C   UNL     1      -1.262  11.613  22.909  0.00  0.00    +0.000 A 
ATOM     13  C   UNL     1      -0.678  11.711  21.642  0.00  0.00    +0.000 A 
ATOM     14  C   UNL     1      -0.004  10.629  21.016  0.00  0.00    +0.000 A 
ENDROOT
BRANCH   1  15
ATOM     15  C   UNL     1       0.396  11.878  18.773  0.00  0.00    +0.000 C 
ATOM     16  C   UNL     1       1.721  12.550  18.363  0.00  0.00    +0.000 C 
BRANCH  15  23
ATOM     17  C   UNL     1      -3.660  10.857  16.617  0.00  0.00    +0.000 A 
ATOM     18  N   UNL     1      -4.429  11.335  17.580  0.00  0.00    +0.000 NA
ATOM     19  C   UNL     1      -3.725  11.870  18.561  0.00  0.00    +0.000 A 
ATOM     20 CL   UNL     1      -4.626  12.468  19.886  0.00  0.00    +0.000 Cl
ATOM     21  N   UNL     1      -2.407  11.976  18.660  0.00  0.00    +0.000 NA
ATOM     22  C   UNL     1      -1.745  11.455  17.641  0.00  0.00    +0.000 A 
ATOM     23  N   UNL     1      -0.368  11.508  17.591  0.00  0.00    +0.000 N 
ATOM     24  N   UNL     1      -2.330  10.872  16.605  0.00  0.00    +0.000 NA
ATOM     25  H   UNL     1      -0.016  10.735  17.037  0.00  0.00    +0.000 HD
BRANCH  17  27
ATOM     26  C   UNL     1      -3.357  10.227  14.385  0.00  0.00    +0.000 C 
ATOM     27  O   UNL     1      -4.235  10.284  15.503  0.00  0.00    +0.000 OA
ENDBRANCH  17  27
ENDBRANCH  15  23
ENDBRANCH   1  15
TORSDOF 3
ENDMDL
MODEL 6
REMARK VINA RESULT:      -8.3      1.133      1.133
REMARK  Name = 
REMARK  5 active torsions:
REMARK  status: ('A' for Active; 'I' for Inactive)
REMARK    1  A    between atoms: C_1  and  O_2
REMARK    2  A    between atoms: O_2  and  C_3
REMARK    3  A    between atoms: N_9  and  C_10
REMARK    4  A    between atoms: C_10  and  C_11
REMARK    5  A    between atoms: C_10  and  C_12
REMARK                            x       y       z     vdW  Elec       q    Type
REMARK                         _______ _______ _______ _____ _____    ______ ____
ROOT
ATOM      1  C   UNL     1       3.247   5.805  18.263  0.00  0.00    +0.000 A 
ATOM      2  C   UNL     1       2.620   4.751  19.035  0.00  0.00    +0.000 A 
ATOM      3  C   UNL     1       1.608   4.919  20.024  0.00  0.00    +0.000 A 
ATOM      4  C   UNL     1       1.048   3.845  20.729  0.00  0.00    +0.000 A 
ATOM      5  C   UNL     1       1.476   2.555  20.480  0.00  0.00    +0.000 A 
ATOM      6  C   UNL     1       2.455   2.340  19.519  0.00  0.00    +0.000 A 
ATOM      7  C   UNL     1       3.018   3.411  18.801  0.00  0.00    +0.000 A 
ATOM      8  C   UNL     1       3.984   3.120  17.839  0.00  0.00    +0.000 A 
ATOM      9  C   UNL     1       4.565   4.112  17.053  0.00  0.00    +0.000 A 
ATOM     10  C   UNL     1       5.513   3.731  16.087  0.00  0.00    +0.000 A 
ATOM     11  C   UNL     1       6.106   4.669  15.252  0.00  0.00    +0.000 A 
ATOM     12  C   UNL     1       5.739   5.999  15.361  0.00  0.00    +0.000 A 
ATOM     13  C   UNL     1       4.795   6.383  16.319  0.00  0.00    +0.000 A 
ATOM     14  C   UNL     1       4.195   5.467  17.223  0.00  0.00    +0.000 A 
ENDROOT
BRANCH   1  15
ATOM     15  C   UNL     1       2.903   7.281  18.562  0.00  0.00    +0.000 C 
ATOM     16  C   UNL     1       2.034   7.944  17.476  0.00  0.00    +0.000 C 
BRANCH  15  23
ATOM     17  C   UNL     1       0.652   9.767  21.863  0.00  0.00    +0.000 A 
ATOM     18  N   UNL     1       0.350  10.777  21.064  0.00  0.00    +0.000 NA
ATOM     19  C   UNL     1       0.751  10.568  19.823  0.00  0.00    +0.000 A 
ATOM     20 CL   UNL     1       0.458  11.843  18.721  0.00  0.00    +0.000 Cl
ATOM     21  N   UNL     1       1.378   9.507  19.332  0.00  0.00    +0.000 NA
ATOM     22  C   UNL     1       1.631   8.568  20.227  0.00  0.00    +0.000 A 
ATOM     23  N   UNL     1       2.259   7.395  19.862  0.00  0.00    +0.000 N 
ATOM     24  N   UNL     1       1.301   8.662  21.507  0.00  0.00    +0.000 NA
ATOM     25  H   UNL     1       2.755   7.011  20.658  0.00  0.00    +0.000 HD
BRANCH  17  27
ATOM     26  C   UNL     1      -0.973  10.442  23.403  0.00  0.00    +0.000 C 
ATOM     27  O   UNL     1       0.283   9.810  23.190  0.00  0.00    +0.000 OA
ENDBRANCH  17  27
ENDBRANCH  15  23
ENDBRANCH   1  15
TORSDOF 3
ENDMDL
MODEL 7
REMARK VINA RESULT:      -8.3      5.283      7.960
REMARK  Name = 
REMARK  5 active torsions:
REMARK  status: ('A' for Active; 'I' for Inactive)
REMARK    1  A    between atoms: C_1  and  O_2
REMARK    2  A    between atoms: O_2  and  C_3
REMARK    3  A    between atoms: N_9  and  C_10
REMARK    4  A    between atoms: C_10  and  C_11
REMARK    5  A    between atoms: C_10  and  C_12
REMARK                            x       y       z     vdW  Elec       q    Type
REMARK                         _______ _______ _______ _____ _____    ______ ____
ROOT
ATOM      1  C   UNL     1       4.177   5.570  18.099  0.00  0.00    +0.000 A 
ATOM      2  C   UNL     1       3.371   6.770  18.218  0.00  0.00    +0.000 A 
ATOM      3  C   UNL     1       3.440   7.916  17.376  0.00  0.00    +0.000 A 
ATOM      4  C   UNL     1       2.622   9.041  17.555  0.00  0.00    +0.000 A 
ATOM      5  C   UNL     1       1.700   9.070  18.585  0.00  0.00    +0.000 A 
ATOM      6  C   UNL     1       1.592   7.972  19.427  0.00  0.00    +0.000 A 
ATOM      7  C   UNL     1       2.403   6.836  19.251  0.00  0.00    +0.000 A 
ATOM      8  C   UNL     1       2.228   5.763  20.123  0.00  0.00    +0.000 A 
ATOM      9  C   UNL     1       2.957   4.583  19.998  0.00  0.00    +0.000 A 
ATOM     10  C   UNL     1       2.700   3.538  20.903  0.00  0.00    +0.000 A 
ATOM     11  C   UNL     1       3.374   2.326  20.812  0.00  0.00    +0.000 A 
ATOM     12  C   UNL     1       4.296   2.140  19.798  0.00  0.00    +0.000 A 
ATOM     13  C   UNL     1       4.554   3.176  18.894  0.00  0.00    +0.000 A 
ATOM     14  C   UNL     1       3.924   4.446  18.974  0.00  0.00    +0.000 A 
ENDROOT
BRANCH   1  15
ATOM     15  C   UNL     1       5.303   5.506  17.044  0.00  0.00    +0.000 C 
ATOM     16  C   UNL     1       6.701   5.269  17.647  0.00  0.00    +0.000 C 
BRANCH  15  23
ATOM     17  C   UNL     1       5.875   3.585  12.786  0.00  0.00    +0.000 A 
ATOM     18  N   UNL     1       6.981   4.252  12.504  0.00  0.00    +0.000 NA
ATOM     19  C   UNL     1       7.370   5.019  13.506  0.00  0.00    +0.000 A 
ATOM     20 CL   UNL     1       8.763   5.969  13.219  0.00  0.00    +0.000 Cl
ATOM     21  N   UNL     1       6.800   5.167  14.694  0.00  0.00    +0.000 NA
ATOM     22  C   UNL     1       5.698   4.455  14.856  0.00  0.00    +0.000 A 
ATOM     23  N   UNL     1       5.004   4.487  16.048  0.00  0.00    +0.000 N 
ATOM     24  N   UNL     1       5.190   3.663  13.923  0.00  0.00    +0.000 NA
ATOM     25  H   UNL     1       4.027   4.278  15.881  0.00  0.00    +0.000 HD
BRANCH  17  27
ATOM     26  C   UNL     1       4.119   3.176  11.297  0.00  0.00    +0.000 C 
ATOM     27  O   UNL     1       5.343   2.717  11.857  0.00  0.00    +0.000 OA
ENDBRANCH  17  27
ENDBRANCH  15  23
ENDBRANCH   1  15
TORSDOF 3
ENDMDL
MODEL 8
REMARK VINA RESULT:      -8.1      4.200      6.573
REMARK  Name = 
REMARK  5 active torsions:
REMARK  status: ('A' for Active; 'I' for Inactive)
REMARK    1  A    between atoms: C_1  and  O_2
REMARK    2  A    between atoms: O_2  and  C_3
REMARK    3  A    between atoms: N_9  and  C_10
REMARK    4  A    between atoms: C_10  and  C_11
REMARK    5  A    between atoms: C_10  and  C_12
REMARK                            x       y       z     vdW  Elec       q    Type
REMARK                         _______ _______ _______ _____ _____    ______ ____
ROOT
ATOM      1  C   UNL     1       3.487   5.234  18.473  0.00  0.00    +0.000 A 
ATOM      2  C   UNL     1       2.893   6.556  18.506  0.00  0.00    +0.000 A 
ATOM      3  C   UNL     1       3.031   7.566  17.512  0.00  0.00    +0.000 A 
ATOM      4  C   UNL     1       2.421   8.824  17.617  0.00  0.00    +0.000 A 
ATOM      5  C   UNL     1       1.648   9.129  18.720  0.00  0.00    +0.000 A 
ATOM      6  C   UNL     1       1.478   8.173  19.713  0.00  0.00    +0.000 A 
ATOM      7  C   UNL     1       2.080   6.905  19.613  0.00  0.00    +0.000 A 
ATOM      8  C   UNL     1       1.852   5.989  20.639  0.00  0.00    +0.000 A 
ATOM      9  C   UNL     1       2.373   4.698  20.604  0.00  0.00    +0.000 A 
ATOM     10  C   UNL     1       2.074   3.826  21.666  0.00  0.00    +0.000 A 
ATOM     11  C   UNL     1       2.540   2.517  21.675  0.00  0.00    +0.000 A 
ATOM     12  C   UNL     1       3.293   2.061  20.608  0.00  0.00    +0.000 A 
ATOM     13  C   UNL     1       3.592   2.923  19.548  0.00  0.00    +0.000 A 
ATOM     14  C   UNL     1       3.176   4.280  19.516  0.00  0.00    +0.000 A 
ENDROOT
BRANCH   1  15
ATOM     15  C   UNL     1       4.453   4.858  17.328  0.00  0.00    +0.000 C 
ATOM     16  C   UNL     1       3.758   4.178  16.133  0.00  0.00    +0.000 C 
BRANCH  15  23
ATOM     17  C   UNL     1       7.851   8.068  17.869  0.00  0.00    +0.000 A 
ATOM     18  N   UNL     1       8.505   7.393  18.798  0.00  0.00    +0.000 NA
ATOM     19  C   UNL     1       7.949   6.221  19.046  0.00  0.00    +0.000 A 
ATOM     20 CL   UNL     1       8.687   5.291  20.277  0.00  0.00    +0.000 Cl
ATOM     21  N   UNL     1       6.874   5.688  18.481  0.00  0.00    +0.000 NA
ATOM     22  C   UNL     1       6.303   6.459  17.572  0.00  0.00    +0.000 A 
ATOM     23  N   UNL     1       5.188   6.033  16.882  0.00  0.00    +0.000 N 
ATOM     24  N   UNL     1       6.748   7.664  17.245  0.00  0.00    +0.000 NA
ATOM     25  H   UNL     1       4.642   6.833  16.585  0.00  0.00    +0.000 HD
BRANCH  17  27
ATOM     26  C   UNL     1       8.943  10.033  18.516  0.00  0.00    +0.000 C 
ATOM     27  O   UNL     1       8.311   9.305  17.470  0.00  0.00    +0.000 OA
ENDBRANCH  17  27
ENDBRANCH  15  23
ENDBRANCH   1  15
TORSDOF 3
ENDMDL
MODEL 9
REMARK VINA RESULT:      -8.0      5.593      8.403
REMARK  Name = 
REMARK  5 active torsions:
REMARK  status: ('A' for Active; 'I' for Inactive)
REMARK    1  A    between atoms: C_1  and  O_2
REMARK    2  A    between atoms: O_2  and  C_3
REMARK    3  A    between atoms: N_9  and  C_10
REMARK    4  A    between atoms: C_10  and  C_11
REMARK    5  A    between atoms: C_10  and  C_12
REMARK                            x       y       z     vdW  Elec       q    Type
REMARK                         _______ _______ _______ _____ _____    ______ ____
ROOT
ATOM      1  C   UNL     1       4.110   5.130  17.525  0.00  0.00    +0.000 A 
ATOM      2  C   UNL     1       3.476   6.402  17.814  0.00  0.00    +0.000 A 
ATOM      3  C   UNL     1       3.822   7.662  17.247  0.00  0.00    +0.000 A 
ATOM      4  C   UNL     1       3.158   8.852  17.577  0.00  0.00    +0.000 A 
ATOM      5  C   UNL     1       2.120   8.836  18.490  0.00  0.00    +0.000 A 
ATOM      6  C   UNL     1       1.742   7.629  19.063  0.00  0.00    +0.000 A 
ATOM      7  C   UNL     1       2.397   6.429  18.733  0.00  0.00    +0.000 A 
ATOM      8  C   UNL     1       1.954   5.252  19.334  0.00  0.00    +0.000 A 
ATOM      9  C   UNL     1       2.516   4.013  19.036  0.00  0.00    +0.000 A 
ATOM     10  C   UNL     1       1.993   2.871  19.667  0.00  0.00    +0.000 A 
ATOM     11  C   UNL     1       2.491   1.604  19.389  0.00  0.00    +0.000 A 
ATOM     12  C   UNL     1       3.506   1.466  18.459  0.00  0.00    +0.000 A 
ATOM     13  C   UNL     1       4.029   2.599  17.827  0.00  0.00    +0.000 A 
ATOM     14  C   UNL     1       3.583   3.917  18.110  0.00  0.00    +0.000 A 
ENDROOT
BRANCH   1  15
ATOM     15  C   UNL     1       5.347   5.084  16.602  0.00  0.00    +0.000 C 
ATOM     16  C   UNL     1       6.674   4.878  17.358  0.00  0.00    +0.000 C 
BRANCH  15  23
ATOM     17  C   UNL     1       6.160   3.329  12.312  0.00  0.00    +0.000 A 
ATOM     18  N   UNL     1       7.172   4.136  12.044  0.00  0.00    +0.000 NA
ATOM     19  C   UNL     1       7.460   4.928  13.061  0.00  0.00    +0.000 A 
ATOM     20 CL   UNL     1       8.721   6.053  12.795  0.00  0.00    +0.000 Cl
ATOM     21  N   UNL     1       6.876   4.981  14.250  0.00  0.00    +0.000 NA
ATOM     22  C   UNL     1       5.873   4.131  14.397  0.00  0.00    +0.000 A 
ATOM     23  N   UNL     1       5.180   4.054  15.587  0.00  0.00    +0.000 N 
ATOM     24  N   UNL     1       5.470   3.298  13.448  0.00  0.00    +0.000 NA
ATOM     25  H   UNL     1       4.238   3.725  15.413  0.00  0.00    +0.000 HD
BRANCH  17  27
ATOM     26  C   UNL     1       6.725   1.433  11.065  0.00  0.00    +0.000 C 
ATOM     27  O   UNL     1       5.743   2.417  11.366  0.00  0.00    +0.000 OA
ENDBRANCH  17  27
ENDBRANCH  15  23
ENDBRANCH   1  15
TORSDOF 3
ENDMDL
