MODEL 1
REMARK VINA RESULT:      -7.5      0.000      0.000
REMARK  Name = 
REMARK  12 active torsions:
REMARK  status: ('A' for Active; 'I' for Inactive)
REMARK    1  A    between atoms: C_1  and  O_2
REMARK    2  A    between atoms: O_2  and  C_3
REMARK    3  A    between atoms: C_6  and  N_7
REMARK    4  A    between atoms: C_8  and  C_10
REMARK    5  A    between atoms: C_12  and  O_13
REMARK    6  A    between atoms: O_13  and  C_14
REMARK    7  A    between atoms: C_15  and  O_16
REMARK    8  A    between atoms: O_16  and  C_17
REMARK    9  A    between atoms: C_19  and  O_20
REMARK   10  A    between atoms: O_20  and  C_21
REMARK   11  A    between atoms: C_22  and  S_23
REMARK   12  A    between atoms: S_23  and  N_26
REMARK                            x       y       z     vdW  Elec       q    Type
REMARK                         _______ _______ _______ _____ _____    ______ ____
ROOT
ATOM      1  C   UNL     1      -0.340  10.129  22.416  0.00  0.00    +0.000 A 
ATOM      2  C   UNL     1       0.687   9.291  22.829  0.00  0.00    +0.000 A 
ATOM      3  C   UNL     1       1.472   8.622  21.898  0.00  0.00    +0.000 A 
ATOM      4  C   UNL     1       1.259   8.761  20.520  0.00  0.00    +0.000 A 
ATOM      5  C   UNL     1       0.238   9.639  20.089  0.00  0.00    +0.000 A 
ATOM      6  C   UNL     1      -0.559  10.313  21.050  0.00  0.00    +0.000 A 
ENDROOT
BRANCH   4   7
ATOM      7  N   UNL     1       2.065   8.016  19.613  0.00  0.00    +0.000 N 
ATOM      8  C   UNL     1       2.268   6.634  19.642  0.00  0.00    +0.000 C 
ATOM      9  O   UNL     1       1.815   5.838  20.456  0.00  0.00    +0.000 OA
ATOM     10  H   UNL     1       2.498   8.553  18.867  0.00  0.00    +0.000 HD
BRANCH   8  11
ATOM     11  C   UNL     1       3.123   6.109  18.552  0.00  0.00    +0.000 A 
ATOM     12  C   UNL     1       4.216   6.929  18.214  0.00  0.00    +0.000 A 
ATOM     13  C   UNL     1       5.096   6.579  17.200  0.00  0.00    +0.000 A 
ATOM     14  C   UNL     1       4.941   5.343  16.552  0.00  0.00    +0.000 A 
ATOM     15  C   UNL     1       3.890   4.498  16.929  0.00  0.00    +0.000 A 
ATOM     16  C   UNL     1       2.964   4.864  17.928  0.00  0.00    +0.000 A 
BRANCH  13  17
ATOM     17  O   UNL     1       6.128   7.381  16.793  0.00  0.00    +0.000 OA
ATOM     18  C   UNL     1       7.331   7.315  17.558  0.00  0.00    +0.000 C 
ENDBRANCH  13  17
BRANCH  14  19
ATOM     19  O   UNL     1       5.830   5.050  15.553  0.00  0.00    +0.000 OA
ATOM     20  C   UNL     1       5.978   3.668  15.241  0.00  0.00    +0.000 C 
ENDBRANCH  14  19
BRANCH  16  21
ATOM     21  O   UNL     1       2.056   3.873  18.154  0.00  0.00    +0.000 OA
ATOM     22  C   UNL     1       2.395   2.533  17.819  0.00  0.00    +0.000 C 
ENDBRANCH  16  21
ENDBRANCH   8  11
ENDBRANCH   4   7
BRANCH   5  23
ATOM     23  S   UNL     1       0.075  10.196  18.390  0.00  0.00    +0.000 S 
ATOM     24  O   UNL     1       1.020   9.409  17.606  0.00  0.00    +0.000 OA
ATOM     25  O   UNL     1      -1.349  10.160  18.086  0.00  0.00    +0.000 OA
BRANCH  23  26
ATOM     26  N   UNL     1       0.565  11.807  18.271  0.00  0.00    +0.000 NA
ATOM     27  C   UNL     1       1.870  12.257  18.804  0.00  0.00    +0.000 C 
ATOM     28  C   UNL     1       1.692  12.751  20.244  0.00  0.00    +0.000 C 
ATOM     29  O   UNL     1       0.689  13.778  20.336  0.00  0.00    +0.000 OA
ATOM     30  C   UNL     1      -0.573  13.377  19.781  0.00  0.00    +0.000 C 
ATOM     31  C   UNL     1      -0.427  12.899  18.338  0.00  0.00    +0.000 C 
ENDBRANCH  23  26
ENDBRANCH   5  23
BRANCH   1  33
ATOM     32  C   UNL     1      -1.809  11.851  23.136  0.00  0.00    +0.000 C 
ATOM     33  O   UNL     1      -1.005  10.727  23.444  0.00  0.00    +0.000 OA
ENDBRANCH   1  33
TORSDOF 8
ENDMDL
MODEL 2
REMARK VINA RESULT:      -7.3      2.462      8.374
REMARK  Name = 
REMARK  12 active torsions:
REMARK  status: ('A' for Active; 'I' for Inactive)
REMARK    1  A    between atoms: C_1  and  O_2
REMARK    2  A    between atoms: O_2  and  C_3
REMARK    3  A    between atoms: C_6  and  N_7
REMARK    4  A    between atoms: C_8  and  C_10
REMARK    5  A    between atoms: C_12  and  O_13
REMARK    6  A    between atoms: O_13  and  C_14
REMARK    7  A    between atoms: C_15  and  O_16
REMARK    8  A    between atoms: O_16  and  C_17
REMARK    9  A    between atoms: C_19  and  O_20
REMARK   10  A    between atoms: O_20  and  C_21
REMARK   11  A    between atoms: C_22  and  S_23
REMARK   12  A    between atoms: S_23  and  N_26
REMARK                            x       y       z     vdW  Elec       q    Type
REMARK                         _______ _______ _______ _____ _____    ______ ____
ROOT
ATOM      1  C   UNL     1       5.757   4.866  16.498  0.00  0.00    +0.000 A 
ATOM      2  C   UNL     1       5.966   6.201  16.816  0.00  0.00    +0.000 A 
ATOM      3  C   UNL     1       4.955   6.955  17.398  0.00  0.00    +0.000 A 
ATOM      4  C   UNL     1       3.696   6.409  17.678  0.00  0.00    +0.000 A 
ATOM      5  C   UNL     1       3.485   5.041  17.388  0.00  0.00    +0.000 A 
ATOM      6  C   UNL     1       4.524   4.282  16.792  0.00  0.00    +0.000 A 
ENDROOT
BRANCH   4   7
ATOM      7  N   UNL     1       2.683   7.241  18.232  0.00  0.00    +0.000 N 
ATOM      8  C   UNL     1       2.418   8.563  17.866  0.00  0.00    +0.000 C 
ATOM      9  O   UNL     1       3.017   9.234  17.034  0.00  0.00    +0.000 OA
ATOM     10  H   UNL     1       2.093   6.806  18.935  0.00  0.00    +0.000 HD
BRANCH   8  11
ATOM     11  C   UNL     1       1.277   9.187  18.576  0.00  0.00    +0.000 A 
ATOM     12  C   UNL     1       0.318   9.787  17.739  0.00  0.00    +0.000 A 
ATOM     13  C   UNL     1      -0.798  10.426  18.258  0.00  0.00    +0.000 A 
ATOM     14  C   UNL     1      -1.018  10.406  19.645  0.00  0.00    +0.000 A 
ATOM     15  C   UNL     1      -0.096   9.756  20.476  0.00  0.00    +0.000 A 
ATOM     16  C   UNL     1       1.063   9.142  19.961  0.00  0.00    +0.000 A 
BRANCH  13  17
ATOM     17  O   UNL     1      -1.715  11.082  17.482  0.00  0.00    +0.000 OA
ATOM     18  C   UNL     1      -2.574  10.272  16.681  0.00  0.00    +0.000 C 
ENDBRANCH  13  17
BRANCH  14  19
ATOM     19  O   UNL     1      -2.129  11.059  20.107  0.00  0.00    +0.000 OA
ATOM     20  C   UNL     1      -1.885  12.258  20.835  0.00  0.00    +0.000 C 
ENDBRANCH  14  19
BRANCH  16  21
ATOM     21  O   UNL     1       1.790   8.541  20.947  0.00  0.00    +0.000 OA
ATOM     22  C   UNL     1       1.547   8.900  22.301  0.00  0.00    +0.000 C 
ENDBRANCH  16  21
ENDBRANCH   8  11
ENDBRANCH   4   7
BRANCH   5  23
ATOM     23  S   UNL     1       2.078   4.113  18.006  0.00  0.00    +0.000 S 
ATOM     24  O   UNL     1       0.898   4.672  17.356  0.00  0.00    +0.000 OA
ATOM     25  O   UNL     1       2.416   2.706  17.842  0.00  0.00    +0.000 OA
BRANCH  23  26
ATOM     26  N   UNL     1       1.898   4.388  19.662  0.00  0.00    +0.000 NA
ATOM     27  C   UNL     1       3.069   4.461  20.562  0.00  0.00    +0.000 C 
ATOM     28  C   UNL     1       3.352   3.073  21.148  0.00  0.00    +0.000 C 
ATOM     29  O   UNL     1       2.198   2.527  21.809  0.00  0.00    +0.000 OA
ATOM     30  C   UNL     1       1.035   2.492  20.965  0.00  0.00    +0.000 C 
ATOM     31  C   UNL     1       0.719   3.868  20.385  0.00  0.00    +0.000 C 
ENDBRANCH  23  26
ENDBRANCH   5  23
BRANCH   1  33
ATOM     32  C   UNL     1       7.247   4.666  14.659  0.00  0.00    +0.000 C 
ATOM     33  O   UNL     1       6.847   4.256  15.953  0.00  0.00    +0.000 OA
ENDBRANCH   1  33
TORSDOF 8
ENDMDL
MODEL 3
REMARK VINA RESULT:      -6.9      1.467      2.228
REMARK  Name = 
REMARK  12 active torsions:
REMARK  status: ('A' for Active; 'I' for Inactive)
REMARK    1  A    between atoms: C_1  and  O_2
REMARK    2  A    between atoms: O_2  and  C_3
REMARK    3  A    between atoms: C_6  and  N_7
REMARK    4  A    between atoms: C_8  and  C_10
REMARK    5  A    between atoms: C_12  and  O_13
REMARK    6  A    between atoms: O_13  and  C_14
REMARK    7  A    between atoms: C_15  and  O_16
REMARK    8  A    between atoms: O_16  and  C_17
REMARK    9  A    between atoms: C_19  and  O_20
REMARK   10  A    between atoms: O_20  and  C_21
REMARK   11  A    between atoms: C_22  and  S_23
REMARK   12  A    between atoms: S_23  and  N_26
REMARK                            x       y       z     vdW  Elec       q    Type
REMARK                         _______ _______ _______ _____ _____    ______ ____
ROOT
ATOM      1  C   UNL     1      -0.375  10.327  22.434  0.00  0.00    +0.000 A 
ATOM      2  C   UNL     1       0.572   9.393  22.833  0.00  0.00    +0.000 A 
ATOM      3  C   UNL     1       1.296   8.673  21.890  0.00  0.00    +0.000 A 
ATOM      4  C   UNL     1       1.098   8.855  20.515  0.00  0.00    +0.000 A 
ATOM      5  C   UNL     1       0.160   9.828  20.100  0.00  0.00    +0.000 A 
ATOM      6  C   UNL     1      -0.574  10.554  21.072  0.00  0.00    +0.000 A 
ENDROOT
BRANCH   4   7
ATOM      7  N   UNL     1       1.835   8.057  19.595  0.00  0.00    +0.000 N 
ATOM      8  C   UNL     1       2.155   6.706  19.754  0.00  0.00    +0.000 C 
ATOM      9  O   UNL     1       1.880   5.989  20.710  0.00  0.00    +0.000 OA
ATOM     10  H   UNL     1       2.121   8.524  18.739  0.00  0.00    +0.000 HD
BRANCH   8  11
ATOM     11  C   UNL     1       2.898   6.106  18.622  0.00  0.00    +0.000 A 
ATOM     12  C   UNL     1       4.024   6.838  18.202  0.00  0.00    +0.000 A 
ATOM     13  C   UNL     1       4.811   6.413  17.142  0.00  0.00    +0.000 A 
ATOM     14  C   UNL     1       4.525   5.184  16.525  0.00  0.00    +0.000 A 
ATOM     15  C   UNL     1       3.441   4.423  16.981  0.00  0.00    +0.000 A 
ATOM     16  C   UNL     1       2.610   4.869  18.029  0.00  0.00    +0.000 A 
BRANCH  13  17
ATOM     17  O   UNL     1       5.870   7.131  16.659  0.00  0.00    +0.000 OA
ATOM     18  C   UNL     1       7.041   7.173  17.473  0.00  0.00    +0.000 C 
ENDBRANCH  13  17
BRANCH  14  19
ATOM     19  O   UNL     1       5.325   4.813  15.478  0.00  0.00    +0.000 OA
ATOM     20  C   UNL     1       6.338   3.858  15.780  0.00  0.00    +0.000 C 
ENDBRANCH  14  19
BRANCH  16  21
ATOM     21  O   UNL     1       1.647   3.950  18.328  0.00  0.00    +0.000 OA
ATOM     22  C   UNL     1       1.969   2.566  18.271  0.00  0.00    +0.000 C 
ENDBRANCH  16  21
ENDBRANCH   8  11
ENDBRANCH   4   7
BRANCH   5  23
ATOM     23  S   UNL     1       0.051  10.427  18.411  0.00  0.00    +0.000 S 
ATOM     24  O   UNL     1       1.014  11.516  18.296  0.00  0.00    +0.000 OA
ATOM     25  O   UNL     1       0.156   9.252  17.556  0.00  0.00    +0.000 OA
BRANCH  23  26
ATOM     26  N   UNL     1      -1.476  11.097  18.143  0.00  0.00    +0.000 NA
ATOM     27  C   UNL     1      -2.694  10.492  18.724  0.00  0.00    +0.000 C 
ATOM     28  C   UNL     1      -3.304   9.505  17.723  0.00  0.00    +0.000 C 
ATOM     29  O   UNL     1      -3.563  10.126  16.451  0.00  0.00    +0.000 OA
ATOM     30  C   UNL     1      -2.402  10.760  15.892  0.00  0.00    +0.000 C 
ATOM     31  C   UNL     1      -1.787  11.765  16.863  0.00  0.00    +0.000 C 
ENDBRANCH  23  26
ENDBRANCH   5  23
BRANCH   1  33
ATOM     32  C   UNL     1      -1.766  12.106  23.171  0.00  0.00    +0.000 C 
ATOM     33  O   UNL     1      -0.985  10.964  23.472  0.00  0.00    +0.000 OA
ENDBRANCH   1  33
TORSDOF 8
ENDMDL
MODEL 4
REMARK VINA RESULT:      -6.9      2.502      8.488
REMARK  Name = 
REMARK  12 active torsions:
REMARK  status: ('A' for Active; 'I' for Inactive)
REMARK    1  A    between atoms: C_1  and  O_2
REMARK    2  A    between atoms: O_2  and  C_3
REMARK    3  A    between atoms: C_6  and  N_7
REMARK    4  A    between atoms: C_8  and  C_10
REMARK    5  A    between atoms: C_12  and  O_13
REMARK    6  A    between atoms: O_13  and  C_14
REMARK    7  A    between atoms: C_15  and  O_16
REMARK    8  A    between atoms: O_16  and  C_17
REMARK    9  A    between atoms: C_19  and  O_20
REMARK   10  A    between atoms: O_20  and  C_21
REMARK   11  A    between atoms: C_22  and  S_23
REMARK   12  A    between atoms: S_23  and  N_26
REMARK                            x       y       z     vdW  Elec       q    Type
REMARK                         _______ _______ _______ _____ _____    ______ ____
ROOT
ATOM      1  C   UNL     1       5.380   4.898  17.043  0.00  0.00    +0.000 A 
ATOM      2  C   UNL     1       5.628   6.245  17.269  0.00  0.00    +0.000 A 
ATOM      3  C   UNL     1       4.626   7.076  17.756  0.00  0.00    +0.000 A 
ATOM      4  C   UNL     1       3.340   6.596  18.031  0.00  0.00    +0.000 A 
ATOM      5  C   UNL     1       3.088   5.217  17.836  0.00  0.00    +0.000 A 
ATOM      6  C   UNL     1       4.117   4.380  17.336  0.00  0.00    +0.000 A 
ENDROOT
BRANCH   4   7
ATOM      7  N   UNL     1       2.340   7.502  18.486  0.00  0.00    +0.000 N 
ATOM      8  C   UNL     1       2.093   8.776  17.968  0.00  0.00    +0.000 C 
ATOM      9  O   UNL     1       2.700   9.336  17.062  0.00  0.00    +0.000 OA
ATOM     10  H   UNL     1       1.745   7.160  19.235  0.00  0.00    +0.000 HD
BRANCH   8  11
ATOM     11  C   UNL     1       0.963   9.495  18.601  0.00  0.00    +0.000 A 
ATOM     12  C   UNL     1      -0.030   9.936  17.707  0.00  0.00    +0.000 A 
ATOM     13  C   UNL     1      -1.141  10.639  18.149  0.00  0.00    +0.000 A 
ATOM     14  C   UNL     1      -1.319  10.846  19.526  0.00  0.00    +0.000 A 
ATOM     15  C   UNL     1      -0.363  10.355  20.423  0.00  0.00    +0.000 A 
ATOM     16  C   UNL     1       0.792   9.677  19.980  0.00  0.00    +0.000 A 
BRANCH  13  17
ATOM     17  O   UNL     1      -2.092  11.146  17.305  0.00  0.00    +0.000 OA
ATOM     18  C   UNL     1      -2.550  10.285  16.264  0.00  0.00    +0.000 C 
ENDBRANCH  13  17
BRANCH  14  19
ATOM     19  O   UNL     1      -2.427  11.554  19.910  0.00  0.00    +0.000 OA
ATOM     20  C   UNL     1      -2.181  12.852  20.440  0.00  0.00    +0.000 C 
ENDBRANCH  14  19
BRANCH  16  21
ATOM     21  O   UNL     1       1.557   9.257  21.028  0.00  0.00    +0.000 OA
ATOM     22  C   UNL     1       0.933   8.591  22.118  0.00  0.00    +0.000 C 
ENDBRANCH  16  21
ENDBRANCH   8  11
ENDBRANCH   4   7
BRANCH   5  23
ATOM     23  S   UNL     1       1.627   4.388  18.470  0.00  0.00    +0.000 S 
ATOM     24  O   UNL     1       1.121   5.217  19.558  0.00  0.00    +0.000 OA
ATOM     25  O   UNL     1       0.793   4.094  17.313  0.00  0.00    +0.000 OA
BRANCH  23  26
ATOM     26  N   UNL     1       2.066   2.906  19.151  0.00  0.00    +0.000 NA
ATOM     27  C   UNL     1       1.192   2.217  20.125  0.00  0.00    +0.000 C 
ATOM     28  C   UNL     1       1.589   2.626  21.548  0.00  0.00    +0.000 C 
ATOM     29  O   UNL     1       2.982   2.378  21.805  0.00  0.00    +0.000 OA
ATOM     30  C   UNL     1       3.847   3.000  20.841  0.00  0.00    +0.000 C 
ATOM     31  C   UNL     1       3.485   2.593  19.415  0.00  0.00    +0.000 C 
ENDBRANCH  23  26
ENDBRANCH   5  23
BRANCH   1  33
ATOM     32  C   UNL     1       7.717   4.498  17.179  0.00  0.00    +0.000 C 
ATOM     33  O   UNL     1       6.464   4.212  16.585  0.00  0.00    +0.000 OA
ENDBRANCH   1  33
TORSDOF 8
ENDMDL
MODEL 5
REMARK VINA RESULT:      -6.9      2.270      8.648
REMARK  Name = 
REMARK  12 active torsions:
REMARK  status: ('A' for Active; 'I' for Inactive)
REMARK    1  A    between atoms: C_1  and  O_2
REMARK    2  A    between atoms: O_2  and  C_3
REMARK    3  A    between atoms: C_6  and  N_7
REMARK    4  A    between atoms: C_8  and  C_10
REMARK    5  A    between atoms: C_12  and  O_13
REMARK    6  A    between atoms: O_13  and  C_14
REMARK    7  A    between atoms: C_15  and  O_16
REMARK    8  A    between atoms: O_16  and  C_17
REMARK    9  A    between atoms: C_19  and  O_20
REMARK   10  A    between atoms: O_20  and  C_21
REMARK   11  A    between atoms: C_22  and  S_23
REMARK   12  A    between atoms: S_23  and  N_26
REMARK                            x       y       z     vdW  Elec       q    Type
REMARK                         _______ _______ _______ _____ _____    ______ ____
ROOT
ATOM      1  C   UNL     1       5.310   4.519  16.487  0.00  0.00    +0.000 A 
ATOM      2  C   UNL     1       5.798   5.789  16.764  0.00  0.00    +0.000 A 
ATOM      3  C   UNL     1       5.028   6.703  17.472  0.00  0.00    +0.000 A 
ATOM      4  C   UNL     1       3.741   6.387  17.925  0.00  0.00    +0.000 A 
ATOM      5  C   UNL     1       3.249   5.084  17.677  0.00  0.00    +0.000 A 
ATOM      6  C   UNL     1       4.044   4.161  16.951  0.00  0.00    +0.000 A 
ENDROOT
BRANCH   4   7
ATOM      7  N   UNL     1       2.979   7.379  18.606  0.00  0.00    +0.000 N 
ATOM      8  C   UNL     1       2.445   8.537  18.035  0.00  0.00    +0.000 C 
ATOM      9  O   UNL     1       2.559   8.907  16.872  0.00  0.00    +0.000 OA
ATOM     10  H   UNL     1       2.793   7.194  19.587  0.00  0.00    +0.000 HD
BRANCH   8  11
ATOM     11  C   UNL     1       1.657   9.380  18.963  0.00  0.00    +0.000 A 
ATOM     12  C   UNL     1       1.127   8.698  20.073  0.00  0.00    +0.000 A 
ATOM     13  C   UNL     1       0.351   9.349  21.021  0.00  0.00    +0.000 A 
ATOM     14  C   UNL     1       0.158  10.736  20.914  0.00  0.00    +0.000 A 
ATOM     15  C   UNL     1       0.736  11.429  19.843  0.00  0.00    +0.000 A 
ATOM     16  C   UNL     1       1.489  10.768  18.851  0.00  0.00    +0.000 A 
BRANCH  13  17
ATOM     17  O   UNL     1      -0.241   8.708  22.075  0.00  0.00    +0.000 OA
ATOM     18  C   UNL     1       0.088   9.181  23.380  0.00  0.00    +0.000 C 
ENDBRANCH  13  17
BRANCH  14  19
ATOM     19  O   UNL     1      -0.622  11.330  21.870  0.00  0.00    +0.000 OA
ATOM     20  C   UNL     1      -0.442  12.733  22.033  0.00  0.00    +0.000 C 
ENDBRANCH  14  19
BRANCH  16  21
ATOM     21  O   UNL     1       1.984  11.645  17.932  0.00  0.00    +0.000 OA
ATOM     22  C   UNL     1       2.486  12.900  18.374  0.00  0.00    +0.000 C 
ENDBRANCH  16  21
ENDBRANCH   8  11
ENDBRANCH   4   7
BRANCH   5  23
ATOM     23  S   UNL     1       1.793   4.415  18.488  0.00  0.00    +0.000 S 
ATOM     24  O   UNL     1       1.518   5.284  19.626  0.00  0.00    +0.000 OA
ATOM     25  O   UNL     1       0.797   4.226  17.442  0.00  0.00    +0.000 OA
BRANCH  23  26
ATOM     26  N   UNL     1       2.145   2.887  19.115  0.00  0.00    +0.000 NA
ATOM     27  C   UNL     1       1.374   2.322  20.244  0.00  0.00    +0.000 C 
ATOM     28  C   UNL     1       2.069   2.672  21.564  0.00  0.00    +0.000 C 
ATOM     29  O   UNL     1       3.440   2.239  21.578  0.00  0.00    +0.000 OA
ATOM     30  C   UNL     1       4.195   2.739  20.462  0.00  0.00    +0.000 C 
ATOM     31  C   UNL     1       3.534   2.385  19.132  0.00  0.00    +0.000 C 
ENDBRANCH  23  26
ENDBRANCH   5  23
BRANCH   1  33
ATOM     32  C   UNL     1       6.332   3.966  14.416  0.00  0.00    +0.000 C 
ATOM     33  O   UNL     1       6.189   3.733  15.805  0.00  0.00    +0.000 OA
ENDBRANCH   1  33
TORSDOF 8
ENDMDL
MODEL 6
REMARK VINA RESULT:      -6.8      2.430      8.542
REMARK  Name = 
REMARK  12 active torsions:
REMARK  status: ('A' for Active; 'I' for Inactive)
REMARK    1  A    between atoms: C_1  and  O_2
REMARK    2  A    between atoms: O_2  and  C_3
REMARK    3  A    between atoms: C_6  and  N_7
REMARK    4  A    between atoms: C_8  and  C_10
REMARK    5  A    between atoms: C_12  and  O_13
REMARK    6  A    between atoms: O_13  and  C_14
REMARK    7  A    between atoms: C_15  and  O_16
REMARK    8  A    between atoms: O_16  and  C_17
REMARK    9  A    between atoms: C_19  and  O_20
REMARK   10  A    between atoms: O_20  and  C_21
REMARK   11  A    between atoms: C_22  and  S_23
REMARK   12  A    between atoms: S_23  and  N_26
REMARK                            x       y       z     vdW  Elec       q    Type
REMARK                         _______ _______ _______ _____ _____    ______ ____
ROOT
ATOM      1  C   UNL     1       5.422   5.820  17.303  0.00  0.00    +0.000 A 
ATOM      2  C   UNL     1       5.191   7.049  16.698  0.00  0.00    +0.000 A 
ATOM      3  C   UNL     1       4.058   7.789  17.012  0.00  0.00    +0.000 A 
ATOM      4  C   UNL     1       3.112   7.331  17.938  0.00  0.00    +0.000 A 
ATOM      5  C   UNL     1       3.357   6.097  18.584  0.00  0.00    +0.000 A 
ATOM      6  C   UNL     1       4.515   5.349  18.252  0.00  0.00    +0.000 A 
ENDROOT
BRANCH   4   7
ATOM      7  N   UNL     1       1.948   8.110  18.187  0.00  0.00    +0.000 N 
ATOM      8  C   UNL     1       1.848   9.499  18.061  0.00  0.00    +0.000 C 
ATOM      9  O   UNL     1       2.739  10.277  17.740  0.00  0.00    +0.000 OA
ATOM     10  H   UNL     1       1.117   7.588  18.452  0.00  0.00    +0.000 HD
BRANCH   8  11
ATOM     11  C   UNL     1       0.504  10.053  18.344  0.00  0.00    +0.000 A 
ATOM     12  C   UNL     1      -0.501   9.651  17.444  0.00  0.00    +0.000 A 
ATOM     13  C   UNL     1      -1.807  10.102  17.569  0.00  0.00    +0.000 A 
ATOM     14  C   UNL     1      -2.152  10.912  18.663  0.00  0.00    +0.000 A 
ATOM     15  C   UNL     1      -1.167  11.262  19.595  0.00  0.00    +0.000 A 
ATOM     16  C   UNL     1       0.172  10.845  19.452  0.00  0.00    +0.000 A 
BRANCH  13  17
ATOM     17  O   UNL     1      -2.796   9.793  16.675  0.00  0.00    +0.000 OA
ATOM     18  C   UNL     1      -2.751  10.459  15.413  0.00  0.00    +0.000 C 
ENDBRANCH  13  17
BRANCH  14  19
ATOM     19  O   UNL     1      -3.452  11.337  18.736  0.00  0.00    +0.000 OA
ATOM     20  C   UNL     1      -3.746  12.252  19.787  0.00  0.00    +0.000 C 
ENDBRANCH  14  19
BRANCH  16  21
ATOM     21  O   UNL     1       0.942  11.271  20.494  0.00  0.00    +0.000 OA
ATOM     22  C   UNL     1       1.251  12.655  20.605  0.00  0.00    +0.000 C 
ENDBRANCH  16  21
ENDBRANCH   8  11
ENDBRANCH   4   7
BRANCH   5  23
ATOM     23  S   UNL     1       2.445   5.549  20.031  0.00  0.00    +0.000 S 
ATOM     24  O   UNL     1       3.412   4.896  20.905  0.00  0.00    +0.000 OA
ATOM     25  O   UNL     1       1.690   6.705  20.496  0.00  0.00    +0.000 OA
BRANCH  23  26
ATOM     26  N   UNL     1       1.320   4.373  19.582  0.00  0.00    +0.000 NA
ATOM     27  C   UNL     1       0.871   3.334  20.534  0.00  0.00    +0.000 C 
ATOM     28  C   UNL     1       1.753   2.089  20.388  0.00  0.00    +0.000 C 
ATOM     29  O   UNL     1       1.774   1.606  19.034  0.00  0.00    +0.000 OA
ATOM     30  C   UNL     1       2.163   2.614  18.087  0.00  0.00    +0.000 C 
ATOM     31  C   UNL     1       1.285   3.858  18.198  0.00  0.00    +0.000 C 
ENDBRANCH  23  26
ENDBRANCH   5  23
BRANCH   1  33
ATOM     32  C   UNL     1       7.424   4.698  17.915  0.00  0.00    +0.000 C 
ATOM     33  O   UNL     1       6.582   5.226  16.906  0.00  0.00    +0.000 OA
ENDBRANCH   1  33
TORSDOF 8
ENDMDL
MODEL 7
REMARK VINA RESULT:      -6.8      2.308      4.996
REMARK  Name = 
REMARK  12 active torsions:
REMARK  status: ('A' for Active; 'I' for Inactive)
REMARK    1  A    between atoms: C_1  and  O_2
REMARK    2  A    between atoms: O_2  and  C_3
REMARK    3  A    between atoms: C_6  and  N_7
REMARK    4  A    between atoms: C_8  and  C_10
REMARK    5  A    between atoms: C_12  and  O_13
REMARK    6  A    between atoms: O_13  and  C_14
REMARK    7  A    between atoms: C_15  and  O_16
REMARK    8  A    between atoms: O_16  and  C_17
REMARK    9  A    between atoms: C_19  and  O_20
REMARK   10  A    between atoms: O_20  and  C_21
REMARK   11  A    between atoms: C_22  and  S_23
REMARK   12  A    between atoms: S_23  and  N_26
REMARK                            x       y       z     vdW  Elec       q    Type
REMARK                         _______ _______ _______ _____ _____    ______ ____
ROOT
ATOM      1  C   UNL     1       1.011  15.064  18.849  0.00  0.00    +0.000 A 
ATOM      2  C   UNL     1       2.138  14.354  18.458  0.00  0.00    +0.000 A 
ATOM      3  C   UNL     1       2.216  12.982  18.668  0.00  0.00    +0.000 A 
ATOM      4  C   UNL     1       1.177  12.270  19.279  0.00  0.00    +0.000 A 
ATOM      5  C   UNL     1       0.011  12.980  19.649  0.00  0.00    +0.000 A 
ATOM      6  C   UNL     1      -0.056  14.380  19.433  0.00  0.00    +0.000 A 
ENDROOT
BRANCH   4   7
ATOM      7  N   UNL     1       1.331  10.874  19.510  0.00  0.00    +0.000 N 
ATOM      8  C   UNL     1       1.672   9.917  18.550  0.00  0.00    +0.000 C 
ATOM      9  O   UNL     1       1.872  10.107  17.356  0.00  0.00    +0.000 OA
ATOM     10  H   UNL     1       1.206  10.571  20.471  0.00  0.00    +0.000 HD
BRANCH   8  11
ATOM     11  C   UNL     1       1.806   8.536  19.070  0.00  0.00    +0.000 A 
ATOM     12  C   UNL     1       2.521   7.659  18.234  0.00  0.00    +0.000 A 
ATOM     13  C   UNL     1       2.714   6.328  18.577  0.00  0.00    +0.000 A 
ATOM     14  C   UNL     1       2.256   5.867  19.822  0.00  0.00    +0.000 A 
ATOM     15  C   UNL     1       1.597   6.755  20.682  0.00  0.00    +0.000 A 
ATOM     16  C   UNL     1       1.358   8.097  20.323  0.00  0.00    +0.000 A 
BRANCH  13  17
ATOM     17  O   UNL     1       3.341   5.427  17.761  0.00  0.00    +0.000 OA
ATOM     18  C   UNL     1       4.597   5.824  17.212  0.00  0.00    +0.000 C 
ENDBRANCH  13  17
BRANCH  14  19
ATOM     19  O   UNL     1       2.464   4.545  20.110  0.00  0.00    +0.000 OA
ATOM     20  C   UNL     1       1.291   3.765  20.320  0.00  0.00    +0.000 C 
ENDBRANCH  14  19
BRANCH  16  21
ATOM     21  O   UNL     1       0.739   8.780  21.328  0.00  0.00    +0.000 OA
ATOM     22  C   UNL     1       1.479   9.113  22.497  0.00  0.00    +0.000 C 
ENDBRANCH  16  21
ENDBRANCH   8  11
ENDBRANCH   4   7
BRANCH   5  23
ATOM     23  S   UNL     1      -1.526  12.172  20.105  0.00  0.00    +0.000 S 
ATOM     24  O   UNL     1      -2.262  11.955  18.864  0.00  0.00    +0.000 OA
ATOM     25  O   UNL     1      -1.158  11.047  20.953  0.00  0.00    +0.000 OA
BRANCH  23  26
ATOM     26  N   UNL     1      -2.459  13.217  21.048  0.00  0.00    +0.000 NA
ATOM     27  C   UNL     1      -2.282  13.296  22.514  0.00  0.00    +0.000 C 
ATOM     28  C   UNL     1      -3.250  12.326  23.201  0.00  0.00    +0.000 C 
ATOM     29  O   UNL     1      -4.613  12.566  22.809  0.00  0.00    +0.000 OA
ATOM     30  C   UNL     1      -4.797  12.540  21.384  0.00  0.00    +0.000 C 
ATOM     31  C   UNL     1      -3.858  13.514  20.677  0.00  0.00    +0.000 C 
ENDBRANCH  23  26
ENDBRANCH   5  23
BRANCH   1  33
ATOM     32  C   UNL     1       0.584  17.300  19.529  0.00  0.00    +0.000 C 
ATOM     33  O   UNL     1       1.075  16.394  18.558  0.00  0.00    +0.000 OA
ENDBRANCH   1  33
TORSDOF 8
ENDMDL
MODEL 8
REMARK VINA RESULT:      -6.8      3.685      9.756
REMARK  Name = 
REMARK  12 active torsions:
REMARK  status: ('A' for Active; 'I' for Inactive)
REMARK    1  A    between atoms: C_1  and  O_2
REMARK    2  A    between atoms: O_2  and  C_3
REMARK    3  A    between atoms: C_6  and  N_7
REMARK    4  A    between atoms: C_8  and  C_10
REMARK    5  A    between atoms: C_12  and  O_13
REMARK    6  A    between atoms: O_13  and  C_14
REMARK    7  A    between atoms: C_15  and  O_16
REMARK    8  A    between atoms: O_16  and  C_17
REMARK    9  A    between atoms: C_19  and  O_20
REMARK   10  A    between atoms: O_20  and  C_21
REMARK   11  A    between atoms: C_22  and  S_23
REMARK   12  A    between atoms: S_23  and  N_26
REMARK                            x       y       z     vdW  Elec       q    Type
REMARK                         _______ _______ _______ _____ _____    ______ ____
ROOT
ATOM      1  C   UNL     1       1.069   9.082  19.882  0.00  0.00    +0.000 A 
ATOM      2  C   UNL     1       1.052   9.118  21.270  0.00  0.00    +0.000 A 
ATOM      3  C   UNL     1       0.246  10.029  21.943  0.00  0.00    +0.000 A 
ATOM      4  C   UNL     1      -0.568  10.939  21.258  0.00  0.00    +0.000 A 
ATOM      5  C   UNL     1      -0.582  10.887  19.844  0.00  0.00    +0.000 A 
ATOM      6  C   UNL     1       0.247   9.955  19.169  0.00  0.00    +0.000 A 
ENDROOT
BRANCH   4   7
ATOM      7  N   UNL     1      -1.338  11.880  21.998  0.00  0.00    +0.000 N 
ATOM      8  C   UNL     1      -0.869  13.084  22.533  0.00  0.00    +0.000 C 
ATOM      9  O   UNL     1       0.275  13.520  22.477  0.00  0.00    +0.000 OA
ATOM     10  H   UNL     1      -2.321  11.650  22.113  0.00  0.00    +0.000 HD
BRANCH   8  11
ATOM     11  C   UNL     1      -1.895  13.896  23.226  0.00  0.00    +0.000 A 
ATOM     12  C   UNL     1      -1.430  15.121  23.739  0.00  0.00    +0.000 A 
ATOM     13  C   UNL     1      -2.269  15.983  24.429  0.00  0.00    +0.000 A 
ATOM     14  C   UNL     1      -3.631  15.663  24.551  0.00  0.00    +0.000 A 
ATOM     15  C   UNL     1      -4.110  14.474  23.988  0.00  0.00    +0.000 A 
ATOM     16  C   UNL     1      -3.256  13.571  23.322  0.00  0.00    +0.000 A 
BRANCH  13  17
ATOM     17  O   UNL     1      -1.840  17.148  25.004  0.00  0.00    +0.000 OA
ATOM     18  C   UNL     1      -1.569  18.236  24.122  0.00  0.00    +0.000 C 
ENDBRANCH  13  17
BRANCH  14  19
ATOM     19  O   UNL     1      -4.416  16.542  25.249  0.00  0.00    +0.000 OA
ATOM     20  C   UNL     1      -5.460  17.165  24.507  0.00  0.00    +0.000 C 
ENDBRANCH  14  19
BRANCH  16  21
ATOM     21  O   UNL     1      -3.945  12.505  22.825  0.00  0.00    +0.000 OA
ATOM     22  C   UNL     1      -5.169  12.733  22.137  0.00  0.00    +0.000 C 
ENDBRANCH  16  21
ENDBRANCH   8  11
ENDBRANCH   4   7
BRANCH   5  23
ATOM     23  S   UNL     1      -1.816  11.724  18.844  0.00  0.00    +0.000 S 
ATOM     24  O   UNL     1      -2.714  12.398  19.774  0.00  0.00    +0.000 OA
ATOM     25  O   UNL     1      -1.079  12.485  17.844  0.00  0.00    +0.000 OA
BRANCH  23  26
ATOM     26  N   UNL     1      -2.742  10.583  18.012  0.00  0.00    +0.000 NA
ATOM     27  C   UNL     1      -2.250   9.951  16.768  0.00  0.00    +0.000 C 
ATOM     28  C   UNL     1      -2.735  10.756  15.558  0.00  0.00    +0.000 C 
ATOM     29  O   UNL     1      -4.166  10.908  15.556  0.00  0.00    +0.000 OA
ATOM     30  C   UNL     1      -4.668  11.477  16.776  0.00  0.00    +0.000 C 
ATOM     31  C   UNL     1      -4.216  10.681  17.997  0.00  0.00    +0.000 C 
ENDBRANCH  23  26
ENDBRANCH   5  23
BRANCH   1  33
ATOM     32  C   UNL     1       2.395   8.324  18.063  0.00  0.00    +0.000 C 
ATOM     33  O   UNL     1       1.892   8.124  19.371  0.00  0.00    +0.000 OA
ENDBRANCH   1  33
TORSDOF 8
ENDMDL
MODEL 9
REMARK VINA RESULT:      -6.8      2.172      4.815
REMARK  Name = 
REMARK  12 active torsions:
REMARK  status: ('A' for Active; 'I' for Inactive)
REMARK    1  A    between atoms: C_1  and  O_2
REMARK    2  A    between atoms: O_2  and  C_3
REMARK    3  A    between atoms: C_6  and  N_7
REMARK    4  A    between atoms: C_8  and  C_10
REMARK    5  A    between atoms: C_12  and  O_13
REMARK    6  A    between atoms: O_13  and  C_14
REMARK    7  A    between atoms: C_15  and  O_16
REMARK    8  A    between atoms: O_16  and  C_17
REMARK    9  A    between atoms: C_19  and  O_20
REMARK   10  A    between atoms: O_20  and  C_21
REMARK   11  A    between atoms: C_22  and  S_23
REMARK   12  A    between atoms: S_23  and  N_26
REMARK                            x       y       z     vdW  Elec       q    Type
REMARK                         _______ _______ _______ _____ _____    ______ ____
ROOT
ATOM      1  C   UNL     1       1.258  14.668  18.591  0.00  0.00    +0.000 A 
ATOM      2  C   UNL     1       2.414  13.939  18.344  0.00  0.00    +0.000 A 
ATOM      3  C   UNL     1       2.451  12.571  18.584  0.00  0.00    +0.000 A 
ATOM      4  C   UNL     1       1.339  11.880  19.082  0.00  0.00    +0.000 A 
ATOM      5  C   UNL     1       0.147  12.609  19.304  0.00  0.00    +0.000 A 
ATOM      6  C   UNL     1       0.123  14.005  19.059  0.00  0.00    +0.000 A 
ENDROOT
BRANCH   4   7
ATOM      7  N   UNL     1       1.449  10.487  19.352  0.00  0.00    +0.000 N 
ATOM      8  C   UNL     1       1.844   9.504  18.440  0.00  0.00    +0.000 C 
ATOM      9  O   UNL     1       2.138   9.666  17.261  0.00  0.00    +0.000 OA
ATOM     10  H   UNL     1       1.245  10.206  20.307  0.00  0.00    +0.000 HD
BRANCH   8  11
ATOM     11  C   UNL     1       1.911   8.133  18.996  0.00  0.00    +0.000 A 
ATOM     12  C   UNL     1       2.423   7.164  18.113  0.00  0.00    +0.000 A 
ATOM     13  C   UNL     1       2.531   5.831  18.485  0.00  0.00    +0.000 A 
ATOM     14  C   UNL     1       2.197   5.455  19.796  0.00  0.00    +0.000 A 
ATOM     15  C   UNL     1       1.745   6.429  20.695  0.00  0.00    +0.000 A 
ATOM     16  C   UNL     1       1.591   7.777  20.314  0.00  0.00    +0.000 A 
BRANCH  13  17
ATOM     17  O   UNL     1       2.956   4.848  17.634  0.00  0.00    +0.000 OA
ATOM     18  C   UNL     1       4.356   4.799  17.359  0.00  0.00    +0.000 C 
ENDBRANCH  13  17
BRANCH  14  19
ATOM     19  O   UNL     1       2.313   4.127  20.110  0.00  0.00    +0.000 OA
ATOM     20  C   UNL     1       2.198   3.804  21.492  0.00  0.00    +0.000 C 
ENDBRANCH  14  19
BRANCH  16  21
ATOM     21  O   UNL     1       1.177   8.548  21.360  0.00  0.00    +0.000 OA
ATOM     22  C   UNL     1      -0.161   8.424  21.825  0.00  0.00    +0.000 C 
ENDBRANCH  16  21
ENDBRANCH   8  11
ENDBRANCH   4   7
BRANCH   5  23
ATOM     23  S   UNL     1      -1.442  11.825  19.593  0.00  0.00    +0.000 S 
ATOM     24  O   UNL     1      -2.427  12.603  18.850  0.00  0.00    +0.000 OA
ATOM     25  O   UNL     1      -1.253  10.408  19.311  0.00  0.00    +0.000 OA
BRANCH  23  26
ATOM     26  N   UNL     1      -1.851  11.953  21.226  0.00  0.00    +0.000 NA
ATOM     27  C   UNL     1      -3.077  12.656  21.660  0.00  0.00    +0.000 C 
ATOM     28  C   UNL     1      -2.749  14.124  21.956  0.00  0.00    +0.000 C 
ATOM     29  O   UNL     1      -1.686  14.250  22.918  0.00  0.00    +0.000 OA
ATOM     30  C   UNL     1      -0.501  13.533  22.537  0.00  0.00    +0.000 C 
ATOM     31  C   UNL     1      -0.798  12.062  22.256  0.00  0.00    +0.000 C 
ENDBRANCH  23  26
ENDBRANCH   5  23
BRANCH   1  33
ATOM     32  C   UNL     1       2.678  16.517  18.135  0.00  0.00    +0.000 C 
ATOM     33  O   UNL     1       1.372  15.992  18.288  0.00  0.00    +0.000 OA
ENDBRANCH   1  33
TORSDOF 8
ENDMDL
