MODEL 1
REMARK VINA RESULT:      -8.1      0.000      0.000
REMARK  Name = 
REMARK  7 active torsions:
REMARK  status: ('A' for Active; 'I' for Inactive)
REMARK    1  A    between atoms: C_2  and  C_3
REMARK    2  A    between atoms: C_2  and  C_4
REMARK    3  A    between atoms: C_7  and  C_8
REMARK    4  A    between atoms: C_8  and  C_9
REMARK    5  A    between atoms: C_9  and  C_10
REMARK    6  A    between atoms: C_17  and  O_18
REMARK    7  A    between atoms: C_19  and  O_20
REMARK                            x       y       z     vdW  Elec       q    Type
REMARK                         _______ _______ _______ _____ _____    ______ ____
ROOT
ATOM      1  C   UNL     1       6.576   5.180  14.328  0.00  0.00    +0.000 C 
ATOM      2  C   UNL     1       5.403   5.951  14.972  0.00  0.00    +0.000 C 
ATOM      3  C   UNL     1       5.721   5.807  16.417  0.00  0.00    +0.000 A 
ATOM      4  C   UNL     1       5.027   6.285  17.537  0.00  0.00    +0.000 A 
ATOM      5  C   UNL     1       5.565   5.969  18.802  0.00  0.00    +0.000 A 
ATOM      6  C   UNL     1       6.760   5.248  18.914  0.00  0.00    +0.000 A 
ATOM      7  C   UNL     1       7.438   4.802  17.784  0.00  0.00    +0.000 A 
ATOM      8  C   UNL     1       6.901   5.082  16.547  0.00  0.00    +0.000 A 
ATOM      9  O   UNL     1       7.452   4.677  15.363  0.00  0.00    +0.000 OA
ENDROOT
BRANCH   1  11
ATOM     10  C   UNL     1       5.069   3.287  13.681  0.00  0.00    +0.000 C 
ATOM     11  C   UNL     1       6.171   4.018  13.434  0.00  0.00    +0.000 C 
ATOM     12  C   UNL     1       7.024   3.744  12.224  0.00  0.00    +0.000 C 
ENDBRANCH   1  11
BRANCH   6  13
ATOM     13  O   UNL     1       7.302   4.948  20.137  0.00  0.00    +0.000 OA
ATOM     14  H   UNL     1       6.785   4.228  20.533  0.00  0.00    +0.000 HD
ENDBRANCH   6  13
BRANCH   7  15
ATOM     15  O   UNL     1       8.597   4.099  17.918  0.00  0.00    +0.000 OA
ATOM     16  H   UNL     1       8.712   3.991  18.881  0.00  0.00    +0.000 HD
ENDBRANCH   7  15
BRANCH   4  17
ATOM     17  C   UNL     1       3.721   7.044  17.384  0.00  0.00    +0.000 C 
BRANCH  17  18
ATOM     18  C   UNL     1       2.819   7.036  18.629  0.00  0.00    +0.000 C 
BRANCH  18  19
ATOM     19  C   UNL     1       2.229   5.683  18.947  0.00  0.00    +0.000 A 
ATOM     20  C   UNL     1       1.910   5.338  20.268  0.00  0.00    +0.000 A 
ATOM     21  C   UNL     1       1.296   4.116  20.554  0.00  0.00    +0.000 A 
ATOM     22  C   UNL     1       1.004   3.225  19.524  0.00  0.00    +0.000 A 
ATOM     23  C   UNL     1       1.338   3.547  18.210  0.00  0.00    +0.000 A 
ATOM     24  C   UNL     1       1.951   4.768  17.922  0.00  0.00    +0.000 A 
ENDBRANCH  18  19
ENDBRANCH  17  18
ENDBRANCH   4  17
TORSDOF 6
ENDMDL
MODEL 2
REMARK VINA RESULT:      -8.0      0.068      1.031
REMARK  Name = 
REMARK  7 active torsions:
REMARK  status: ('A' for Active; 'I' for Inactive)
REMARK    1  A    between atoms: C_2  and  C_3
REMARK    2  A    between atoms: C_2  and  C_4
REMARK    3  A    between atoms: C_7  and  C_8
REMARK    4  A    between atoms: C_8  and  C_9
REMARK    5  A    between atoms: C_9  and  C_10
REMARK    6  A    between atoms: C_17  and  O_18
REMARK    7  A    between atoms: C_19  and  O_20
REMARK                            x       y       z     vdW  Elec       q    Type
REMARK                         _______ _______ _______ _____ _____    ______ ____
ROOT
ATOM      1  C   UNL     1       6.538   5.180  14.322  0.00  0.00    +0.000 C 
ATOM      2  C   UNL     1       5.370   5.945  14.984  0.00  0.00    +0.000 C 
ATOM      3  C   UNL     1       5.703   5.789  16.424  0.00  0.00    +0.000 A 
ATOM      4  C   UNL     1       5.020   6.257  17.554  0.00  0.00    +0.000 A 
ATOM      5  C   UNL     1       5.571   5.932  18.811  0.00  0.00    +0.000 A 
ATOM      6  C   UNL     1       6.768   5.211  18.906  0.00  0.00    +0.000 A 
ATOM      7  C   UNL     1       7.435   4.776  17.766  0.00  0.00    +0.000 A 
ATOM      8  C   UNL     1       6.885   5.065  16.536  0.00  0.00    +0.000 A 
ATOM      9  O   UNL     1       7.426   4.670  15.344  0.00  0.00    +0.000 OA
ENDROOT
BRANCH   1  11
ATOM     10  C   UNL     1       4.969   3.364  13.606  0.00  0.00    +0.000 C 
ATOM     11  C   UNL     1       6.126   4.025  13.422  0.00  0.00    +0.000 C 
ATOM     12  C   UNL     1       7.040   3.677  12.277  0.00  0.00    +0.000 C 
ENDBRANCH   1  11
BRANCH   6  13
ATOM     13  O   UNL     1       7.323   4.903  20.120  0.00  0.00    +0.000 OA
ATOM     14  H   UNL     1       6.753   4.252  20.561  0.00  0.00    +0.000 HD
ENDBRANCH   6  13
BRANCH   7  15
ATOM     15  O   UNL     1       8.597   4.073  17.882  0.00  0.00    +0.000 OA
ATOM     16  H   UNL     1       8.993   4.100  16.991  0.00  0.00    +0.000 HD
ENDBRANCH   7  15
BRANCH   4  17
ATOM     17  C   UNL     1       3.711   7.015  17.421  0.00  0.00    +0.000 C 
BRANCH  17  18
ATOM     18  C   UNL     1       2.825   7.002  18.678  0.00  0.00    +0.000 C 
BRANCH  18  19
ATOM     19  C   UNL     1       2.161   5.672  18.942  0.00  0.00    +0.000 A 
ATOM     20  C   UNL     1       1.894   4.787  17.889  0.00  0.00    +0.000 A 
ATOM     21  C   UNL     1       1.347   3.527  18.141  0.00  0.00    +0.000 A 
ATOM     22  C   UNL     1       1.054   3.144  19.448  0.00  0.00    +0.000 A 
ATOM     23  C   UNL     1       1.293   4.024  20.501  0.00  0.00    +0.000 A 
ATOM     24  C   UNL     1       1.841   5.284  20.251  0.00  0.00    +0.000 A 
ENDBRANCH  18  19
ENDBRANCH  17  18
ENDBRANCH   4  17
TORSDOF 6
ENDMDL
MODEL 3
REMARK VINA RESULT:      -7.9      1.371      2.110
REMARK  Name = 
REMARK  7 active torsions:
REMARK  status: ('A' for Active; 'I' for Inactive)
REMARK    1  A    between atoms: C_2  and  C_3
REMARK    2  A    between atoms: C_2  and  C_4
REMARK    3  A    between atoms: C_7  and  C_8
REMARK    4  A    between atoms: C_8  and  C_9
REMARK    5  A    between atoms: C_9  and  C_10
REMARK    6  A    between atoms: C_17  and  O_18
REMARK    7  A    between atoms: C_19  and  O_20
REMARK                            x       y       z     vdW  Elec       q    Type
REMARK                         _______ _______ _______ _____ _____    ______ ____
ROOT
ATOM      1  C   UNL     1       5.881   5.233  14.410  0.00  0.00    +0.000 C 
ATOM      2  C   UNL     1       4.872   4.332  15.157  0.00  0.00    +0.000 C 
ATOM      3  C   UNL     1       5.330   4.490  16.562  0.00  0.00    +0.000 A 
ATOM      4  C   UNL     1       4.825   3.914  17.736  0.00  0.00    +0.000 A 
ATOM      5  C   UNL     1       5.487   4.236  18.939  0.00  0.00    +0.000 A 
ATOM      6  C   UNL     1       6.571   5.124  18.947  0.00  0.00    +0.000 A 
ATOM      7  C   UNL     1       7.038   5.695  17.768  0.00  0.00    +0.000 A 
ATOM      8  C   UNL     1       6.414   5.361  16.587  0.00  0.00    +0.000 A 
ATOM      9  O   UNL     1       6.794   5.830  15.360  0.00  0.00    +0.000 OA
ENDROOT
BRANCH   1  11
ATOM     10  C   UNL     1       6.239   3.440  12.700  0.00  0.00    +0.000 C 
ATOM     11  C   UNL     1       6.695   4.536  13.332  0.00  0.00    +0.000 C 
ATOM     12  C   UNL     1       8.018   5.148  12.956  0.00  0.00    +0.000 C 
ENDBRANCH   1  11
BRANCH   6  13
ATOM     13  O   UNL     1       7.213   5.458  20.110  0.00  0.00    +0.000 OA
ATOM     14  H   UNL     1       7.162   4.701  20.717  0.00  0.00    +0.000 HD
ENDBRANCH   6  13
BRANCH   7  15
ATOM     15  O   UNL     1       8.096   6.554  17.800  0.00  0.00    +0.000 OA
ATOM     16  H   UNL     1       7.724   7.394  18.128  0.00  0.00    +0.000 HD
ENDBRANCH   7  15
BRANCH   4  17
ATOM     17  C   UNL     1       3.665   2.936  17.693  0.00  0.00    +0.000 C 
BRANCH  17  18
ATOM     18  C   UNL     1       2.272   3.586  17.637  0.00  0.00    +0.000 C 
BRANCH  18  19
ATOM     19  C   UNL     1       2.136   4.814  18.505  0.00  0.00    +0.000 A 
ATOM     20  C   UNL     1       1.824   4.692  19.866  0.00  0.00    +0.000 A 
ATOM     21  C   UNL     1       1.771   5.821  20.687  0.00  0.00    +0.000 A 
ATOM     22  C   UNL     1       2.019   7.083  20.152  0.00  0.00    +0.000 A 
ATOM     23  C   UNL     1       2.307   7.219  18.795  0.00  0.00    +0.000 A 
ATOM     24  C   UNL     1       2.362   6.091  17.974  0.00  0.00    +0.000 A 
ENDBRANCH  18  19
ENDBRANCH  17  18
ENDBRANCH   4  17
TORSDOF 6
ENDMDL
MODEL 4
REMARK VINA RESULT:      -7.7      1.350      2.256
REMARK  Name = 
REMARK  7 active torsions:
REMARK  status: ('A' for Active; 'I' for Inactive)
REMARK    1  A    between atoms: C_2  and  C_3
REMARK    2  A    between atoms: C_2  and  C_4
REMARK    3  A    between atoms: C_7  and  C_8
REMARK    4  A    between atoms: C_8  and  C_9
REMARK    5  A    between atoms: C_9  and  C_10
REMARK    6  A    between atoms: C_17  and  O_18
REMARK    7  A    between atoms: C_19  and  O_20
REMARK                            x       y       z     vdW  Elec       q    Type
REMARK                         _______ _______ _______ _____ _____    ______ ____
ROOT
ATOM      1  C   UNL     1       5.892   5.247  14.408  0.00  0.00    +0.000 C 
ATOM      2  C   UNL     1       4.855   4.382  15.158  0.00  0.00    +0.000 C 
ATOM      3  C   UNL     1       5.321   4.525  16.562  0.00  0.00    +0.000 A 
ATOM      4  C   UNL     1       4.799   3.968  17.737  0.00  0.00    +0.000 A 
ATOM      5  C   UNL     1       5.476   4.268  18.938  0.00  0.00    +0.000 A 
ATOM      6  C   UNL     1       6.589   5.119  18.943  0.00  0.00    +0.000 A 
ATOM      7  C   UNL     1       7.073   5.673  17.762  0.00  0.00    +0.000 A 
ATOM      8  C   UNL     1       6.434   5.359  16.583  0.00  0.00    +0.000 A 
ATOM      9  O   UNL     1       6.827   5.813  15.354  0.00  0.00    +0.000 OA
ENDROOT
BRANCH   1  11
ATOM     10  C   UNL     1       6.222   3.391  12.760  0.00  0.00    +0.000 C 
ATOM     11  C   UNL     1       6.679   4.521  13.328  0.00  0.00    +0.000 C 
ATOM     12  C   UNL     1       7.974   5.144  12.876  0.00  0.00    +0.000 C 
ENDBRANCH   1  11
BRANCH   6  13
ATOM     13  O   UNL     1       7.246   5.432  20.104  0.00  0.00    +0.000 OA
ATOM     14  H   UNL     1       8.174   5.163  20.012  0.00  0.00    +0.000 HD
ENDBRANCH   6  13
BRANCH   7  15
ATOM     15  O   UNL     1       8.160   6.494  17.790  0.00  0.00    +0.000 OA
ATOM     16  H   UNL     1       8.819   6.052  17.223  0.00  0.00    +0.000 HD
ENDBRANCH   7  15
BRANCH   4  17
ATOM     17  C   UNL     1       3.606   3.031  17.698  0.00  0.00    +0.000 C 
BRANCH  17  18
ATOM     18  C   UNL     1       2.236   3.728  17.687  0.00  0.00    +0.000 C 
BRANCH  18  19
ATOM     19  C   UNL     1       2.168   4.955  18.564  0.00  0.00    +0.000 A 
ATOM     20  C   UNL     1       2.387   6.229  18.024  0.00  0.00    +0.000 A 
ATOM     21  C   UNL     1       2.252   7.370  18.819  0.00  0.00    +0.000 A 
ATOM     22  C   UNL     1       1.905   7.246  20.163  0.00  0.00    +0.000 A 
ATOM     23  C   UNL     1       1.708   5.983  20.716  0.00  0.00    +0.000 A 
ATOM     24  C   UNL     1       1.842   4.842  19.923  0.00  0.00    +0.000 A 
ENDBRANCH  18  19
ENDBRANCH  17  18
ENDBRANCH   4  17
TORSDOF 6
ENDMDL
MODEL 5
REMARK VINA RESULT:      -7.7      2.898      6.420
REMARK  Name = 
REMARK  7 active torsions:
REMARK  status: ('A' for Active; 'I' for Inactive)
REMARK    1  A    between atoms: C_2  and  C_3
REMARK    2  A    between atoms: C_2  and  C_4
REMARK    3  A    between atoms: C_7  and  C_8
REMARK    4  A    between atoms: C_8  and  C_9
REMARK    5  A    between atoms: C_9  and  C_10
REMARK    6  A    between atoms: C_17  and  O_18
REMARK    7  A    between atoms: C_19  and  O_20
REMARK                            x       y       z     vdW  Elec       q    Type
REMARK                         _______ _______ _______ _____ _____    ______ ____
ROOT
ATOM      1  C   UNL     1       2.813   3.990  20.472  0.00  0.00    +0.000 C 
ATOM      2  C   UNL     1       3.566   3.882  19.127  0.00  0.00    +0.000 C 
ATOM      3  C   UNL     1       3.392   5.256  18.587  0.00  0.00    +0.000 A 
ATOM      4  C   UNL     1       3.843   5.804  17.379  0.00  0.00    +0.000 A 
ATOM      5  C   UNL     1       3.503   7.150  17.125  0.00  0.00    +0.000 A 
ATOM      6  C   UNL     1       2.784   7.899  18.065  0.00  0.00    +0.000 A 
ATOM      7  C   UNL     1       2.366   7.333  19.265  0.00  0.00    +0.000 A 
ATOM      8  C   UNL     1       2.670   6.011  19.505  0.00  0.00    +0.000 A 
ATOM      9  O   UNL     1       2.293   5.330  20.629  0.00  0.00    +0.000 OA
ENDROOT
BRANCH   1  11
ATOM     10  C   UNL     1       1.382   2.467  21.851  0.00  0.00    +0.000 C 
ATOM     11  C   UNL     1       1.669   3.005  20.652  0.00  0.00    +0.000 C 
ATOM     12  C   UNL     1       0.828   2.689  19.444  0.00  0.00    +0.000 C 
ENDBRANCH   1  11
BRANCH   6  13
ATOM     13  O   UNL     1       2.461   9.211  17.838  0.00  0.00    +0.000 OA
ATOM     14  H   UNL     1       2.845   9.748  18.550  0.00  0.00    +0.000 HD
ENDBRANCH   6  13
BRANCH   7  15
ATOM     15  O   UNL     1       1.665   8.080  20.163  0.00  0.00    +0.000 OA
ATOM     16  H   UNL     1       2.344   8.581  20.653  0.00  0.00    +0.000 HD
ENDBRANCH   7  15
BRANCH   4  17
ATOM     17  C   UNL     1       4.599   4.960  16.369  0.00  0.00    +0.000 C 
BRANCH  17  18
ATOM     18  C   UNL     1       5.916   5.576  15.868  0.00  0.00    +0.000 C 
BRANCH  18  19
ATOM     19  C   UNL     1       6.821   6.066  16.973  0.00  0.00    +0.000 A 
ATOM     20  C   UNL     1       7.252   7.399  17.002  0.00  0.00    +0.000 A 
ATOM     21  C   UNL     1       8.029   7.871  18.063  0.00  0.00    +0.000 A 
ATOM     22  C   UNL     1       8.388   7.012  19.100  0.00  0.00    +0.000 A 
ATOM     23  C   UNL     1       7.984   5.679  19.070  0.00  0.00    +0.000 A 
ATOM     24  C   UNL     1       7.207   5.206  18.011  0.00  0.00    +0.000 A 
ENDBRANCH  18  19
ENDBRANCH  17  18
ENDBRANCH   4  17
TORSDOF 6
ENDMDL
MODEL 6
REMARK VINA RESULT:      -7.5      2.599      4.627
REMARK  Name = 
REMARK  7 active torsions:
REMARK  status: ('A' for Active; 'I' for Inactive)
REMARK    1  A    between atoms: C_2  and  C_3
REMARK    2  A    between atoms: C_2  and  C_4
REMARK    3  A    between atoms: C_7  and  C_8
REMARK    4  A    between atoms: C_8  and  C_9
REMARK    5  A    between atoms: C_9  and  C_10
REMARK    6  A    between atoms: C_17  and  O_18
REMARK    7  A    between atoms: C_19  and  O_20
REMARK                            x       y       z     vdW  Elec       q    Type
REMARK                         _______ _______ _______ _____ _____    ______ ____
ROOT
ATOM      1  C   UNL     1       2.744   3.155  17.300  0.00  0.00    +0.000 C 
ATOM      2  C   UNL     1       2.331   4.599  17.658  0.00  0.00    +0.000 C 
ATOM      3  C   UNL     1       3.606   5.329  17.435  0.00  0.00    +0.000 A 
ATOM      4  C   UNL     1       3.897   6.690  17.594  0.00  0.00    +0.000 A 
ATOM      5  C   UNL     1       5.221   7.095  17.325  0.00  0.00    +0.000 A 
ATOM      6  C   UNL     1       6.177   6.173  16.879  0.00  0.00    +0.000 A 
ATOM      7  C   UNL     1       5.855   4.831  16.711  0.00  0.00    +0.000 A 
ATOM      8  C   UNL     1       4.571   4.425  17.002  0.00  0.00    +0.000 A 
ATOM      9  O   UNL     1       4.136   3.132  16.906  0.00  0.00    +0.000 OA
ENDROOT
BRANCH   1  11
ATOM     10  C   UNL     1       3.514   1.276  18.766  0.00  0.00    +0.000 C 
ATOM     11  C   UNL     1       2.540   2.132  18.407  0.00  0.00    +0.000 C 
ATOM     12  C   UNL     1       1.218   2.144  19.128  0.00  0.00    +0.000 C 
ENDBRANCH   1  11
BRANCH   6  13
ATOM     13  O   UNL     1       7.462   6.555  16.598  0.00  0.00    +0.000 OA
ATOM     14  H   UNL     1       7.432   7.270  15.941  0.00  0.00    +0.000 HD
ENDBRANCH   6  13
BRANCH   7  15
ATOM     15  O   UNL     1       6.802   3.951  16.279  0.00  0.00    +0.000 OA
ATOM     16  H   UNL     1       7.646   4.432  16.369  0.00  0.00    +0.000 HD
ENDBRANCH   7  15
BRANCH   4  17
ATOM     17  C   UNL     1       2.846   7.661  18.103  0.00  0.00    +0.000 C 
BRANCH  17  18
ATOM     18  C   UNL     1       2.371   7.404  19.543  0.00  0.00    +0.000 C 
BRANCH  18  19
ATOM     19  C   UNL     1       1.451   8.472  20.083  0.00  0.00    +0.000 A 
ATOM     20  C   UNL     1       1.051   9.543  19.272  0.00  0.00    +0.000 A 
ATOM     21  C   UNL     1       0.142  10.492  19.747  0.00  0.00    +0.000 A 
ATOM     22  C   UNL     1      -0.368  10.382  21.039  0.00  0.00    +0.000 A 
ATOM     23  C   UNL     1       0.040   9.335  21.861  0.00  0.00    +0.000 A 
ATOM     24  C   UNL     1       0.948   8.385  21.388  0.00  0.00    +0.000 A 
ENDBRANCH  18  19
ENDBRANCH  17  18
ENDBRANCH   4  17
TORSDOF 6
ENDMDL
MODEL 7
REMARK VINA RESULT:      -7.5      2.687      6.676
REMARK  Name = 
REMARK  7 active torsions:
REMARK  status: ('A' for Active; 'I' for Inactive)
REMARK    1  A    between atoms: C_2  and  C_3
REMARK    2  A    between atoms: C_2  and  C_4
REMARK    3  A    between atoms: C_7  and  C_8
REMARK    4  A    between atoms: C_8  and  C_9
REMARK    5  A    between atoms: C_9  and  C_10
REMARK    6  A    between atoms: C_17  and  O_18
REMARK    7  A    between atoms: C_19  and  O_20
REMARK                            x       y       z     vdW  Elec       q    Type
REMARK                         _______ _______ _______ _____ _____    ______ ____
ROOT
ATOM      1  C   UNL     1       3.135   4.136  20.469  0.00  0.00    +0.000 C 
ATOM      2  C   UNL     1       4.151   4.137  19.305  0.00  0.00    +0.000 C 
ATOM      3  C   UNL     1       3.868   5.454  18.677  0.00  0.00    +0.000 A 
ATOM      4  C   UNL     1       4.458   6.054  17.556  0.00  0.00    +0.000 A 
ATOM      5  C   UNL     1       3.962   7.318  17.176  0.00  0.00    +0.000 A 
ATOM      6  C   UNL     1       2.956   7.949  17.920  0.00  0.00    +0.000 A 
ATOM      7  C   UNL     1       2.403   7.337  19.040  0.00  0.00    +0.000 A 
ATOM      8  C   UNL     1       2.863   6.089  19.398  0.00  0.00    +0.000 A 
ATOM      9  O   UNL     1       2.382   5.371  20.458  0.00  0.00    +0.000 OA
ENDROOT
BRANCH   1  11
ATOM     10  C   UNL     1       1.394   2.691  21.541  0.00  0.00    +0.000 C 
ATOM     11  C   UNL     1       2.154   2.974  20.469  0.00  0.00    +0.000 C 
ATOM     12  C   UNL     1       2.024   2.176  19.198  0.00  0.00    +0.000 C 
ENDBRANCH   1  11
BRANCH   6  13
ATOM     13  O   UNL     1       2.476   9.184  17.572  0.00  0.00    +0.000 OA
ATOM     14  H   UNL     1       2.852   9.426  16.710  0.00  0.00    +0.000 HD
ENDBRANCH   6  13
BRANCH   7  15
ATOM     15  O   UNL     1       1.422   7.968  19.747  0.00  0.00    +0.000 OA
ATOM     16  H   UNL     1       1.778   8.859  19.923  0.00  0.00    +0.000 HD
ENDBRANCH   7  15
BRANCH   4  17
ATOM     17  C   UNL     1       5.529   5.336  16.756  0.00  0.00    +0.000 C 
BRANCH  17  18
ATOM     18  C   UNL     1       4.998   4.313  15.737  0.00  0.00    +0.000 C 
BRANCH  18  19
ATOM     19  C   UNL     1       5.797   4.254  14.458  0.00  0.00    +0.000 A 
ATOM     20  C   UNL     1       5.333   3.512  13.363  0.00  0.00    +0.000 A 
ATOM     21  C   UNL     1       6.034   3.515  12.154  0.00  0.00    +0.000 A 
ATOM     22  C   UNL     1       7.209   4.253  12.033  0.00  0.00    +0.000 A 
ATOM     23  C   UNL     1       7.692   4.975  13.122  0.00  0.00    +0.000 A 
ATOM     24  C   UNL     1       6.993   4.974  14.330  0.00  0.00    +0.000 A 
ENDBRANCH  18  19
ENDBRANCH  17  18
ENDBRANCH   4  17
TORSDOF 6
ENDMDL
MODEL 8
REMARK VINA RESULT:      -7.5      2.048      4.689
REMARK  Name = 
REMARK  7 active torsions:
REMARK  status: ('A' for Active; 'I' for Inactive)
REMARK    1  A    between atoms: C_2  and  C_3
REMARK    2  A    between atoms: C_2  and  C_4
REMARK    3  A    between atoms: C_7  and  C_8
REMARK    4  A    between atoms: C_8  and  C_9
REMARK    5  A    between atoms: C_9  and  C_10
REMARK    6  A    between atoms: C_17  and  O_18
REMARK    7  A    between atoms: C_19  and  O_20
REMARK                            x       y       z     vdW  Elec       q    Type
REMARK                         _______ _______ _______ _____ _____    ______ ____
ROOT
ATOM      1  C   UNL     1       3.191   7.039  18.981  0.00  0.00    +0.000 C 
ATOM      2  C   UNL     1       2.780   5.638  18.477  0.00  0.00    +0.000 C 
ATOM      3  C   UNL     1       3.887   5.334  17.533  0.00  0.00    +0.000 A 
ATOM      4  C   UNL     1       4.097   4.199  16.738  0.00  0.00    +0.000 A 
ATOM      5  C   UNL     1       5.242   4.203  15.914  0.00  0.00    +0.000 A 
ATOM      6  C   UNL     1       6.138   5.280  15.934  0.00  0.00    +0.000 A 
ATOM      7  C   UNL     1       5.914   6.384  16.748  0.00  0.00    +0.000 A 
ATOM      8  C   UNL     1       4.781   6.399  17.533  0.00  0.00    +0.000 A 
ATOM      9  O   UNL     1       4.432   7.435  18.353  0.00  0.00    +0.000 OA
ENDROOT
BRANCH   1  11
ATOM     10  C   UNL     1       1.947   8.655  17.527  0.00  0.00    +0.000 C 
ATOM     11  C   UNL     1       2.162   8.135  18.749  0.00  0.00    +0.000 C 
ATOM     12  C   UNL     1       1.350   8.587  19.934  0.00  0.00    +0.000 C 
ENDBRANCH   1  11
BRANCH   6  13
ATOM     13  O   UNL     1       7.263   5.289  15.150  0.00  0.00    +0.000 OA
ATOM     14  H   UNL     1       7.949   4.765  15.595  0.00  0.00    +0.000 HD
ENDBRANCH   6  13
BRANCH   7  15
ATOM     15  O   UNL     1       6.798   7.421  16.749  0.00  0.00    +0.000 OA
ATOM     16  H   UNL     1       6.599   7.917  17.566  0.00  0.00    +0.000 HD
ENDBRANCH   7  15
BRANCH   4  17
ATOM     17  C   UNL     1       3.095   3.059  16.719  0.00  0.00    +0.000 C 
BRANCH  17  18
ATOM     18  C   UNL     1       3.315   1.987  17.800  0.00  0.00    +0.000 C 
BRANCH  18  19
ATOM     19  C   UNL     1       2.631   2.292  19.110  0.00  0.00    +0.000 A 
ATOM     20  C   UNL     1       3.373   2.393  20.295  0.00  0.00    +0.000 A 
ATOM     21  C   UNL     1       2.751   2.746  21.495  0.00  0.00    +0.000 A 
ATOM     22  C   UNL     1       1.380   2.994  21.523  0.00  0.00    +0.000 A 
ATOM     23  C   UNL     1       0.629   2.873  20.356  0.00  0.00    +0.000 A 
ATOM     24  C   UNL     1       1.248   2.520  19.156  0.00  0.00    +0.000 A 
ENDBRANCH  18  19
ENDBRANCH  17  18
ENDBRANCH   4  17
TORSDOF 6
ENDMDL
MODEL 9
REMARK VINA RESULT:      -7.5      2.644      4.526
REMARK  Name = 
REMARK  7 active torsions:
REMARK  status: ('A' for Active; 'I' for Inactive)
REMARK    1  A    between atoms: C_2  and  C_3
REMARK    2  A    between atoms: C_2  and  C_4
REMARK    3  A    between atoms: C_7  and  C_8
REMARK    4  A    between atoms: C_8  and  C_9
REMARK    5  A    between atoms: C_9  and  C_10
REMARK    6  A    between atoms: C_17  and  O_18
REMARK    7  A    between atoms: C_19  and  O_20
REMARK                            x       y       z     vdW  Elec       q    Type
REMARK                         _______ _______ _______ _____ _____    ______ ____
ROOT
ATOM      1  C   UNL     1       2.791   3.113  17.382  0.00  0.00    +0.000 C 
ATOM      2  C   UNL     1       2.349   4.558  17.706  0.00  0.00    +0.000 C 
ATOM      3  C   UNL     1       3.612   5.305  17.472  0.00  0.00    +0.000 A 
ATOM      4  C   UNL     1       3.877   6.675  17.603  0.00  0.00    +0.000 A 
ATOM      5  C   UNL     1       5.195   7.098  17.330  0.00  0.00    +0.000 A 
ATOM      6  C   UNL     1       6.170   6.184  16.909  0.00  0.00    +0.000 A 
ATOM      7  C   UNL     1       5.873   4.832  16.769  0.00  0.00    +0.000 A 
ATOM      8  C   UNL     1       4.595   4.409  17.063  0.00  0.00    +0.000 A 
ATOM      9  O   UNL     1       4.184   3.107  16.995  0.00  0.00    +0.000 OA
ENDROOT
BRANCH   1  11
ATOM     10  C   UNL     1       1.466   2.067  19.232  0.00  0.00    +0.000 C 
ATOM     11  C   UNL     1       2.600   2.112  18.510  0.00  0.00    +0.000 C 
ATOM     12  C   UNL     1       3.713   1.128  18.761  0.00  0.00    +0.000 C 
ENDBRANCH   1  11
BRANCH   6  13
ATOM     13  O   UNL     1       7.450   6.583  16.624  0.00  0.00    +0.000 OA
ATOM     14  H   UNL     1       8.042   6.212  17.298  0.00  0.00    +0.000 HD
ENDBRANCH   6  13
BRANCH   7  15
ATOM     15  O   UNL     1       6.838   3.961  16.361  0.00  0.00    +0.000 OA
ATOM     16  H   UNL     1       7.267   3.662  17.186  0.00  0.00    +0.000 HD
ENDBRANCH   7  15
BRANCH   4  17
ATOM     17  C   UNL     1       2.807   7.637  18.085  0.00  0.00    +0.000 C 
BRANCH  17  18
ATOM     18  C   UNL     1       2.325   7.399  19.526  0.00  0.00    +0.000 C 
BRANCH  18  19
ATOM     19  C   UNL     1       1.439   8.497  20.063  0.00  0.00    +0.000 A 
ATOM     20  C   UNL     1       1.103   8.539  21.423  0.00  0.00    +0.000 A 
ATOM     21  C   UNL     1       0.344   9.594  21.935  0.00  0.00    +0.000 A 
ATOM     22  C   UNL     1      -0.092  10.612  21.091  0.00  0.00    +0.000 A 
ATOM     23  C   UNL     1       0.216  10.569  19.733  0.00  0.00    +0.000 A 
ATOM     24  C   UNL     1       0.975   9.515  19.219  0.00  0.00    +0.000 A 
ENDBRANCH  18  19
ENDBRANCH  17  18
ENDBRANCH   4  17
TORSDOF 6
ENDMDL
