MODEL 1
REMARK VINA RESULT:      -7.5      0.000      0.000
REMARK  Name = 
REMARK  6 active torsions:
REMARK  status: ('A' for Active; 'I' for Inactive)
REMARK    1  A    between atoms: C_2  and  C_3
REMARK    2  A    between atoms: C_3  and  C_4
REMARK    3  A    between atoms: N_10  and  N_11
REMARK    4  A    between atoms: C_12  and  C_14
REMARK    5  A    between atoms: N_18  and  S_19
REMARK    6  A    between atoms: S_19  and  C_22
REMARK                            x       y       z     vdW  Elec       q    Type
REMARK                         _______ _______ _______ _____ _____    ______ ____
ROOT
ATOM      1  C   UNL     1       0.666  13.279  18.588  0.00  0.00    +0.000 C 
ATOM      2  C   UNL     1       1.520  14.523  18.914  0.00  0.00    +0.000 C 
ATOM      3  C   UNL     1       0.539  15.533  19.527  0.00  0.00    +0.000 C 
ATOM      4  C   UNL     1      -0.750  14.728  19.782  0.00  0.00    +0.000 C 
ATOM      5  N   UNL     1      -0.387  13.274  19.664  0.00  0.00    +0.000 NA
ATOM      6  S   UNL     1       0.252  16.918  18.350  0.00  0.00    +0.000 S 
ATOM      7  C   UNL     1       1.005  18.253  19.332  0.00  0.00    +0.000 C 
ATOM      8  C   UNL     1       1.981  17.672  20.335  0.00  0.00    +0.000 C 
ATOM      9  S   UNL     1       1.161  16.262  21.091  0.00  0.00    +0.000 S 
ENDROOT
BRANCH   1  11
ATOM     10  N   UNL     1       0.867  10.877  18.063  0.00  0.00    +0.000 N 
ATOM     11  C   UNL     1       1.539  12.058  18.318  0.00  0.00    +0.000 C 
ATOM     12  O   UNL     1       2.766  12.121  18.205  0.00  0.00    +0.000 OA
ATOM     13  H   UNL     1      -0.137  10.743  18.177  0.00  0.00    +0.000 HD
BRANCH  10  16
ATOM     14  O   UNL     1       1.378   8.844  19.866  0.00  0.00    +0.000 OA
ATOM     15  C   UNL     1       1.824   8.757  18.722  0.00  0.00    +0.000 C 
ATOM     16  N   UNL     1       1.645   9.739  17.767  0.00  0.00    +0.000 N 
ATOM     17  H   UNL     1       1.770   9.541  16.773  0.00  0.00    +0.000 HD
BRANCH  15  18
ATOM     18  C   UNL     1       2.659   7.576  18.243  0.00  0.00    +0.000 C 
BRANCH  18  19
ATOM     19  C   UNL     1       2.241   6.218  18.764  0.00  0.00    +0.000 A 
ATOM     20  C   UNL     1       1.942   5.193  17.850  0.00  0.00    +0.000 A 
ATOM     21  C   UNL     1       1.565   3.922  18.292  0.00  0.00    +0.000 A 
ATOM     22  C   UNL     1       1.497   3.653  19.657  0.00  0.00    +0.000 A 
ATOM     23  C   UNL     1       1.831   4.646  20.575  0.00  0.00    +0.000 A 
ATOM     24  C   UNL     1       2.211   5.917  20.132  0.00  0.00    +0.000 A 
ENDBRANCH  18  19
ENDBRANCH  15  18
ENDBRANCH  10  16
ENDBRANCH   1  11
BRANCH   5  25
ATOM     25  S   UNL     1       0.056  12.470  21.115  0.00  0.00    +0.000 S 
ATOM     26  O   UNL     1      -0.106  11.054  20.865  0.00  0.00    +0.000 OA
ATOM     27  O   UNL     1       1.322  13.002  21.561  0.00  0.00    +0.000 OA
BRANCH  25  28
ATOM     28  C   UNL     1      -1.195  12.955  22.295  0.00  0.00    +0.000 A 
ATOM     29  C   UNL     1      -0.898  13.927  23.253  0.00  0.00    +0.000 A 
ATOM     30  C   UNL     1      -1.884  14.317  24.164  0.00  0.00    +0.000 A 
ATOM     31  C   UNL     1      -3.158  13.745  24.111  0.00  0.00    +0.000 A 
ATOM     32  C   UNL     1      -3.452  12.777  23.151  0.00  0.00    +0.000 A 
ATOM     33  C   UNL     1      -2.472  12.378  22.239  0.00  0.00    +0.000 A 
ENDBRANCH  25  28
ENDBRANCH   5  25
TORSDOF 6
ENDMDL
MODEL 2
REMARK VINA RESULT:      -7.3      8.141     12.103
REMARK  Name = 
REMARK  6 active torsions:
REMARK  status: ('A' for Active; 'I' for Inactive)
REMARK    1  A    between atoms: C_2  and  C_3
REMARK    2  A    between atoms: C_3  and  C_4
REMARK    3  A    between atoms: N_10  and  N_11
REMARK    4  A    between atoms: C_12  and  C_14
REMARK    5  A    between atoms: N_18  and  S_19
REMARK    6  A    between atoms: S_19  and  C_22
REMARK                            x       y       z     vdW  Elec       q    Type
REMARK                         _______ _______ _______ _____ _____    ______ ____
ROOT
ATOM      1  C   UNL     1       5.927   6.909  17.445  0.00  0.00    +0.000 C 
ATOM      2  C   UNL     1       5.291   5.866  18.388  0.00  0.00    +0.000 C 
ATOM      3  C   UNL     1       4.185   5.197  17.558  0.00  0.00    +0.000 C 
ATOM      4  C   UNL     1       4.426   5.682  16.115  0.00  0.00    +0.000 C 
ATOM      5  N   UNL     1       5.803   6.285  16.080  0.00  0.00    +0.000 NA
ATOM      6  S   UNL     1       2.534   5.719  18.182  0.00  0.00    +0.000 S 
ATOM      7  C   UNL     1       1.964   4.099  18.786  0.00  0.00    +0.000 C 
ATOM      8  C   UNL     1       3.150   3.197  19.052  0.00  0.00    +0.000 C 
ATOM      9  S   UNL     1       4.250   3.366  17.639  0.00  0.00    +0.000 S 
ENDROOT
BRANCH   1  11
ATOM     10  N   UNL     1       7.556   8.735  17.762  0.00  0.00    +0.000 N 
ATOM     11  C   UNL     1       7.269   7.401  17.979  0.00  0.00    +0.000 C 
ATOM     12  O   UNL     1       8.011   6.702  18.675  0.00  0.00    +0.000 OA
ATOM     13  H   UNL     1       7.011   9.357  17.166  0.00  0.00    +0.000 HD
BRANCH  10  16
ATOM     14  O   UNL     1       8.257  11.410  17.764  0.00  0.00    +0.000 OA
ATOM     15  C   UNL     1       9.023  10.589  18.268  0.00  0.00    +0.000 C 
ATOM     16  N   UNL     1       8.769   9.230  18.281  0.00  0.00    +0.000 N 
ATOM     17  H   UNL     1       9.256   8.606  18.926  0.00  0.00    +0.000 HD
BRANCH  15  18
ATOM     18  C   UNL     1      10.359  10.972  18.894  0.00  0.00    +0.000 C 
BRANCH  18  19
ATOM     19  C   UNL     1      10.352  12.221  19.748  0.00  0.00    +0.000 A 
ATOM     20  C   UNL     1       9.667  12.209  20.976  0.00  0.00    +0.000 A 
ATOM     21  C   UNL     1       9.648  13.339  21.799  0.00  0.00    +0.000 A 
ATOM     22  C   UNL     1      10.328  14.491  21.415  0.00  0.00    +0.000 A 
ATOM     23  C   UNL     1      11.046  14.504  20.220  0.00  0.00    +0.000 A 
ATOM     24  C   UNL     1      11.067  13.373  19.398  0.00  0.00    +0.000 A 
ENDBRANCH  18  19
ENDBRANCH  15  18
ENDBRANCH  10  16
ENDBRANCH   1  11
BRANCH   5  25
ATOM     25  S   UNL     1       7.091   5.240  15.636  0.00  0.00    +0.000 S 
ATOM     26  O   UNL     1       8.226   6.089  15.346  0.00  0.00    +0.000 OA
ATOM     27  O   UNL     1       7.186   4.190  16.622  0.00  0.00    +0.000 OA
BRANCH  25  28
ATOM     28  C   UNL     1       6.560   4.507  14.095  0.00  0.00    +0.000 A 
ATOM     29  C   UNL     1       7.423   4.511  12.997  0.00  0.00    +0.000 A 
ATOM     30  C   UNL     1       7.011   3.922  11.798  0.00  0.00    +0.000 A 
ATOM     31  C   UNL     1       5.751   3.326  11.703  0.00  0.00    +0.000 A 
ATOM     32  C   UNL     1       4.893   3.319  12.802  0.00  0.00    +0.000 A 
ATOM     33  C   UNL     1       5.294   3.910  14.003  0.00  0.00    +0.000 A 
ENDBRANCH  25  28
ENDBRANCH   5  25
TORSDOF 6
ENDMDL
MODEL 3
REMARK VINA RESULT:      -7.3      2.607      3.659
REMARK  Name = 
REMARK  6 active torsions:
REMARK  status: ('A' for Active; 'I' for Inactive)
REMARK    1  A    between atoms: C_2  and  C_3
REMARK    2  A    between atoms: C_3  and  C_4
REMARK    3  A    between atoms: N_10  and  N_11
REMARK    4  A    between atoms: C_12  and  C_14
REMARK    5  A    between atoms: N_18  and  S_19
REMARK    6  A    between atoms: S_19  and  C_22
REMARK                            x       y       z     vdW  Elec       q    Type
REMARK                         _______ _______ _______ _____ _____    ______ ____
ROOT
ATOM      1  C   UNL     1       0.809  12.201  18.792  0.00  0.00    +0.000 C 
ATOM      2  C   UNL     1       0.720  12.465  20.310  0.00  0.00    +0.000 C 
ATOM      3  C   UNL     1      -0.433  13.465  20.476  0.00  0.00    +0.000 C 
ATOM      4  C   UNL     1      -1.123  13.504  19.098  0.00  0.00    +0.000 C 
ATOM      5  N   UNL     1      -0.616  12.321  18.321  0.00  0.00    +0.000 NA
ATOM      6  S   UNL     1       0.232  15.114  20.948  0.00  0.00    +0.000 S 
ATOM      7  C   UNL     1      -0.491  15.216  22.615  0.00  0.00    +0.000 C 
ATOM      8  C   UNL     1      -0.815  13.828  23.127  0.00  0.00    +0.000 C 
ATOM      9  S   UNL     1      -1.625  12.960  21.776  0.00  0.00    +0.000 S 
ENDROOT
BRANCH   1  11
ATOM     10  N   UNL     1       1.279   9.803  19.142  0.00  0.00    +0.000 N 
ATOM     11  C   UNL     1       1.649  10.964  18.488  0.00  0.00    +0.000 C 
ATOM     12  O   UNL     1       2.529  10.946  17.624  0.00  0.00    +0.000 OA
ATOM     13  H   UNL     1       0.592   9.754  19.894  0.00  0.00    +0.000 HD
BRANCH  10  16
ATOM     14  O   UNL     1       1.606   7.705  20.913  0.00  0.00    +0.000 OA
ATOM     15  C   UNL     1       2.095   7.621  19.787  0.00  0.00    +0.000 C 
ATOM     16  N   UNL     1       2.009   8.634  18.850  0.00  0.00    +0.000 N 
ATOM     17  H   UNL     1       2.167   8.453  17.858  0.00  0.00    +0.000 HD
BRANCH  15  18
ATOM     18  C   UNL     1       2.888   6.409  19.313  0.00  0.00    +0.000 C 
BRANCH  18  19
ATOM     19  C   UNL     1       2.163   5.082  19.375  0.00  0.00    +0.000 A 
ATOM     20  C   UNL     1       1.787   4.562  20.626  0.00  0.00    +0.000 A 
ATOM     21  C   UNL     1       1.105   3.346  20.723  0.00  0.00    +0.000 A 
ATOM     22  C   UNL     1       0.774   2.640  19.569  0.00  0.00    +0.000 A 
ATOM     23  C   UNL     1       1.104   3.163  18.321  0.00  0.00    +0.000 A 
ATOM     24  C   UNL     1       1.783   4.381  18.223  0.00  0.00    +0.000 A 
ENDBRANCH  18  19
ENDBRANCH  15  18
ENDBRANCH  10  16
ENDBRANCH   1  11
BRANCH   5  25
ATOM     25  S   UNL     1      -1.541  10.879  18.420  0.00  0.00    +0.000 S 
ATOM     26  O   UNL     1      -1.163  10.070  17.282  0.00  0.00    +0.000 OA
ATOM     27  O   UNL     1      -1.435  10.361  19.764  0.00  0.00    +0.000 OA
BRANCH  25  28
ATOM     28  C   UNL     1      -3.228  11.412  18.164  0.00  0.00    +0.000 A 
ATOM     29  C   UNL     1      -3.981  11.859  19.252  0.00  0.00    +0.000 A 
ATOM     30  C   UNL     1      -5.295  12.291  19.047  0.00  0.00    +0.000 A 
ATOM     31  C   UNL     1      -5.845  12.283  17.763  0.00  0.00    +0.000 A 
ATOM     32  C   UNL     1      -5.090  11.839  16.678  0.00  0.00    +0.000 A 
ATOM     33  C   UNL     1      -3.778  11.401  16.874  0.00  0.00    +0.000 A 
ENDBRANCH  25  28
ENDBRANCH   5  25
TORSDOF 6
ENDMDL
MODEL 4
REMARK VINA RESULT:      -7.3      8.201     12.279
REMARK  Name = 
REMARK  6 active torsions:
REMARK  status: ('A' for Active; 'I' for Inactive)
REMARK    1  A    between atoms: C_2  and  C_3
REMARK    2  A    between atoms: C_3  and  C_4
REMARK    3  A    between atoms: N_10  and  N_11
REMARK    4  A    between atoms: C_12  and  C_14
REMARK    5  A    between atoms: N_18  and  S_19
REMARK    6  A    between atoms: S_19  and  C_22
REMARK                            x       y       z     vdW  Elec       q    Type
REMARK                         _______ _______ _______ _____ _____    ______ ____
ROOT
ATOM      1  C   UNL     1       5.900   6.915  17.371  0.00  0.00    +0.000 C 
ATOM      2  C   UNL     1       5.288   5.900  18.359  0.00  0.00    +0.000 C 
ATOM      3  C   UNL     1       4.170   5.200  17.573  0.00  0.00    +0.000 C 
ATOM      4  C   UNL     1       4.380   5.639  16.111  0.00  0.00    +0.000 C 
ATOM      5  N   UNL     1       5.752   6.247  16.030  0.00  0.00    +0.000 NA
ATOM      6  S   UNL     1       2.529   5.733  18.212  0.00  0.00    +0.000 S 
ATOM      7  C   UNL     1       1.979   4.132  18.880  0.00  0.00    +0.000 C 
ATOM      8  C   UNL     1       3.175   3.243  19.150  0.00  0.00    +0.000 C 
ATOM      9  S   UNL     1       4.246   3.373  17.712  0.00  0.00    +0.000 S 
ENDROOT
BRANCH   1  11
ATOM     10  N   UNL     1       7.563   8.733  17.521  0.00  0.00    +0.000 N 
ATOM     11  C   UNL     1       7.249   7.430  17.863  0.00  0.00    +0.000 C 
ATOM     12  O   UNL     1       7.976   6.786  18.624  0.00  0.00    +0.000 OA
ATOM     13  H   UNL     1       7.031   9.305  16.866  0.00  0.00    +0.000 HD
BRANCH  10  16
ATOM     14  O   UNL     1       8.108  11.434  17.749  0.00  0.00    +0.000 OA
ATOM     15  C   UNL     1       8.958  10.618  18.106  0.00  0.00    +0.000 C 
ATOM     16  N   UNL     1       8.783   9.252  17.997  0.00  0.00    +0.000 N 
ATOM     17  H   UNL     1       9.356   8.600  18.536  0.00  0.00    +0.000 HD
BRANCH  15  18
ATOM     18  C   UNL     1      10.315  11.024  18.667  0.00  0.00    +0.000 C 
BRANCH  18  19
ATOM     19  C   UNL     1      10.724  12.461  18.429  0.00  0.00    +0.000 A 
ATOM     20  C   UNL     1      10.743  13.359  19.512  0.00  0.00    +0.000 A 
ATOM     21  C   UNL     1      11.127  14.691  19.334  0.00  0.00    +0.000 A 
ATOM     22  C   UNL     1      11.514  15.141  18.075  0.00  0.00    +0.000 A 
ATOM     23  C   UNL     1      11.540  14.254  17.002  0.00  0.00    +0.000 A 
ATOM     24  C   UNL     1      11.159  12.920  17.179  0.00  0.00    +0.000 A 
ENDBRANCH  18  19
ENDBRANCH  15  18
ENDBRANCH  10  16
ENDBRANCH   1  11
BRANCH   5  25
ATOM     25  S   UNL     1       7.037   5.195  15.593  0.00  0.00    +0.000 S 
ATOM     26  O   UNL     1       8.175   6.038  15.297  0.00  0.00    +0.000 OA
ATOM     27  O   UNL     1       7.129   4.152  16.588  0.00  0.00    +0.000 OA
BRANCH  25  28
ATOM     28  C   UNL     1       6.504   4.451  14.059  0.00  0.00    +0.000 A 
ATOM     29  C   UNL     1       7.372   4.431  12.964  0.00  0.00    +0.000 A 
ATOM     30  C   UNL     1       6.958   3.834  11.770  0.00  0.00    +0.000 A 
ATOM     31  C   UNL     1       5.690   3.253  11.676  0.00  0.00    +0.000 A 
ATOM     32  C   UNL     1       4.827   3.271  12.772  0.00  0.00    +0.000 A 
ATOM     33  C   UNL     1       5.230   3.870  13.967  0.00  0.00    +0.000 A 
ENDBRANCH  25  28
ENDBRANCH   5  25
TORSDOF 6
ENDMDL
MODEL 5
REMARK VINA RESULT:      -7.3      1.938      4.230
REMARK  Name = 
REMARK  6 active torsions:
REMARK  status: ('A' for Active; 'I' for Inactive)
REMARK    1  A    between atoms: C_2  and  C_3
REMARK    2  A    between atoms: C_3  and  C_4
REMARK    3  A    between atoms: N_10  and  N_11
REMARK    4  A    between atoms: C_12  and  C_14
REMARK    5  A    between atoms: N_18  and  S_19
REMARK    6  A    between atoms: S_19  and  C_22
REMARK                            x       y       z     vdW  Elec       q    Type
REMARK                         _______ _______ _______ _____ _____    ______ ____
ROOT
ATOM      1  C   UNL     1      -0.180  11.283  22.275  0.00  0.00    +0.000 C 
ATOM      2  C   UNL     1      -1.546  11.159  21.568  0.00  0.00    +0.000 C 
ATOM      3  C   UNL     1      -2.173  12.558  21.659  0.00  0.00    +0.000 C 
ATOM      4  C   UNL     1      -1.033  13.470  22.153  0.00  0.00    +0.000 C 
ATOM      5  N   UNL     1       0.247  12.698  21.990  0.00  0.00    +0.000 NA
ATOM      6  S   UNL     1      -3.583  12.534  22.841  0.00  0.00    +0.000 S 
ATOM      7  C   UNL     1      -4.920  12.879  21.654  0.00  0.00    +0.000 C 
ATOM      8  C   UNL     1      -4.482  12.503  20.255  0.00  0.00    +0.000 C 
ATOM      9  S   UNL     1      -2.817  13.150  20.047  0.00  0.00    +0.000 S 
ENDROOT
BRANCH   1  11
ATOM     10  N   UNL     1       0.560   9.527  20.707  0.00  0.00    +0.000 N 
ATOM     11  C   UNL     1       0.725  10.096  21.955  0.00  0.00    +0.000 C 
ATOM     12  O   UNL     1       1.638   9.730  22.700  0.00  0.00    +0.000 OA
ATOM     13  H   UNL     1      -0.196   9.751  20.061  0.00  0.00    +0.000 HD
BRANCH  10  16
ATOM     14  O   UNL     1       1.397   8.980  18.128  0.00  0.00    +0.000 OA
ATOM     15  C   UNL     1       1.802   8.275  19.053  0.00  0.00    +0.000 C 
ATOM     16  N   UNL     1       1.410   8.455  20.366  0.00  0.00    +0.000 N 
ATOM     17  H   UNL     1       1.948   8.061  21.139  0.00  0.00    +0.000 HD
BRANCH  15  18
ATOM     18  C   UNL     1       2.747   7.097  18.848  0.00  0.00    +0.000 C 
BRANCH  18  19
ATOM     19  C   UNL     1       2.150   5.726  19.074  0.00  0.00    +0.000 A 
ATOM     20  C   UNL     1       1.926   4.883  17.971  0.00  0.00    +0.000 A 
ATOM     21  C   UNL     1       1.388   3.605  18.142  0.00  0.00    +0.000 A 
ATOM     22  C   UNL     1       1.081   3.143  19.419  0.00  0.00    +0.000 A 
ATOM     23  C   UNL     1       1.336   3.951  20.525  0.00  0.00    +0.000 A 
ATOM     24  C   UNL     1       1.878   5.229  20.356  0.00  0.00    +0.000 A 
ENDBRANCH  18  19
ENDBRANCH  15  18
ENDBRANCH  10  16
ENDBRANCH   1  11
BRANCH   5  25
ATOM     25  S   UNL     1       1.098  12.921  20.516  0.00  0.00    +0.000 S 
ATOM     26  O   UNL     1       2.503  12.780  20.829  0.00  0.00    +0.000 OA
ATOM     27  O   UNL     1       0.480  12.097  19.504  0.00  0.00    +0.000 OA
BRANCH  25  28
ATOM     28  C   UNL     1       0.810  14.632  20.087  0.00  0.00    +0.000 A 
ATOM     29  C   UNL     1       1.419  15.642  20.836  0.00  0.00    +0.000 A 
ATOM     30  C   UNL     1       1.205  16.978  20.489  0.00  0.00    +0.000 A 
ATOM     31  C   UNL     1       0.397  17.301  19.395  0.00  0.00    +0.000 A 
ATOM     32  C   UNL     1      -0.206  16.290  18.647  0.00  0.00    +0.000 A 
ATOM     33  C   UNL     1      -0.003  14.952  18.990  0.00  0.00    +0.000 A 
ENDBRANCH  25  28
ENDBRANCH   5  25
TORSDOF 6
ENDMDL
MODEL 6
REMARK VINA RESULT:      -7.3      2.017      4.385
REMARK  Name = 
REMARK  6 active torsions:
REMARK  status: ('A' for Active; 'I' for Inactive)
REMARK    1  A    between atoms: C_2  and  C_3
REMARK    2  A    between atoms: C_3  and  C_4
REMARK    3  A    between atoms: N_10  and  N_11
REMARK    4  A    between atoms: C_12  and  C_14
REMARK    5  A    between atoms: N_18  and  S_19
REMARK    6  A    between atoms: S_19  and  C_22
REMARK                            x       y       z     vdW  Elec       q    Type
REMARK                         _______ _______ _______ _____ _____    ______ ____
ROOT
ATOM      1  C   UNL     1       0.407  10.959  20.270  0.00  0.00    +0.000 C 
ATOM      2  C   UNL     1      -1.121  11.105  20.437  0.00  0.00    +0.000 C 
ATOM      3  C   UNL     1      -1.313  12.373  21.281  0.00  0.00    +0.000 C 
ATOM      4  C   UNL     1       0.076  13.040  21.314  0.00  0.00    +0.000 C 
ATOM      5  N   UNL     1       0.903  12.380  20.246  0.00  0.00    +0.000 NA
ATOM      6  S   UNL     1      -1.888  11.919  22.969  0.00  0.00    +0.000 S 
ATOM      7  C   UNL     1      -3.541  12.676  22.891  0.00  0.00    +0.000 C 
ATOM      8  C   UNL     1      -3.970  12.839  21.448  0.00  0.00    +0.000 C 
ATOM      9  S   UNL     1      -2.556  13.516  20.566  0.00  0.00    +0.000 S 
ENDROOT
BRANCH   1  11
ATOM     10  N   UNL     1       1.795   9.100  19.430  0.00  0.00    +0.000 N 
ATOM     11  C   UNL     1       0.756   9.972  19.161  0.00  0.00    +0.000 C 
ATOM     12  O   UNL     1       0.087   9.856  18.130  0.00  0.00    +0.000 OA
ATOM     13  H   UNL     1       2.412   9.164  20.238  0.00  0.00    +0.000 HD
BRANCH  10  16
ATOM     14  O   UNL     1       2.812   6.588  19.979  0.00  0.00    +0.000 OA
ATOM     15  C   UNL     1       2.590   6.903  18.809  0.00  0.00    +0.000 C 
ATOM     16  N   UNL     1       2.114   8.147  18.442  0.00  0.00    +0.000 N 
ATOM     17  H   UNL     1       1.680   8.300  17.530  0.00  0.00    +0.000 HD
BRANCH  15  18
ATOM     18  C   UNL     1       2.857   5.972  17.633  0.00  0.00    +0.000 C 
BRANCH  18  19
ATOM     19  C   UNL     1       2.679   4.495  17.907  0.00  0.00    +0.000 A 
ATOM     20  C   UNL     1       1.418   4.017  18.307  0.00  0.00    +0.000 A 
ATOM     21  C   UNL     1       1.211   2.658  18.557  0.00  0.00    +0.000 A 
ATOM     22  C   UNL     1       2.257   1.753  18.395  0.00  0.00    +0.000 A 
ATOM     23  C   UNL     1       3.501   2.206  17.960  0.00  0.00    +0.000 A 
ATOM     24  C   UNL     1       3.707   3.566  17.706  0.00  0.00    +0.000 A 
ENDBRANCH  18  19
ENDBRANCH  15  18
ENDBRANCH  10  16
ENDBRANCH   1  11
BRANCH   5  25
ATOM     25  S   UNL     1       0.903  13.127  18.700  0.00  0.00    +0.000 S 
ATOM     26  O   UNL     1       2.109  12.689  18.032  0.00  0.00    +0.000 OA
ATOM     27  O   UNL     1      -0.392  12.923  18.096  0.00  0.00    +0.000 OA
BRANCH  25  28
ATOM     28  C   UNL     1       1.082  14.871  19.046  0.00  0.00    +0.000 A 
ATOM     29  C   UNL     1       2.304  15.358  19.516  0.00  0.00    +0.000 A 
ATOM     30  C   UNL     1       2.447  16.725  19.771  0.00  0.00    +0.000 A 
ATOM     31  C   UNL     1       1.378  17.598  19.547  0.00  0.00    +0.000 A 
ATOM     32  C   UNL     1       0.161  17.109  19.074  0.00  0.00    +0.000 A 
ATOM     33  C   UNL     1       0.007  15.744  18.822  0.00  0.00    +0.000 A 
ENDBRANCH  25  28
ENDBRANCH   5  25
TORSDOF 6
ENDMDL
MODEL 7
REMARK VINA RESULT:      -7.3      2.850      3.947
REMARK  Name = 
REMARK  6 active torsions:
REMARK  status: ('A' for Active; 'I' for Inactive)
REMARK    1  A    between atoms: C_2  and  C_3
REMARK    2  A    between atoms: C_3  and  C_4
REMARK    3  A    between atoms: N_10  and  N_11
REMARK    4  A    between atoms: C_12  and  C_14
REMARK    5  A    between atoms: N_18  and  S_19
REMARK    6  A    between atoms: S_19  and  C_22
REMARK                            x       y       z     vdW  Elec       q    Type
REMARK                         _______ _______ _______ _____ _____    ______ ____
ROOT
ATOM      1  C   UNL     1       0.959  11.866  19.629  0.00  0.00    +0.000 C 
ATOM      2  C   UNL     1       0.812  13.011  20.655  0.00  0.00    +0.000 C 
ATOM      3  C   UNL     1       0.174  14.169  19.874  0.00  0.00    +0.000 C 
ATOM      4  C   UNL     1      -0.268  13.546  18.535  0.00  0.00    +0.000 C 
ATOM      5  N   UNL     1      -0.217  12.054  18.708  0.00  0.00    +0.000 NA
ATOM      6  S   UNL     1       1.411  15.509  19.623  0.00  0.00    +0.000 S 
ATOM      7  C   UNL     1       0.608  16.793  20.632  0.00  0.00    +0.000 C 
ATOM      8  C   UNL     1      -0.328  16.154  21.637  0.00  0.00    +0.000 C 
ATOM      9  S   UNL     1      -1.262  14.903  20.746  0.00  0.00    +0.000 S 
ENDROOT
BRANCH   1  11
ATOM     10  N   UNL     1       1.445   9.451  19.481  0.00  0.00    +0.000 N 
ATOM     11  C   UNL     1       1.231  10.531  20.317  0.00  0.00    +0.000 C 
ATOM     12  O   UNL     1       1.378  10.423  21.537  0.00  0.00    +0.000 OA
ATOM     13  H   UNL     1       1.300   9.460  18.472  0.00  0.00    +0.000 HD
BRANCH  10  16
ATOM     14  O   UNL     1       2.903   7.445  18.258  0.00  0.00    +0.000 OA
ATOM     15  C   UNL     1       2.503   7.279  19.410  0.00  0.00    +0.000 C 
ATOM     16  N   UNL     1       1.741   8.213  20.085  0.00  0.00    +0.000 N 
ATOM     17  H   UNL     1       1.653   8.190  21.103  0.00  0.00    +0.000 HD
BRANCH  15  18
ATOM     18  C   UNL     1       2.766   6.006  20.205  0.00  0.00    +0.000 C 
BRANCH  18  19
ATOM     19  C   UNL     1       2.102   4.752  19.681  0.00  0.00    +0.000 A 
ATOM     20  C   UNL     1       2.538   4.200  18.464  0.00  0.00    +0.000 A 
ATOM     21  C   UNL     1       1.958   3.036  17.953  0.00  0.00    +0.000 A 
ATOM     22  C   UNL     1       0.944   2.396  18.660  0.00  0.00    +0.000 A 
ATOM     23  C   UNL     1       0.529   2.907  19.888  0.00  0.00    +0.000 A 
ATOM     24  C   UNL     1       1.112   4.071  20.401  0.00  0.00    +0.000 A 
ENDBRANCH  18  19
ENDBRANCH  15  18
ENDBRANCH  10  16
ENDBRANCH   1  11
BRANCH   5  25
ATOM     25  S   UNL     1      -1.668  11.287  19.211  0.00  0.00    +0.000 S 
ATOM     26  O   UNL     1      -1.286   9.997  19.743  0.00  0.00    +0.000 OA
ATOM     27  O   UNL     1      -2.424  12.222  20.010  0.00  0.00    +0.000 OA
BRANCH  25  28
ATOM     28  C   UNL     1      -2.569  10.998  17.696  0.00  0.00    +0.000 A 
ATOM     29  C   UNL     1      -2.039  10.138  16.731  0.00  0.00    +0.000 A 
ATOM     30  C   UNL     1      -2.754   9.902  15.554  0.00  0.00    +0.000 A 
ATOM     31  C   UNL     1      -3.994  10.514  15.348  0.00  0.00    +0.000 A 
ATOM     32  C   UNL     1      -4.523  11.369  16.315  0.00  0.00    +0.000 A 
ATOM     33  C   UNL     1      -3.813  11.615  17.492  0.00  0.00    +0.000 A 
ENDBRANCH  25  28
ENDBRANCH   5  25
TORSDOF 6
ENDMDL
MODEL 8
REMARK VINA RESULT:      -7.3      8.247     12.274
REMARK  Name = 
REMARK  6 active torsions:
REMARK  status: ('A' for Active; 'I' for Inactive)
REMARK    1  A    between atoms: C_2  and  C_3
REMARK    2  A    between atoms: C_3  and  C_4
REMARK    3  A    between atoms: N_10  and  N_11
REMARK    4  A    between atoms: C_12  and  C_14
REMARK    5  A    between atoms: N_18  and  S_19
REMARK    6  A    between atoms: S_19  and  C_22
REMARK                            x       y       z     vdW  Elec       q    Type
REMARK                         _______ _______ _______ _____ _____    ______ ____
ROOT
ATOM      1  C   UNL     1       5.922   6.861  17.434  0.00  0.00    +0.000 C 
ATOM      2  C   UNL     1       5.317   5.825  18.404  0.00  0.00    +0.000 C 
ATOM      3  C   UNL     1       4.207   5.128  17.605  0.00  0.00    +0.000 C 
ATOM      4  C   UNL     1       4.416   5.593  16.151  0.00  0.00    +0.000 C 
ATOM      5  N   UNL     1       5.783   6.214  16.082  0.00  0.00    +0.000 NA
ATOM      6  S   UNL     1       2.560   5.637  18.250  0.00  0.00    +0.000 S 
ATOM      7  C   UNL     1       2.023   4.020  18.890  0.00  0.00    +0.000 C 
ATOM      8  C   UNL     1       3.226   3.137  19.148  0.00  0.00    +0.000 C 
ATOM      9  S   UNL     1       4.298   3.300  17.714  0.00  0.00    +0.000 S 
ENDROOT
BRANCH   1  11
ATOM     10  N   UNL     1       7.605   8.662  17.548  0.00  0.00    +0.000 N 
ATOM     11  C   UNL     1       7.266   7.380  17.937  0.00  0.00    +0.000 C 
ATOM     12  O   UNL     1       7.965   6.761  18.744  0.00  0.00    +0.000 OA
ATOM     13  H   UNL     1       7.098   9.213  16.856  0.00  0.00    +0.000 HD
BRANCH  10  16
ATOM     14  O   UNL     1       8.115  11.365  17.839  0.00  0.00    +0.000 OA
ATOM     15  C   UNL     1       8.978  10.552  18.173  0.00  0.00    +0.000 C 
ATOM     16  N   UNL     1       8.821   9.186  18.031  0.00  0.00    +0.000 N 
ATOM     17  H   UNL     1       9.405   8.529  18.552  0.00  0.00    +0.000 HD
BRANCH  15  18
ATOM     18  C   UNL     1      10.332  10.962  18.738  0.00  0.00    +0.000 C 
BRANCH  18  19
ATOM     19  C   UNL     1      10.753  12.390  18.470  0.00  0.00    +0.000 A 
ATOM     20  C   UNL     1      11.198  12.746  17.184  0.00  0.00    +0.000 A 
ATOM     21  C   UNL     1      11.584  14.057  16.894  0.00  0.00    +0.000 A 
ATOM     22  C   UNL     1      11.514  15.038  17.881  0.00  0.00    +0.000 A 
ATOM     23  C   UNL     1      11.036  14.709  19.147  0.00  0.00    +0.000 A 
ATOM     24  C   UNL     1      10.647  13.398  19.437  0.00  0.00    +0.000 A 
ENDBRANCH  18  19
ENDBRANCH  15  18
ENDBRANCH  10  16
ENDBRANCH   1  11
BRANCH   5  25
ATOM     25  S   UNL     1       7.077   5.181  15.631  0.00  0.00    +0.000 S 
ATOM     26  O   UNL     1       8.201   6.040  15.330  0.00  0.00    +0.000 OA
ATOM     27  O   UNL     1       7.190   4.135  16.620  0.00  0.00    +0.000 OA
BRANCH  25  28
ATOM     28  C   UNL     1       6.541   4.437  14.097  0.00  0.00    +0.000 A 
ATOM     29  C   UNL     1       5.268   3.867  14.016  0.00  0.00    +0.000 A 
ATOM     30  C   UNL     1       4.846   3.300  12.810  0.00  0.00    +0.000 A 
ATOM     31  C   UNL     1       5.686   3.312  11.694  0.00  0.00    +0.000 A 
ATOM     32  C   UNL     1       6.955   3.884  11.777  0.00  0.00    +0.000 A 
ATOM     33  C   UNL     1       7.388   4.449  12.979  0.00  0.00    +0.000 A 
ENDBRANCH  25  28
ENDBRANCH   5  25
TORSDOF 6
ENDMDL
MODEL 9
REMARK VINA RESULT:      -7.3      1.708      2.132
REMARK  Name = 
REMARK  6 active torsions:
REMARK  status: ('A' for Active; 'I' for Inactive)
REMARK    1  A    between atoms: C_2  and  C_3
REMARK    2  A    between atoms: C_3  and  C_4
REMARK    3  A    between atoms: N_10  and  N_11
REMARK    4  A    between atoms: C_12  and  C_14
REMARK    5  A    between atoms: N_18  and  S_19
REMARK    6  A    between atoms: S_19  and  C_22
REMARK                            x       y       z     vdW  Elec       q    Type
REMARK                         _______ _______ _______ _____ _____    ______ ____
ROOT
ATOM      1  C   UNL     1       0.014  12.092  20.354  0.00  0.00    +0.000 C 
ATOM      2  C   UNL     1       0.924  13.328  20.514  0.00  0.00    +0.000 C 
ATOM      3  C   UNL     1      -0.017  14.536  20.400  0.00  0.00    +0.000 C 
ATOM      4  C   UNL     1      -1.436  13.939  20.465  0.00  0.00    +0.000 C 
ATOM      5  N   UNL     1      -1.294  12.527  20.959  0.00  0.00    +0.000 NA
ATOM      6  S   UNL     1       0.279  15.410  18.808  0.00  0.00    +0.000 S 
ATOM      7  C   UNL     1       0.916  16.974  19.487  0.00  0.00    +0.000 C 
ATOM      8  C   UNL     1       1.450  16.754  20.887  0.00  0.00    +0.000 C 
ATOM      9  S   UNL     1       0.229  15.754  21.749  0.00  0.00    +0.000 S 
ENDROOT
BRANCH   1  11
ATOM     10  N   UNL     1       0.541   9.708  20.000  0.00  0.00    +0.000 N 
ATOM     11  C   UNL     1       0.719  10.817  20.806  0.00  0.00    +0.000 C 
ATOM     12  O   UNL     1       1.504  10.785  21.757  0.00  0.00    +0.000 OA
ATOM     13  H   UNL     1      -0.120   9.652  19.226  0.00  0.00    +0.000 HD
BRANCH  10  16
ATOM     14  O   UNL     1       2.074   8.200  18.260  0.00  0.00    +0.000 OA
ATOM     15  C   UNL     1       1.984   7.851  19.438  0.00  0.00    +0.000 C 
ATOM     16  N   UNL     1       1.214   8.525  20.367  0.00  0.00    +0.000 N 
ATOM     17  H   UNL     1       1.362   8.399  21.369  0.00  0.00    +0.000 HD
BRANCH  15  18
ATOM     18  C   UNL     1       2.676   6.612  19.992  0.00  0.00    +0.000 C 
BRANCH  18  19
ATOM     19  C   UNL     1       2.086   5.284  19.571  0.00  0.00    +0.000 A 
ATOM     20  C   UNL     1       1.388   4.511  20.516  0.00  0.00    +0.000 A 
ATOM     21  C   UNL     1       0.818   3.285  20.161  0.00  0.00    +0.000 A 
ATOM     22  C   UNL     1       0.924   2.821  18.853  0.00  0.00    +0.000 A 
ATOM     23  C   UNL     1       1.577   3.595  17.896  0.00  0.00    +0.000 A 
ATOM     24  C   UNL     1       2.144   4.823  18.249  0.00  0.00    +0.000 A 
ENDBRANCH  18  19
ENDBRANCH  15  18
ENDBRANCH  10  16
ENDBRANCH   1  11
BRANCH   5  25
ATOM     25  S   UNL     1      -1.430  12.286  22.654  0.00  0.00    +0.000 S 
ATOM     26  O   UNL     1      -1.651  10.870  22.850  0.00  0.00    +0.000 OA
ATOM     27  O   UNL     1      -0.327  12.959  23.299  0.00  0.00    +0.000 OA
BRANCH  25  28
ATOM     28  C   UNL     1      -2.936  13.134  23.106  0.00  0.00    +0.000 A 
ATOM     29  C   UNL     1      -2.881  14.209  23.997  0.00  0.00    +0.000 A 
ATOM     30  C   UNL     1      -4.059  14.880  24.337  0.00  0.00    +0.000 A 
ATOM     31  C   UNL     1      -5.279  14.485  23.783  0.00  0.00    +0.000 A 
ATOM     32  C   UNL     1      -5.331  13.414  22.891  0.00  0.00    +0.000 A 
ATOM     33  C   UNL     1      -4.160  12.733  22.550  0.00  0.00    +0.000 A 
ENDBRANCH  25  28
ENDBRANCH   5  25
TORSDOF 6
ENDMDL
