MODEL 1
REMARK VINA RESULT:      -5.1      0.000      0.000
REMARK  Name = 
REMARK  18 active torsions:
REMARK  status: ('A' for Active; 'I' for Inactive)
REMARK    1  A    between atoms: C_1  and  C_2
REMARK    2  A    between atoms: C_2  and  C_3
REMARK    3  A    between atoms: C_3  and  C_4
REMARK    4  A    between atoms: C_4  and  C_5
REMARK    5  A    between atoms: C_5  and  C_6
REMARK    6  A    between atoms: C_6  and  C_7
REMARK    7  A    between atoms: C_7  and  C_8
REMARK    8  A    between atoms: C_8  and  C_9
REMARK    9  A    between atoms: C_9  and  C_10
REMARK   10  A    between atoms: C_10  and  C_11
REMARK   11  A    between atoms: C_11  and  C_12
REMARK   12  A    between atoms: C_12  and  C_13
REMARK   13  A    between atoms: C_13  and  C_14
REMARK   14  A    between atoms: C_14  and  C_15
REMARK   15  A    between atoms: C_15  and  C_16
REMARK   16  A    between atoms: C_16  and  N_17
REMARK   17  A    between atoms: N_17  and  C_18
REMARK   18  A    between atoms: N_17  and  C_19
REMARK                            x       y       z     vdW  Elec       q    Type
REMARK                         _______ _______ _______ _____ _____    ______ ____
ROOT
ATOM      1  C   UNL     1       6.940   4.893  17.641  0.00  0.00    +0.000 C 
ENDROOT
BRANCH   1   2
ATOM      2  C   UNL     1       5.540   4.372  17.917  0.00  0.00    +0.000 C 
BRANCH   2   3
ATOM      3  C   UNL     1       4.532   5.099  17.041  0.00  0.00    +0.000 C 
BRANCH   3   4
ATOM      4  C   UNL     1       3.801   6.157  17.849  0.00  0.00    +0.000 C 
BRANCH   4   5
ATOM      5  C   UNL     1       3.716   5.736  19.309  0.00  0.00    +0.000 C 
BRANCH   5   6
ATOM      6  C   UNL     1       2.294   5.898  19.824  0.00  0.00    +0.000 C 
BRANCH   6   7
ATOM      7  C   UNL     1       1.983   4.838  20.871  0.00  0.00    +0.000 C 
BRANCH   7   8
ATOM      8  C   UNL     1       0.893   3.899  20.370  0.00  0.00    +0.000 C 
BRANCH   8  10
ATOM      9  C   UNL     1       1.582   2.680  18.292  0.00  0.00    +0.000 C 
ATOM     10  C   UNL     1       1.495   2.617  19.805  0.00  0.00    +0.000 C 
ENDBRANCH   8  10
ENDBRANCH   7   8
ENDBRANCH   6   7
ENDBRANCH   5   6
ENDBRANCH   4   5
ENDBRANCH   3   4
ENDBRANCH   2   3
ENDBRANCH   1   2
BRANCH   1  11
ATOM     11  C   UNL     1       7.562   5.425  18.920  0.00  0.00    +0.000 C 
BRANCH  11  12
ATOM     12  C   UNL     1       8.200   6.781  18.661  0.00  0.00    +0.000 C 
BRANCH  12  13
ATOM     13  C   UNL     1       7.368   7.564  17.661  0.00  0.00    +0.000 C 
BRANCH  13  14
ATOM     14  C   UNL     1       7.974   8.939  17.416  0.00  0.00    +0.000 C 
BRANCH  14  15
ATOM     15  C   UNL     1       8.687   9.415  18.672  0.00  0.00    +0.000 C 
BRANCH  15  16
ATOM     16  C   UNL     1       9.239  10.827  18.491  0.00  0.00    +0.000 C 
BRANCH  16  17
ATOM     17  N   UNL     1      10.211  11.195  19.534  0.00  0.00    +0.000 NA
ATOM     18  C   UNL     1      11.531  11.496  18.980  0.00  0.00    +0.000 C 
ATOM     19  C   UNL     1       9.709  12.352  20.283  0.00  0.00    +0.000 C 
ENDBRANCH  16  17
ENDBRANCH  15  16
ENDBRANCH  14  15
ENDBRANCH  13  14
ENDBRANCH  12  13
ENDBRANCH  11  12
ENDBRANCH   1  11
TORSDOF 15
ENDMDL
MODEL 2
REMARK VINA RESULT:      -5.1      1.438      2.380
REMARK  Name = 
REMARK  18 active torsions:
REMARK  status: ('A' for Active; 'I' for Inactive)
REMARK    1  A    between atoms: C_1  and  C_2
REMARK    2  A    between atoms: C_2  and  C_3
REMARK    3  A    between atoms: C_3  and  C_4
REMARK    4  A    between atoms: C_4  and  C_5
REMARK    5  A    between atoms: C_5  and  C_6
REMARK    6  A    between atoms: C_6  and  C_7
REMARK    7  A    between atoms: C_7  and  C_8
REMARK    8  A    between atoms: C_8  and  C_9
REMARK    9  A    between atoms: C_9  and  C_10
REMARK   10  A    between atoms: C_10  and  C_11
REMARK   11  A    between atoms: C_11  and  C_12
REMARK   12  A    between atoms: C_12  and  C_13
REMARK   13  A    between atoms: C_13  and  C_14
REMARK   14  A    between atoms: C_14  and  C_15
REMARK   15  A    between atoms: C_15  and  C_16
REMARK   16  A    between atoms: C_16  and  N_17
REMARK   17  A    between atoms: N_17  and  C_18
REMARK   18  A    between atoms: N_17  and  C_19
REMARK                            x       y       z     vdW  Elec       q    Type
REMARK                         _______ _______ _______ _____ _____    ______ ____
ROOT
ATOM      1  C   UNL     1       6.428   6.360  17.905  0.00  0.00    +0.000 C 
ENDROOT
BRANCH   1   2
ATOM      2  C   UNL     1       6.315   5.040  18.650  0.00  0.00    +0.000 C 
BRANCH   2   3
ATOM      3  C   UNL     1       4.883   4.824  19.111  0.00  0.00    +0.000 C 
BRANCH   3   4
ATOM      4  C   UNL     1       3.922   5.020  17.951  0.00  0.00    +0.000 C 
BRANCH   4   5
ATOM      5  C   UNL     1       3.841   3.749  17.119  0.00  0.00    +0.000 C 
BRANCH   5   6
ATOM      6  C   UNL     1       2.850   2.774  17.738  0.00  0.00    +0.000 C 
BRANCH   6   7
ATOM      7  C   UNL     1       1.536   3.476  18.049  0.00  0.00    +0.000 C 
BRANCH   7   8
ATOM      8  C   UNL     1       0.870   2.844  19.264  0.00  0.00    +0.000 C 
BRANCH   8  10
ATOM      9  C   UNL     1       2.043   3.102  21.464  0.00  0.00    +0.000 C 
ATOM     10  C   UNL     1       1.047   3.720  20.500  0.00  0.00    +0.000 C 
ENDBRANCH   8  10
ENDBRANCH   7   8
ENDBRANCH   6   7
ENDBRANCH   5   6
ENDBRANCH   4   5
ENDBRANCH   3   4
ENDBRANCH   2   3
ENDBRANCH   1   2
BRANCH   1  11
ATOM     11  C   UNL     1       7.720   7.063  18.283  0.00  0.00    +0.000 C 
BRANCH  11  12
ATOM     12  C   UNL     1       8.012   8.178  17.290  0.00  0.00    +0.000 C 
BRANCH  12  13
ATOM     13  C   UNL     1       8.002   9.521  17.999  0.00  0.00    +0.000 C 
BRANCH  13  14
ATOM     14  C   UNL     1       9.099   9.581  19.052  0.00  0.00    +0.000 C 
BRANCH  14  15
ATOM     15  C   UNL     1       9.881  10.876  18.902  0.00  0.00    +0.000 C 
BRANCH  15  16
ATOM     16  C   UNL     1       9.064  11.932  18.161  0.00  0.00    +0.000 C 
BRANCH  16  17
ATOM     17  N   UNL     1       9.908  12.913  17.457  0.00  0.00    +0.000 NA
ATOM     18  C   UNL     1       9.771  14.259  18.014  0.00  0.00    +0.000 C 
ATOM     19  C   UNL     1      11.310  12.488  17.521  0.00  0.00    +0.000 C 
ENDBRANCH  16  17
ENDBRANCH  15  16
ENDBRANCH  14  15
ENDBRANCH  13  14
ENDBRANCH  12  13
ENDBRANCH  11  12
ENDBRANCH   1  11
TORSDOF 15
ENDMDL
MODEL 3
REMARK VINA RESULT:      -4.9      3.856      5.874
REMARK  Name = 
REMARK  18 active torsions:
REMARK  status: ('A' for Active; 'I' for Inactive)
REMARK    1  A    between atoms: C_1  and  C_2
REMARK    2  A    between atoms: C_2  and  C_3
REMARK    3  A    between atoms: C_3  and  C_4
REMARK    4  A    between atoms: C_4  and  C_5
REMARK    5  A    between atoms: C_5  and  C_6
REMARK    6  A    between atoms: C_6  and  C_7
REMARK    7  A    between atoms: C_7  and  C_8
REMARK    8  A    between atoms: C_8  and  C_9
REMARK    9  A    between atoms: C_9  and  C_10
REMARK   10  A    between atoms: C_10  and  C_11
REMARK   11  A    between atoms: C_11  and  C_12
REMARK   12  A    between atoms: C_12  and  C_13
REMARK   13  A    between atoms: C_13  and  C_14
REMARK   14  A    between atoms: C_14  and  C_15
REMARK   15  A    between atoms: C_15  and  C_16
REMARK   16  A    between atoms: C_16  and  N_17
REMARK   17  A    between atoms: N_17  and  C_18
REMARK   18  A    between atoms: N_17  and  C_19
REMARK                            x       y       z     vdW  Elec       q    Type
REMARK                         _______ _______ _______ _____ _____    ______ ____
ROOT
ATOM      1  C   UNL     1       1.917   1.893  19.253  0.00  0.00    +0.000 C 
ENDROOT
BRANCH   1   2
ATOM      2  C   UNL     1       0.836   2.948  19.090  0.00  0.00    +0.000 C 
BRANCH   2   3
ATOM      3  C   UNL     1       0.800   3.850  20.313  0.00  0.00    +0.000 C 
BRANCH   3   4
ATOM      4  C   UNL     1       2.212   4.189  20.757  0.00  0.00    +0.000 C 
BRANCH   4   5
ATOM      5  C   UNL     1       2.355   5.692  20.946  0.00  0.00    +0.000 C 
BRANCH   5   6
ATOM      6  C   UNL     1       1.706   6.434  19.787  0.00  0.00    +0.000 C 
BRANCH   6   7
ATOM      7  C   UNL     1       2.761   7.152  18.957  0.00  0.00    +0.000 C 
BRANCH   7   8
ATOM      8  C   UNL     1       2.101   8.025  17.897  0.00  0.00    +0.000 C 
BRANCH   8  10
ATOM      9  C   UNL     1       0.278   9.742  17.991  0.00  0.00    +0.000 C 
ATOM     10  C   UNL     1       1.660   9.360  18.487  0.00  0.00    +0.000 C 
ENDBRANCH   8  10
ENDBRANCH   7   8
ENDBRANCH   6   7
ENDBRANCH   5   6
ENDBRANCH   4   5
ENDBRANCH   3   4
ENDBRANCH   2   3
ENDBRANCH   1   2
BRANCH   1  11
ATOM     11  C   UNL     1       2.921   1.995  18.119  0.00  0.00    +0.000 C 
BRANCH  11  12
ATOM     12  C   UNL     1       2.550   3.148  17.200  0.00  0.00    +0.000 C 
BRANCH  12  13
ATOM     13  C   UNL     1       3.679   4.163  17.159  0.00  0.00    +0.000 C 
BRANCH  13  14
ATOM     14  C   UNL     1       4.712   3.863  18.236  0.00  0.00    +0.000 C 
BRANCH  14  15
ATOM     15  C   UNL     1       5.526   5.113  18.527  0.00  0.00    +0.000 C 
BRANCH  15  16
ATOM     16  C   UNL     1       5.929   5.821  17.235  0.00  0.00    +0.000 C 
BRANCH  16  17
ATOM     17  N   UNL     1       7.231   5.366  16.720  0.00  0.00    +0.000 NA
ATOM     18  C   UNL     1       7.926   4.493  17.667  0.00  0.00    +0.000 C 
ATOM     19  C   UNL     1       7.036   4.664  15.448  0.00  0.00    +0.000 C 
ENDBRANCH  16  17
ENDBRANCH  15  16
ENDBRANCH  14  15
ENDBRANCH  13  14
ENDBRANCH  12  13
ENDBRANCH  11  12
ENDBRANCH   1  11
TORSDOF 15
ENDMDL
MODEL 4
REMARK VINA RESULT:      -4.9      3.264      6.607
REMARK  Name = 
REMARK  18 active torsions:
REMARK  status: ('A' for Active; 'I' for Inactive)
REMARK    1  A    between atoms: C_1  and  C_2
REMARK    2  A    between atoms: C_2  and  C_3
REMARK    3  A    between atoms: C_3  and  C_4
REMARK    4  A    between atoms: C_4  and  C_5
REMARK    5  A    between atoms: C_5  and  C_6
REMARK    6  A    between atoms: C_6  and  C_7
REMARK    7  A    between atoms: C_7  and  C_8
REMARK    8  A    between atoms: C_8  and  C_9
REMARK    9  A    between atoms: C_9  and  C_10
REMARK   10  A    between atoms: C_10  and  C_11
REMARK   11  A    between atoms: C_11  and  C_12
REMARK   12  A    between atoms: C_12  and  C_13
REMARK   13  A    between atoms: C_13  and  C_14
REMARK   14  A    between atoms: C_14  and  C_15
REMARK   15  A    between atoms: C_15  and  C_16
REMARK   16  A    between atoms: C_16  and  N_17
REMARK   17  A    between atoms: N_17  and  C_18
REMARK   18  A    between atoms: N_17  and  C_19
REMARK                            x       y       z     vdW  Elec       q    Type
REMARK                         _______ _______ _______ _____ _____    ______ ____
ROOT
ATOM      1  C   UNL     1       0.960   3.815  20.313  0.00  0.00    +0.000 C 
ENDROOT
BRANCH   1   2
ATOM      2  C   UNL     1       0.886   3.535  18.822  0.00  0.00    +0.000 C 
BRANCH   2   3
ATOM      3  C   UNL     1       1.415   2.141  18.526  0.00  0.00    +0.000 C 
BRANCH   3   4
ATOM      4  C   UNL     1       2.602   2.219  17.582  0.00  0.00    +0.000 C 
BRANCH   4   5
ATOM      5  C   UNL     1       3.856   2.611  18.349  0.00  0.00    +0.000 C 
BRANCH   5   6
ATOM      6  C   UNL     1       4.564   3.764  17.650  0.00  0.00    +0.000 C 
BRANCH   6   7
ATOM      7  C   UNL     1       5.611   4.379  18.567  0.00  0.00    +0.000 C 
BRANCH   7   8
ATOM      8  C   UNL     1       5.813   5.851  18.231  0.00  0.00    +0.000 C 
BRANCH   8  10
ATOM      9  C   UNL     1       7.500   7.521  17.428  0.00  0.00    +0.000 C 
ATOM     10  C   UNL     1       7.100   6.058  17.439  0.00  0.00    +0.000 C 
ENDBRANCH   8  10
ENDBRANCH   7   8
ENDBRANCH   6   7
ENDBRANCH   5   6
ENDBRANCH   4   5
ENDBRANCH   3   4
ENDBRANCH   2   3
ENDBRANCH   1   2
BRANCH   1  11
ATOM     11  C   UNL     1       1.666   5.136  20.563  0.00  0.00    +0.000 C 
BRANCH  11  12
ATOM     12  C   UNL     1       2.015   5.796  19.238  0.00  0.00    +0.000 C 
BRANCH  12  13
ATOM     13  C   UNL     1       2.543   7.199  19.479  0.00  0.00    +0.000 C 
BRANCH  13  14
ATOM     14  C   UNL     1       2.775   7.921  18.160  0.00  0.00    +0.000 C 
BRANCH  14  15
ATOM     15  C   UNL     1       1.513   8.666  17.755  0.00  0.00    +0.000 C 
BRANCH  15  16
ATOM     16  C   UNL     1       1.642  10.162  18.031  0.00  0.00    +0.000 C 
BRANCH  16  17
ATOM     17  N   UNL     1       1.059  10.553  19.325  0.00  0.00    +0.000 NA
ATOM     18  C   UNL     1       1.312  11.959  19.644  0.00  0.00    +0.000 C 
ATOM     19  C   UNL     1      -0.385  10.299  19.308  0.00  0.00    +0.000 C 
ENDBRANCH  16  17
ENDBRANCH  15  16
ENDBRANCH  14  15
ENDBRANCH  13  14
ENDBRANCH  12  13
ENDBRANCH  11  12
ENDBRANCH   1  11
TORSDOF 15
ENDMDL
MODEL 5
REMARK VINA RESULT:      -4.9      4.842      6.514
REMARK  Name = 
REMARK  18 active torsions:
REMARK  status: ('A' for Active; 'I' for Inactive)
REMARK    1  A    between atoms: C_1  and  C_2
REMARK    2  A    between atoms: C_2  and  C_3
REMARK    3  A    between atoms: C_3  and  C_4
REMARK    4  A    between atoms: C_4  and  C_5
REMARK    5  A    between atoms: C_5  and  C_6
REMARK    6  A    between atoms: C_6  and  C_7
REMARK    7  A    between atoms: C_7  and  C_8
REMARK    8  A    between atoms: C_8  and  C_9
REMARK    9  A    between atoms: C_9  and  C_10
REMARK   10  A    between atoms: C_10  and  C_11
REMARK   11  A    between atoms: C_11  and  C_12
REMARK   12  A    between atoms: C_12  and  C_13
REMARK   13  A    between atoms: C_13  and  C_14
REMARK   14  A    between atoms: C_14  and  C_15
REMARK   15  A    between atoms: C_15  and  C_16
REMARK   16  A    between atoms: C_16  and  N_17
REMARK   17  A    between atoms: N_17  and  C_18
REMARK   18  A    between atoms: N_17  and  C_19
REMARK                            x       y       z     vdW  Elec       q    Type
REMARK                         _______ _______ _______ _____ _____    ______ ____
ROOT
ATOM      1  C   UNL     1       4.409   6.037  17.938  0.00  0.00    +0.000 C 
ENDROOT
BRANCH   1   2
ATOM      2  C   UNL     1       4.509   5.212  16.667  0.00  0.00    +0.000 C 
BRANCH   2   3
ATOM      3  C   UNL     1       4.963   3.799  16.998  0.00  0.00    +0.000 C 
BRANCH   3   4
ATOM      4  C   UNL     1       4.135   3.236  18.140  0.00  0.00    +0.000 C 
BRANCH   4   5
ATOM      5  C   UNL     1       3.146   2.208  17.612  0.00  0.00    +0.000 C 
BRANCH   5   6
ATOM      6  C   UNL     1       1.825   2.312  18.360  0.00  0.00    +0.000 C 
BRANCH   6   7
ATOM      7  C   UNL     1       1.438   3.770  18.558  0.00  0.00    +0.000 C 
BRANCH   7   8
ATOM      8  C   UNL     1       0.801   3.971  19.927  0.00  0.00    +0.000 C 
BRANCH   8  10
ATOM      9  C   UNL     1       2.346   3.420  21.821  0.00  0.00    +0.000 C 
ATOM     10  C   UNL     1       1.258   2.894  20.905  0.00  0.00    +0.000 C 
ENDBRANCH   8  10
ENDBRANCH   7   8
ENDBRANCH   6   7
ENDBRANCH   5   6
ENDBRANCH   4   5
ENDBRANCH   3   4
ENDBRANCH   2   3
ENDBRANCH   1   2
BRANCH   1  11
ATOM     11  C   UNL     1       3.120   6.839  17.941  0.00  0.00    +0.000 C 
BRANCH  11  12
ATOM     12  C   UNL     1       2.674   7.098  19.372  0.00  0.00    +0.000 C 
BRANCH  12  13
ATOM     13  C   UNL     1       1.734   8.290  19.415  0.00  0.00    +0.000 C 
BRANCH  13  14
ATOM     14  C   UNL     1       1.907   9.157  18.176  0.00  0.00    +0.000 C 
BRANCH  14  15
ATOM     15  C   UNL     1       0.944  10.332  18.234  0.00  0.00    +0.000 C 
BRANCH  15  16
ATOM     16  C   UNL     1      -0.153  10.095  19.270  0.00  0.00    +0.000 C 
BRANCH  16  17
ATOM     17  N   UNL     1      -1.480  10.530  18.802  0.00  0.00    +0.000 NA
ATOM     18  C   UNL     1      -1.630  11.985  18.841  0.00  0.00    +0.000 C 
ATOM     19  C   UNL     1      -1.701  10.043  17.437  0.00  0.00    +0.000 C 
ENDBRANCH  16  17
ENDBRANCH  15  16
ENDBRANCH  14  15
ENDBRANCH  13  14
ENDBRANCH  12  13
ENDBRANCH  11  12
ENDBRANCH   1  11
TORSDOF 15
ENDMDL
MODEL 6
REMARK VINA RESULT:      -4.9      1.468      2.230
REMARK  Name = 
REMARK  18 active torsions:
REMARK  status: ('A' for Active; 'I' for Inactive)
REMARK    1  A    between atoms: C_1  and  C_2
REMARK    2  A    between atoms: C_2  and  C_3
REMARK    3  A    between atoms: C_3  and  C_4
REMARK    4  A    between atoms: C_4  and  C_5
REMARK    5  A    between atoms: C_5  and  C_6
REMARK    6  A    between atoms: C_6  and  C_7
REMARK    7  A    between atoms: C_7  and  C_8
REMARK    8  A    between atoms: C_8  and  C_9
REMARK    9  A    between atoms: C_9  and  C_10
REMARK   10  A    between atoms: C_10  and  C_11
REMARK   11  A    between atoms: C_11  and  C_12
REMARK   12  A    between atoms: C_12  and  C_13
REMARK   13  A    between atoms: C_13  and  C_14
REMARK   14  A    between atoms: C_14  and  C_15
REMARK   15  A    between atoms: C_15  and  C_16
REMARK   16  A    between atoms: C_16  and  N_17
REMARK   17  A    between atoms: N_17  and  C_18
REMARK   18  A    between atoms: N_17  and  C_19
REMARK                            x       y       z     vdW  Elec       q    Type
REMARK                         _______ _______ _______ _____ _____    ______ ____
ROOT
ATOM      1  C   UNL     1       6.101   6.498  16.333  0.00  0.00    +0.000 C 
ENDROOT
BRANCH   1   2
ATOM      2  C   UNL     1       5.589   5.110  16.677  0.00  0.00    +0.000 C 
BRANCH   2   3
ATOM      3  C   UNL     1       4.340   5.214  17.537  0.00  0.00    +0.000 C 
BRANCH   3   4
ATOM      4  C   UNL     1       4.171   3.957  18.373  0.00  0.00    +0.000 C 
BRANCH   4   5
ATOM      5  C   UNL     1       3.237   2.983  17.671  0.00  0.00    +0.000 C 
BRANCH   5   6
ATOM      6  C   UNL     1       1.796   3.457  17.785  0.00  0.00    +0.000 C 
BRANCH   6   7
ATOM      7  C   UNL     1       0.982   2.489  18.631  0.00  0.00    +0.000 C 
BRANCH   7   8
ATOM      8  C   UNL     1       0.658   3.107  19.985  0.00  0.00    +0.000 C 
BRANCH   8  10
ATOM      9  C   UNL     1       2.390   3.718  21.690  0.00  0.00    +0.000 C 
ATOM     10  C   UNL     1       1.602   2.584  21.063  0.00  0.00    +0.000 C 
ENDBRANCH   8  10
ENDBRANCH   7   8
ENDBRANCH   6   7
ENDBRANCH   5   6
ENDBRANCH   4   5
ENDBRANCH   3   4
ENDBRANCH   2   3
ENDBRANCH   1   2
BRANCH   1  11
ATOM     11  C   UNL     1       6.506   7.234  17.597  0.00  0.00    +0.000 C 
BRANCH  11  12
ATOM     12  C   UNL     1       7.932   7.745  17.466  0.00  0.00    +0.000 C 
BRANCH  12  13
ATOM     13  C   UNL     1       8.005   9.200  17.894  0.00  0.00    +0.000 C 
BRANCH  13  14
ATOM     14  C   UNL     1       9.014   9.379  19.020  0.00  0.00    +0.000 C 
BRANCH  14  15
ATOM     15  C   UNL     1       9.389  10.848  19.142  0.00  0.00    +0.000 C 
BRANCH  15  16
ATOM     16  C   UNL     1      10.041  11.359  17.859  0.00  0.00    +0.000 C 
BRANCH  16  17
ATOM     17  N   UNL     1      11.472  11.661  18.031  0.00  0.00    +0.000 NA
ATOM     18  C   UNL     1      11.861  12.898  17.352  0.00  0.00    +0.000 C 
ATOM     19  C   UNL     1      11.783  11.759  19.460  0.00  0.00    +0.000 C 
ENDBRANCH  16  17
ENDBRANCH  15  16
ENDBRANCH  14  15
ENDBRANCH  13  14
ENDBRANCH  12  13
ENDBRANCH  11  12
ENDBRANCH   1  11
TORSDOF 15
ENDMDL
MODEL 7
REMARK VINA RESULT:      -4.9      4.030      6.681
REMARK  Name = 
REMARK  18 active torsions:
REMARK  status: ('A' for Active; 'I' for Inactive)
REMARK    1  A    between atoms: C_1  and  C_2
REMARK    2  A    between atoms: C_2  and  C_3
REMARK    3  A    between atoms: C_3  and  C_4
REMARK    4  A    between atoms: C_4  and  C_5
REMARK    5  A    between atoms: C_5  and  C_6
REMARK    6  A    between atoms: C_6  and  C_7
REMARK    7  A    between atoms: C_7  and  C_8
REMARK    8  A    between atoms: C_8  and  C_9
REMARK    9  A    between atoms: C_9  and  C_10
REMARK   10  A    between atoms: C_10  and  C_11
REMARK   11  A    between atoms: C_11  and  C_12
REMARK   12  A    between atoms: C_12  and  C_13
REMARK   13  A    between atoms: C_13  and  C_14
REMARK   14  A    between atoms: C_14  and  C_15
REMARK   15  A    between atoms: C_15  and  C_16
REMARK   16  A    between atoms: C_16  and  N_17
REMARK   17  A    between atoms: N_17  and  C_18
REMARK   18  A    between atoms: N_17  and  C_19
REMARK                            x       y       z     vdW  Elec       q    Type
REMARK                         _______ _______ _______ _____ _____    ______ ____
ROOT
ATOM      1  C   UNL     1       1.719   4.208  20.871  0.00  0.00    +0.000 C 
ENDROOT
BRANCH   1   2
ATOM      2  C   UNL     1       2.328   5.558  20.533  0.00  0.00    +0.000 C 
BRANCH   2   3
ATOM      3  C   UNL     1       1.872   6.005  19.153  0.00  0.00    +0.000 C 
BRANCH   3   4
ATOM      4  C   UNL     1       3.065   6.449  18.324  0.00  0.00    +0.000 C 
BRANCH   4   5
ATOM      5  C   UNL     1       2.952   7.929  17.996  0.00  0.00    +0.000 C 
BRANCH   5   6
ATOM      6  C   UNL     1       1.491   8.353  17.959  0.00  0.00    +0.000 C 
BRANCH   6   7
ATOM      7  C   UNL     1       1.330   9.761  18.512  0.00  0.00    +0.000 C 
BRANCH   7   8
ATOM      8  C   UNL     1       0.231   9.797  19.566  0.00  0.00    +0.000 C 
BRANCH   8  10
ATOM      9  C   UNL     1       1.184   8.902  21.705  0.00  0.00    +0.000 C 
ATOM     10  C   UNL     1       0.799  10.152  20.936  0.00  0.00    +0.000 C 
ENDBRANCH   8  10
ENDBRANCH   7   8
ENDBRANCH   6   7
ENDBRANCH   5   6
ENDBRANCH   4   5
ENDBRANCH   3   4
ENDBRANCH   2   3
ENDBRANCH   1   2
BRANCH   1  11
ATOM     11  C   UNL     1       0.913   3.689  19.694  0.00  0.00    +0.000 C 
BRANCH  11  12
ATOM     12  C   UNL     1       1.358   2.278  19.343  0.00  0.00    +0.000 C 
BRANCH  12  13
ATOM     13  C   UNL     1       2.072   2.277  18.003  0.00  0.00    +0.000 C 
BRANCH  13  14
ATOM     14  C   UNL     1       3.581   2.224  18.197  0.00  0.00    +0.000 C 
BRANCH  14  15
ATOM     15  C   UNL     1       4.249   3.254  17.300  0.00  0.00    +0.000 C 
BRANCH  15  16
ATOM     16  C   UNL     1       5.327   4.027  18.055  0.00  0.00    +0.000 C 
BRANCH  16  17
ATOM     17  N   UNL     1       6.289   4.686  17.155  0.00  0.00    +0.000 NA
ATOM     18  C   UNL     1       7.658   4.629  17.671  0.00  0.00    +0.000 C 
ATOM     19  C   UNL     1       6.230   4.058  15.831  0.00  0.00    +0.000 C 
ENDBRANCH  16  17
ENDBRANCH  15  16
ENDBRANCH  14  15
ENDBRANCH  13  14
ENDBRANCH  12  13
ENDBRANCH  11  12
ENDBRANCH   1  11
TORSDOF 15
ENDMDL
MODEL 8
REMARK VINA RESULT:      -4.9      5.222      7.139
REMARK  Name = 
REMARK  18 active torsions:
REMARK  status: ('A' for Active; 'I' for Inactive)
REMARK    1  A    between atoms: C_1  and  C_2
REMARK    2  A    between atoms: C_2  and  C_3
REMARK    3  A    between atoms: C_3  and  C_4
REMARK    4  A    between atoms: C_4  and  C_5
REMARK    5  A    between atoms: C_5  and  C_6
REMARK    6  A    between atoms: C_6  and  C_7
REMARK    7  A    between atoms: C_7  and  C_8
REMARK    8  A    between atoms: C_8  and  C_9
REMARK    9  A    between atoms: C_9  and  C_10
REMARK   10  A    between atoms: C_10  and  C_11
REMARK   11  A    between atoms: C_11  and  C_12
REMARK   12  A    between atoms: C_12  and  C_13
REMARK   13  A    between atoms: C_13  and  C_14
REMARK   14  A    between atoms: C_14  and  C_15
REMARK   15  A    between atoms: C_15  and  C_16
REMARK   16  A    between atoms: C_16  and  N_17
REMARK   17  A    between atoms: N_17  and  C_18
REMARK   18  A    between atoms: N_17  and  C_19
REMARK                            x       y       z     vdW  Elec       q    Type
REMARK                         _______ _______ _______ _____ _____    ______ ____
ROOT
ATOM      1  C   UNL     1       2.271   7.225  18.868  0.00  0.00    +0.000 C 
ENDROOT
BRANCH   1   2
ATOM      2  C   UNL     1       3.431   6.247  18.801  0.00  0.00    +0.000 C 
BRANCH   2   3
ATOM      3  C   UNL     1       3.378   5.294  19.984  0.00  0.00    +0.000 C 
BRANCH   3   4
ATOM      4  C   UNL     1       1.998   5.322  20.619  0.00  0.00    +0.000 C 
BRANCH   4   5
ATOM      5  C   UNL     1       1.480   3.904  20.808  0.00  0.00    +0.000 C 
BRANCH   5   6
ATOM      6  C   UNL     1       0.657   3.477  19.601  0.00  0.00    +0.000 C 
BRANCH   6   7
ATOM      7  C   UNL     1       1.325   2.311  18.887  0.00  0.00    +0.000 C 
BRANCH   7   8
ATOM      8  C   UNL     1       2.092   2.804  17.666  0.00  0.00    +0.000 C 
BRANCH   8  10
ATOM      9  C   UNL     1       3.831   1.550  18.964  0.00  0.00    +0.000 C 
ATOM     10  C   UNL     1       3.573   2.458  17.776  0.00  0.00    +0.000 C 
ENDBRANCH   8  10
ENDBRANCH   7   8
ENDBRANCH   6   7
ENDBRANCH   5   6
ENDBRANCH   4   5
ENDBRANCH   3   4
ENDBRANCH   2   3
ENDBRANCH   1   2
BRANCH   1  11
ATOM     11  C   UNL     1       2.378   8.241  17.745  0.00  0.00    +0.000 C 
BRANCH  11  12
ATOM     12  C   UNL     1       1.323   9.323  17.923  0.00  0.00    +0.000 C 
BRANCH  12  13
ATOM     13  C   UNL     1       1.202   9.694  19.390  0.00  0.00    +0.000 C 
BRANCH  13  14
ATOM     14  C   UNL     1       0.530  11.051  19.548  0.00  0.00    +0.000 C 
BRANCH  14  15
ATOM     15  C   UNL     1      -0.553  10.965  20.612  0.00  0.00    +0.000 C 
BRANCH  15  16
ATOM     16  C   UNL     1      -0.285  11.947  21.751  0.00  0.00    +0.000 C 
BRANCH  16  17
ATOM     17  N   UNL     1      -0.773  11.455  23.050  0.00  0.00    +0.000 NA
ATOM     18  C   UNL     1      -2.174  11.806  23.284  0.00  0.00    +0.000 C 
ATOM     19  C   UNL     1      -0.606  10.000  23.117  0.00  0.00    +0.000 C 
ENDBRANCH  16  17
ENDBRANCH  15  16
ENDBRANCH  14  15
ENDBRANCH  13  14
ENDBRANCH  12  13
ENDBRANCH  11  12
ENDBRANCH   1  11
TORSDOF 15
ENDMDL
MODEL 9
REMARK VINA RESULT:      -4.9      3.001      8.950
REMARK  Name = 
REMARK  18 active torsions:
REMARK  status: ('A' for Active; 'I' for Inactive)
REMARK    1  A    between atoms: C_1  and  C_2
REMARK    2  A    between atoms: C_2  and  C_3
REMARK    3  A    between atoms: C_3  and  C_4
REMARK    4  A    between atoms: C_4  and  C_5
REMARK    5  A    between atoms: C_5  and  C_6
REMARK    6  A    between atoms: C_6  and  C_7
REMARK    7  A    between atoms: C_7  and  C_8
REMARK    8  A    between atoms: C_8  and  C_9
REMARK    9  A    between atoms: C_9  and  C_10
REMARK   10  A    between atoms: C_10  and  C_11
REMARK   11  A    between atoms: C_11  and  C_12
REMARK   12  A    between atoms: C_12  and  C_13
REMARK   13  A    between atoms: C_13  and  C_14
REMARK   14  A    between atoms: C_14  and  C_15
REMARK   15  A    between atoms: C_15  and  C_16
REMARK   16  A    between atoms: C_16  and  N_17
REMARK   17  A    between atoms: N_17  and  C_18
REMARK   18  A    between atoms: N_17  and  C_19
REMARK                            x       y       z     vdW  Elec       q    Type
REMARK                         _______ _______ _______ _____ _____    ______ ____
ROOT
ATOM      1  C   UNL     1       6.508   5.048  17.650  0.00  0.00    +0.000 C 
ENDROOT
BRANCH   1   2
ATOM      2  C   UNL     1       6.470   6.216  16.680  0.00  0.00    +0.000 C 
BRANCH   2   3
ATOM      3  C   UNL     1       6.573   7.528  17.440  0.00  0.00    +0.000 C 
BRANCH   3   4
ATOM      4  C   UNL     1       7.975   7.705  17.996  0.00  0.00    +0.000 C 
BRANCH   4   5
ATOM      5  C   UNL     1       8.434   9.143  17.813  0.00  0.00    +0.000 C 
BRANCH   5   6
ATOM      6  C   UNL     1       8.898   9.723  19.142  0.00  0.00    +0.000 C 
BRANCH   6   7
ATOM      7  C   UNL     1       9.773  10.946  18.912  0.00  0.00    +0.000 C 
BRANCH   7   8
ATOM      8  C   UNL     1       9.044  11.969  18.050  0.00  0.00    +0.000 C 
BRANCH   8  10
ATOM      9  C   UNL     1      11.438  12.514  17.552  0.00  0.00    +0.000 C 
ATOM     10  C   UNL     1      10.009  13.023  17.519  0.00  0.00    +0.000 C 
ENDBRANCH   8  10
ENDBRANCH   7   8
ENDBRANCH   6   7
ENDBRANCH   5   6
ENDBRANCH   4   5
ENDBRANCH   3   4
ENDBRANCH   2   3
ENDBRANCH   1   2
BRANCH   1  11
ATOM     11  C   UNL     1       5.282   5.071  18.544  0.00  0.00    +0.000 C 
BRANCH  11  12
ATOM     12  C   UNL     1       4.020   5.028  17.696  0.00  0.00    +0.000 C 
BRANCH  12  13
ATOM     13  C   UNL     1       3.843   3.643  17.099  0.00  0.00    +0.000 C 
BRANCH  13  14
ATOM     14  C   UNL     1       2.371   3.258  17.062  0.00  0.00    +0.000 C 
BRANCH  14  15
ATOM     15  C   UNL     1       1.629   3.959  18.188  0.00  0.00    +0.000 C 
BRANCH  15  16
ATOM     16  C   UNL     1       1.246   2.976  19.292  0.00  0.00    +0.000 C 
BRANCH  16  17
ATOM     17  N   UNL     1       1.040   3.634  20.593  0.00  0.00    +0.000 NA
ATOM     18  C   UNL     1       1.400   2.766  21.715  0.00  0.00    +0.000 C 
ATOM     19  C   UNL     1       1.830   4.869  20.647  0.00  0.00    +0.000 C 
ENDBRANCH  16  17
ENDBRANCH  15  16
ENDBRANCH  14  15
ENDBRANCH  13  14
ENDBRANCH  12  13
ENDBRANCH  11  12
ENDBRANCH   1  11
TORSDOF 15
ENDMDL
