MODEL 1
REMARK VINA RESULT:      -7.3      0.000      0.000
REMARK  Name = 
REMARK  7 active torsions:
REMARK  status: ('A' for Active; 'I' for Inactive)
REMARK    1  A    between atoms: N_6  and  C1*_7
REMARK    2  A    between atoms: C4*_9  and  C5*_10
REMARK    3  A    between atoms: C5*_10  and  O5*_11
REMARK    4  A    between atoms: C3*_12  and  O3*_13
REMARK    5  A    between atoms: C2*_14  and  O2*_15
REMARK    6  A    between atoms: C_17  and  C_18
REMARK    7  A    between atoms: C_18  and  C_19
REMARK                            x       y       z     vdW  Elec       q    Type
REMARK                         _______ _______ _______ _____ _____    ______ ____
ROOT
ATOM      1  O   UNL     1       7.870   5.428  14.699  0.00  0.00    +0.000 OA
ATOM      2  C   UNL     1       7.237   5.194  15.720  0.00  0.00    +0.000 A 
ATOM      3  N   UNL     1       7.747   5.417  16.970  0.00  0.00    +0.000 N 
ATOM      4  C   UNL     1       7.123   5.155  18.165  0.00  0.00    +0.000 A 
ATOM      5  O   UNL     1       7.704   5.369  19.230  0.00  0.00    +0.000 OA
ATOM      6  N   UNL     1       5.831   4.654  18.067  0.00  0.00    +0.000 N 
ATOM      7  C   UNL     1       5.243   4.429  16.839  0.00  0.00    +0.000 A 
ATOM      8  C   UNL     1       5.856   4.662  15.674  0.00  0.00    +0.000 A 
ATOM      9  H   UNL     1       8.693   5.767  17.020  0.00  0.00    +0.000 HD
ENDROOT
BRANCH   6  10
ATOM     10  C1* UNL     1       5.141   4.312  19.316  0.00  0.00    +0.000 C 
ATOM     11  O4* UNL     1       4.867   2.890  19.346  0.00  0.00    +0.000 OA
ATOM     12  C4* UNL     1       3.437   2.698  19.422  0.00  0.00    +0.000 C 
ATOM     13  C3* UNL     1       2.792   4.010  19.006  0.00  0.00    +0.000 C 
ATOM     14  C2* UNL     1       3.790   5.027  19.540  0.00  0.00    +0.000 C 
BRANCH  13  15
ATOM     15  O3* UNL     1       1.477   4.148  19.529  0.00  0.00    +0.000 OA
ATOM     16  H3* UNL     1       1.518   4.607  20.388  0.00  0.00    +0.000 HD
ENDBRANCH  13  15
BRANCH  14  17
ATOM     17  O2* UNL     1       3.636   6.304  18.933  0.00  0.00    +0.000 OA
ATOM     18  H2* UNL     1       3.753   6.985  19.617  0.00  0.00    +0.000 HD
ENDBRANCH  14  17
BRANCH  12  19
ATOM     19  C5* UNL     1       3.026   1.533  18.520  0.00  0.00    +0.000 C 
BRANCH  19  20
ATOM     20  O5* UNL     1       1.970   1.936  17.650  0.00  0.00    +0.000 OA
ATOM     21  H5* UNL     1       1.871   1.225  16.988  0.00  0.00    +0.000 HD
ENDBRANCH  19  20
ENDBRANCH  12  19
ENDBRANCH   6  10
BRANCH   8  22
ATOM     22  C   UNL     1       5.195   4.416  14.344  0.00  0.00    +0.000 C 
BRANCH  22  23
ATOM     23  C   UNL     1       6.006   3.603  13.334  0.00  0.00    +0.000 C 
ATOM     24 CL   UNL     1       5.055   3.222  11.876  0.00  0.00    +0.000 Cl
ENDBRANCH  22  23
ENDBRANCH   8  22
TORSDOF 7
ENDMDL
MODEL 2
REMARK VINA RESULT:      -6.9      2.905      5.850
REMARK  Name = 
REMARK  7 active torsions:
REMARK  status: ('A' for Active; 'I' for Inactive)
REMARK    1  A    between atoms: N_6  and  C1*_7
REMARK    2  A    between atoms: C4*_9  and  C5*_10
REMARK    3  A    between atoms: C5*_10  and  O5*_11
REMARK    4  A    between atoms: C3*_12  and  O3*_13
REMARK    5  A    between atoms: C2*_14  and  O2*_15
REMARK    6  A    between atoms: C_17  and  C_18
REMARK    7  A    between atoms: C_18  and  C_19
REMARK                            x       y       z     vdW  Elec       q    Type
REMARK                         _______ _______ _______ _____ _____    ______ ____
ROOT
ATOM      1  O   UNL     1       1.160   5.221  20.690  0.00  0.00    +0.000 OA
ATOM      2  C   UNL     1       2.223   4.976  20.136  0.00  0.00    +0.000 A 
ATOM      3  N   UNL     1       2.769   3.721  20.112  0.00  0.00    +0.000 N 
ATOM      4  C   UNL     1       3.966   3.364  19.543  0.00  0.00    +0.000 A 
ATOM      5  O   UNL     1       4.368   2.202  19.618  0.00  0.00    +0.000 OA
ATOM      6  N   UNL     1       4.651   4.386  18.899  0.00  0.00    +0.000 N 
ATOM      7  C   UNL     1       4.148   5.671  18.861  0.00  0.00    +0.000 A 
ATOM      8  C   UNL     1       2.993   6.027  19.433  0.00  0.00    +0.000 A 
ATOM      9  H   UNL     1       2.263   2.995  20.599  0.00  0.00    +0.000 HD
ENDROOT
BRANCH   6  10
ATOM     10  C1* UNL     1       5.961   4.064  18.319  0.00  0.00    +0.000 C 
ATOM     11  O4* UNL     1       6.967   4.946  18.871  0.00  0.00    +0.000 OA
ATOM     12  C4* UNL     1       7.554   5.708  17.792  0.00  0.00    +0.000 C 
ATOM     13  C3* UNL     1       6.603   5.604  16.610  0.00  0.00    +0.000 C 
ATOM     14  C2* UNL     1       6.050   4.197  16.783  0.00  0.00    +0.000 C 
BRANCH  13  15
ATOM     15  O3* UNL     1       7.265   5.827  15.371  0.00  0.00    +0.000 OA
ATOM     16  H3* UNL     1       7.481   4.969  14.963  0.00  0.00    +0.000 HD
ENDBRANCH  13  15
BRANCH  14  17
ATOM     17  O2* UNL     1       4.847   3.997  16.053  0.00  0.00    +0.000 OA
ATOM     18  H2* UNL     1       4.450   4.866  15.870  0.00  0.00    +0.000 HD
ENDBRANCH  14  17
BRANCH  12  19
ATOM     19  C5* UNL     1       7.769   7.154  18.242  0.00  0.00    +0.000 C 
BRANCH  19  20
ATOM     20  O5* UNL     1       7.649   8.037  17.128  0.00  0.00    +0.000 OA
ATOM     21  H5* UNL     1       8.278   7.717  16.453  0.00  0.00    +0.000 HD
ENDBRANCH  19  20
ENDBRANCH  12  19
ENDBRANCH   6  10
BRANCH   8  22
ATOM     22  C   UNL     1       2.457   7.432  19.374  0.00  0.00    +0.000 C 
BRANCH  22  23
ATOM     23  C   UNL     1       2.476   8.098  17.997  0.00  0.00    +0.000 C 
ATOM     24 CL   UNL     1       1.173   9.302  17.827  0.00  0.00    +0.000 Cl
ENDBRANCH  22  23
ENDBRANCH   8  22
TORSDOF 7
ENDMDL
MODEL 3
REMARK VINA RESULT:      -6.8      1.191      1.350
REMARK  Name = 
REMARK  7 active torsions:
REMARK  status: ('A' for Active; 'I' for Inactive)
REMARK    1  A    between atoms: N_6  and  C1*_7
REMARK    2  A    between atoms: C4*_9  and  C5*_10
REMARK    3  A    between atoms: C5*_10  and  O5*_11
REMARK    4  A    between atoms: C3*_12  and  O3*_13
REMARK    5  A    between atoms: C2*_14  and  O2*_15
REMARK    6  A    between atoms: C_17  and  C_18
REMARK    7  A    between atoms: C_18  and  C_19
REMARK                            x       y       z     vdW  Elec       q    Type
REMARK                         _______ _______ _______ _____ _____    ______ ____
ROOT
ATOM      1  O   UNL     1       7.781   5.231  14.012  0.00  0.00    +0.000 OA
ATOM      2  C   UNL     1       7.183   4.891  15.024  0.00  0.00    +0.000 A 
ATOM      3  N   UNL     1       7.770   4.890  16.261  0.00  0.00    +0.000 N 
ATOM      4  C   UNL     1       7.187   4.497  17.440  0.00  0.00    +0.000 A 
ATOM      5  O   UNL     1       7.834   4.510  18.488  0.00  0.00    +0.000 OA
ATOM      6  N   UNL     1       5.858   4.104  17.348  0.00  0.00    +0.000 N 
ATOM      7  C   UNL     1       5.195   4.105  16.137  0.00  0.00    +0.000 A 
ATOM      8  C   UNL     1       5.766   4.466  14.984  0.00  0.00    +0.000 A 
ATOM      9  H   UNL     1       8.741   5.164  16.304  0.00  0.00    +0.000 HD
ENDROOT
BRANCH   6  10
ATOM     10  C1* UNL     1       5.205   3.627  18.573  0.00  0.00    +0.000 C 
ATOM     11  O4* UNL     1       3.937   3.013  18.241  0.00  0.00    +0.000 OA
ATOM     12  C4* UNL     1       2.883   3.748  18.903  0.00  0.00    +0.000 C 
ATOM     13  C3* UNL     1       3.468   5.092  19.309  0.00  0.00    +0.000 C 
ATOM     14  C2* UNL     1       4.908   4.716  19.627  0.00  0.00    +0.000 C 
BRANCH  13  15
ATOM     15  O3* UNL     1       2.760   5.676  20.395  0.00  0.00    +0.000 OA
ATOM     16  H3* UNL     1       2.004   6.184  20.050  0.00  0.00    +0.000 HD
ENDBRANCH  13  15
BRANCH  14  17
ATOM     17  O2* UNL     1       5.770   5.847  19.638  0.00  0.00    +0.000 OA
ATOM     18  H2* UNL     1       6.575   5.625  19.139  0.00  0.00    +0.000 HD
ENDBRANCH  14  17
BRANCH  12  19
ATOM     19  C5* UNL     1       1.687   3.893  17.960  0.00  0.00    +0.000 C 
BRANCH  19  20
ATOM     20  O5* UNL     1       1.978   3.282  16.704  0.00  0.00    +0.000 OA
ATOM     21  H5* UNL     1       1.756   3.941  16.018  0.00  0.00    +0.000 HD
ENDBRANCH  19  20
ENDBRANCH  12  19
ENDBRANCH   6  10
BRANCH   8  22
ATOM     22  C   UNL     1       5.023   4.466  13.675  0.00  0.00    +0.000 C 
BRANCH  22  23
ATOM     23  C   UNL     1       5.480   3.429  12.647  0.00  0.00    +0.000 C 
ATOM     24 CL   UNL     1       4.294   3.235  11.331  0.00  0.00    +0.000 Cl
ENDBRANCH  22  23
ENDBRANCH   8  22
TORSDOF 7
ENDMDL
MODEL 4
REMARK VINA RESULT:      -6.8      2.849      3.651
REMARK  Name = 
REMARK  7 active torsions:
REMARK  status: ('A' for Active; 'I' for Inactive)
REMARK    1  A    between atoms: N_6  and  C1*_7
REMARK    2  A    between atoms: C4*_9  and  C5*_10
REMARK    3  A    between atoms: C5*_10  and  O5*_11
REMARK    4  A    between atoms: C3*_12  and  O3*_13
REMARK    5  A    between atoms: C2*_14  and  O2*_15
REMARK    6  A    between atoms: C_17  and  C_18
REMARK    7  A    between atoms: C_18  and  C_19
REMARK                            x       y       z     vdW  Elec       q    Type
REMARK                         _______ _______ _______ _____ _____    ______ ____
ROOT
ATOM      1  O   UNL     1       6.069   7.366  16.204  0.00  0.00    +0.000 OA
ATOM      2  C   UNL     1       5.247   6.773  16.890  0.00  0.00    +0.000 A 
ATOM      3  N   UNL     1       4.086   7.358  17.317  0.00  0.00    +0.000 N 
ATOM      4  C   UNL     1       3.126   6.781  18.111  0.00  0.00    +0.000 A 
ATOM      5  O   UNL     1       2.136   7.426  18.458  0.00  0.00    +0.000 OA
ATOM      6  N   UNL     1       3.361   5.459  18.468  0.00  0.00    +0.000 N 
ATOM      7  C   UNL     1       4.498   4.798  18.052  0.00  0.00    +0.000 A 
ATOM      8  C   UNL     1       5.446   5.363  17.297  0.00  0.00    +0.000 A 
ATOM      9  H   UNL     1       3.941   8.324  17.059  0.00  0.00    +0.000 HD
ENDROOT
BRANCH   6  10
ATOM     10  C1* UNL     1       2.388   4.815  19.358  0.00  0.00    +0.000 C 
ATOM     11  O4* UNL     1       3.079   4.208  20.476  0.00  0.00    +0.000 OA
ATOM     12  C4* UNL     1       2.825   2.785  20.458  0.00  0.00    +0.000 C 
ATOM     13  C3* UNL     1       2.316   2.445  19.066  0.00  0.00    +0.000 C 
ATOM     14  C2* UNL     1       1.537   3.702  18.708  0.00  0.00    +0.000 C 
BRANCH  13  15
ATOM     15  O3* UNL     1       1.542   1.252  19.057  0.00  0.00    +0.000 OA
ATOM     16  H3* UNL     1       2.063   0.534  18.653  0.00  0.00    +0.000 HD
ENDBRANCH  13  15
BRANCH  14  17
ATOM     17  O2* UNL     1       1.304   3.812  17.310  0.00  0.00    +0.000 OA
ATOM     18  H2* UNL     1       1.839   4.548  16.965  0.00  0.00    +0.000 HD
ENDBRANCH  14  17
BRANCH  12  19
ATOM     19  C5* UNL     1       4.106   2.029  20.812  0.00  0.00    +0.000 C 
BRANCH  19  20
ATOM     20  O5* UNL     1       4.798   1.655  19.622  0.00  0.00    +0.000 OA
ATOM     21  H5* UNL     1       4.410   2.182  18.898  0.00  0.00    +0.000 HD
ENDBRANCH  19  20
ENDBRANCH  12  19
ENDBRANCH   6  10
BRANCH   8  22
ATOM     22  C   UNL     1       6.676   4.623  16.847  0.00  0.00    +0.000 C 
BRANCH  22  23
ATOM     23  C   UNL     1       7.820   4.549  17.860  0.00  0.00    +0.000 C 
ATOM     24 CL   UNL     1       7.889   6.004  18.887  0.00  0.00    +0.000 Cl
ENDBRANCH  22  23
ENDBRANCH   8  22
TORSDOF 7
ENDMDL
MODEL 5
REMARK VINA RESULT:      -6.8      3.192      4.699
REMARK  Name = 
REMARK  7 active torsions:
REMARK  status: ('A' for Active; 'I' for Inactive)
REMARK    1  A    between atoms: N_6  and  C1*_7
REMARK    2  A    between atoms: C4*_9  and  C5*_10
REMARK    3  A    between atoms: C5*_10  and  O5*_11
REMARK    4  A    between atoms: C3*_12  and  O3*_13
REMARK    5  A    between atoms: C2*_14  and  O2*_15
REMARK    6  A    between atoms: C_17  and  C_18
REMARK    7  A    between atoms: C_18  and  C_19
REMARK                            x       y       z     vdW  Elec       q    Type
REMARK                         _______ _______ _______ _____ _____    ______ ____
ROOT
ATOM      1  O   UNL     1       8.059   4.347  17.833  0.00  0.00    +0.000 OA
ATOM      2  C   UNL     1       6.877   4.638  17.963  0.00  0.00    +0.000 A 
ATOM      3  N   UNL     1       5.941   3.738  18.396  0.00  0.00    +0.000 N 
ATOM      4  C   UNL     1       4.595   3.967  18.541  0.00  0.00    +0.000 A 
ATOM      5  O   UNL     1       3.846   3.060  18.908  0.00  0.00    +0.000 OA
ATOM      6  N   UNL     1       4.174   5.259  18.254  0.00  0.00    +0.000 N 
ATOM      7  C   UNL     1       5.067   6.226  17.838  0.00  0.00    +0.000 A 
ATOM      8  C   UNL     1       6.375   6.000  17.674  0.00  0.00    +0.000 A 
ATOM      9  H   UNL     1       6.265   2.800  18.585  0.00  0.00    +0.000 HD
ENDROOT
BRANCH   6  10
ATOM     10  C1* UNL     1       2.736   5.540  18.346  0.00  0.00    +0.000 C 
ATOM     11  O4* UNL     1       2.411   6.686  17.524  0.00  0.00    +0.000 OA
ATOM     12  C4* UNL     1       1.870   7.723  18.373  0.00  0.00    +0.000 C 
ATOM     13  C3* UNL     1       2.258   7.372  19.801  0.00  0.00    +0.000 C 
ATOM     14  C2* UNL     1       2.217   5.852  19.767  0.00  0.00    +0.000 C 
BRANCH  13  15
ATOM     15  O3* UNL     1       1.381   7.962  20.752  0.00  0.00    +0.000 OA
ATOM     16  H3* UNL     1       1.006   8.781  20.380  0.00  0.00    +0.000 HD
ENDBRANCH  13  15
BRANCH  14  17
ATOM     17  O2* UNL     1       2.929   5.269  20.850  0.00  0.00    +0.000 OA
ATOM     18  H2* UNL     1       3.657   5.865  21.097  0.00  0.00    +0.000 HD
ENDBRANCH  14  17
BRANCH  12  19
ATOM     19  C5* UNL     1       2.416   9.083  17.936  0.00  0.00    +0.000 C 
BRANCH  19  20
ATOM     20  O5* UNL     1       1.340   9.983  17.680  0.00  0.00    +0.000 OA
ATOM     21  H5* UNL     1       0.988   9.751  16.799  0.00  0.00    +0.000 HD
ENDBRANCH  19  20
ENDBRANCH  12  19
ENDBRANCH   6  10
BRANCH   8  22
ATOM     22  C   UNL     1       7.334   7.070  17.226  0.00  0.00    +0.000 C 
BRANCH  22  23
ATOM     23  C   UNL     1       8.182   7.711  18.325  0.00  0.00    +0.000 C 
ATOM     24 CL   UNL     1       8.365   9.467  18.081  0.00  0.00    +0.000 Cl
ENDBRANCH  22  23
ENDBRANCH   8  22
TORSDOF 7
ENDMDL
MODEL 6
REMARK VINA RESULT:      -6.8      2.049      2.656
REMARK  Name = 
REMARK  7 active torsions:
REMARK  status: ('A' for Active; 'I' for Inactive)
REMARK    1  A    between atoms: N_6  and  C1*_7
REMARK    2  A    between atoms: C4*_9  and  C5*_10
REMARK    3  A    between atoms: C5*_10  and  O5*_11
REMARK    4  A    between atoms: C3*_12  and  O3*_13
REMARK    5  A    between atoms: C2*_14  and  O2*_15
REMARK    6  A    between atoms: C_17  and  C_18
REMARK    7  A    between atoms: C_18  and  C_19
REMARK                            x       y       z     vdW  Elec       q    Type
REMARK                         _______ _______ _______ _____ _____    ______ ____
ROOT
ATOM      1  O   UNL     1       5.839   6.996  15.210  0.00  0.00    +0.000 OA
ATOM      2  C   UNL     1       5.155   6.453  16.069  0.00  0.00    +0.000 A 
ATOM      3  N   UNL     1       4.274   7.144  16.854  0.00  0.00    +0.000 N 
ATOM      4  C   UNL     1       3.494   6.623  17.857  0.00  0.00    +0.000 A 
ATOM      5  O   UNL     1       2.761   7.359  18.520  0.00  0.00    +0.000 OA
ATOM      6  N   UNL     1       3.598   5.251  18.045  0.00  0.00    +0.000 N 
ATOM      7  C   UNL     1       4.448   4.486  17.271  0.00  0.00    +0.000 A 
ATOM      8  C   UNL     1       5.225   4.993  16.308  0.00  0.00    +0.000 A 
ATOM      9  H   UNL     1       4.224   8.142  16.712  0.00  0.00    +0.000 HD
ENDROOT
BRANCH   6  10
ATOM     10  C1* UNL     1       2.821   4.655  19.139  0.00  0.00    +0.000 C 
ATOM     11  O4* UNL     1       3.688   3.835  19.959  0.00  0.00    +0.000 OA
ATOM     12  C4* UNL     1       3.203   2.474  19.923  0.00  0.00    +0.000 C 
ATOM     13  C3* UNL     1       2.272   2.368  18.725  0.00  0.00    +0.000 C 
ATOM     14  C2* UNL     1       1.647   3.755  18.697  0.00  0.00    +0.000 C 
BRANCH  13  15
ATOM     15  O3* UNL     1       1.338   1.305  18.868  0.00  0.00    +0.000 OA
ATOM     16  H3* UNL     1       0.842   1.422  19.698  0.00  0.00    +0.000 HD
ENDBRANCH  13  15
BRANCH  14  17
ATOM     17  O2* UNL     1       1.051   4.052  17.441  0.00  0.00    +0.000 OA
ATOM     18  H2* UNL     1       0.646   3.240  17.092  0.00  0.00    +0.000 HD
ENDBRANCH  14  17
BRANCH  12  19
ATOM     19  C5* UNL     1       4.386   1.509  19.832  0.00  0.00    +0.000 C 
BRANCH  19  20
ATOM     20  O5* UNL     1       4.304   0.748  18.629  0.00  0.00    +0.000 OA
ATOM     21  H5* UNL     1       4.901   1.179  17.987  0.00  0.00    +0.000 HD
ENDBRANCH  19  20
ENDBRANCH  12  19
ENDBRANCH   6  10
BRANCH   8  22
ATOM     22  C   UNL     1       6.140   4.142  15.471  0.00  0.00    +0.000 C 
BRANCH  22  23
ATOM     23  C   UNL     1       5.728   3.954  14.010  0.00  0.00    +0.000 C 
ATOM     24 CL   UNL     1       7.016   4.463  12.888  0.00  0.00    +0.000 Cl
ENDBRANCH  22  23
ENDBRANCH   8  22
TORSDOF 7
ENDMDL
MODEL 7
REMARK VINA RESULT:      -6.7      2.823      5.766
REMARK  Name = 
REMARK  7 active torsions:
REMARK  status: ('A' for Active; 'I' for Inactive)
REMARK    1  A    between atoms: N_6  and  C1*_7
REMARK    2  A    between atoms: C4*_9  and  C5*_10
REMARK    3  A    between atoms: C5*_10  and  O5*_11
REMARK    4  A    between atoms: C3*_12  and  O3*_13
REMARK    5  A    between atoms: C2*_14  and  O2*_15
REMARK    6  A    between atoms: C_17  and  C_18
REMARK    7  A    between atoms: C_18  and  C_19
REMARK                            x       y       z     vdW  Elec       q    Type
REMARK                         _______ _______ _______ _____ _____    ______ ____
ROOT
ATOM      1  O   UNL     1       0.916   4.922  20.410  0.00  0.00    +0.000 OA
ATOM      2  C   UNL     1       1.958   4.684  19.813  0.00  0.00    +0.000 A 
ATOM      3  N   UNL     1       2.430   3.412  19.636  0.00  0.00    +0.000 N 
ATOM      4  C   UNL     1       3.599   3.055  19.009  0.00  0.00    +0.000 A 
ATOM      5  O   UNL     1       3.933   1.872  18.943  0.00  0.00    +0.000 OA
ATOM      6  N   UNL     1       4.336   4.106  18.476  0.00  0.00    +0.000 N 
ATOM      7  C   UNL     1       3.907   5.412  18.595  0.00  0.00    +0.000 A 
ATOM      8  C   UNL     1       2.781   5.764  19.223  0.00  0.00    +0.000 A 
ATOM      9  H   UNL     1       1.888   2.664  20.043  0.00  0.00    +0.000 HD
ENDROOT
BRANCH   6  10
ATOM     10  C1* UNL     1       5.618   3.780  17.841  0.00  0.00    +0.000 C 
ATOM     11  O4* UNL     1       6.704   4.124  18.734  0.00  0.00    +0.000 OA
ATOM     12  C4* UNL     1       7.533   5.117  18.090  0.00  0.00    +0.000 C 
ATOM     13  C3* UNL     1       6.712   5.709  16.956  0.00  0.00    +0.000 C 
ATOM     14  C2* UNL     1       5.895   4.507  16.507  0.00  0.00    +0.000 C 
BRANCH  13  15
ATOM     15  O3* UNL     1       7.533   6.273  15.941  0.00  0.00    +0.000 OA
ATOM     16  H3* UNL     1       7.024   6.942  15.448  0.00  0.00    +0.000 HD
ENDBRANCH  13  15
BRANCH  14  17
ATOM     17  O2* UNL     1       4.761   4.883  15.737  0.00  0.00    +0.000 OA
ATOM     18  H2* UNL     1       3.969   4.806  16.297  0.00  0.00    +0.000 HD
ENDBRANCH  14  17
BRANCH  12  19
ATOM     19  C5* UNL     1       7.961   6.170  19.113  0.00  0.00    +0.000 C 
BRANCH  19  20
ATOM     20  O5* UNL     1       8.005   5.596  20.418  0.00  0.00    +0.000 OA
ATOM     21  H5* UNL     1       8.841   5.094  20.471  0.00  0.00    +0.000 HD
ENDBRANCH  19  20
ENDBRANCH  12  19
ENDBRANCH   6  10
BRANCH   8  22
ATOM     22  C   UNL     1       2.326   7.195  19.336  0.00  0.00    +0.000 C 
BRANCH  22  23
ATOM     23  C   UNL     1       2.578   8.075  18.111  0.00  0.00    +0.000 C 
ATOM     24 CL   UNL     1       1.347   9.353  17.950  0.00  0.00    +0.000 Cl
ENDBRANCH  22  23
ENDBRANCH   8  22
TORSDOF 7
ENDMDL
MODEL 8
REMARK VINA RESULT:      -6.7      2.149      3.097
REMARK  Name = 
REMARK  7 active torsions:
REMARK  status: ('A' for Active; 'I' for Inactive)
REMARK    1  A    between atoms: N_6  and  C1*_7
REMARK    2  A    between atoms: C4*_9  and  C5*_10
REMARK    3  A    between atoms: C5*_10  and  O5*_11
REMARK    4  A    between atoms: C3*_12  and  O3*_13
REMARK    5  A    between atoms: C2*_14  and  O2*_15
REMARK    6  A    between atoms: C_17  and  C_18
REMARK    7  A    between atoms: C_18  and  C_19
REMARK                            x       y       z     vdW  Elec       q    Type
REMARK                         _______ _______ _______ _____ _____    ______ ____
ROOT
ATOM      1  O   UNL     1       6.363   7.430  16.436  0.00  0.00    +0.000 OA
ATOM      2  C   UNL     1       5.498   6.827  17.057  0.00  0.00    +0.000 A 
ATOM      3  N   UNL     1       4.294   7.393  17.380  0.00  0.00    +0.000 N 
ATOM      4  C   UNL     1       3.283   6.804  18.097  0.00  0.00    +0.000 A 
ATOM      5  O   UNL     1       2.255   7.432  18.353  0.00  0.00    +0.000 OA
ATOM      6  N   UNL     1       3.512   5.490  18.486  0.00  0.00    +0.000 N 
ATOM      7  C   UNL     1       4.692   4.847  18.172  0.00  0.00    +0.000 A 
ATOM      8  C   UNL     1       5.688   5.425  17.493  0.00  0.00    +0.000 A 
ATOM      9  H   UNL     1       4.153   8.353  17.101  0.00  0.00    +0.000 HD
ENDROOT
BRANCH   6  10
ATOM     10  C1* UNL     1       2.480   4.834  19.298  0.00  0.00    +0.000 C 
ATOM     11  O4* UNL     1       3.093   4.212  20.452  0.00  0.00    +0.000 OA
ATOM     12  C4* UNL     1       2.841   2.789  20.397  0.00  0.00    +0.000 C 
ATOM     13  C3* UNL     1       2.430   2.469  18.969  0.00  0.00    +0.000 C 
ATOM     14  C2* UNL     1       1.676   3.731  18.575  0.00  0.00    +0.000 C 
BRANCH  13  15
ATOM     15  O3* UNL     1       1.659   1.276  18.891  0.00  0.00    +0.000 OA
ATOM     16  H3* UNL     1       0.839   1.389  19.405  0.00  0.00    +0.000 HD
ENDBRANCH  13  15
BRANCH  14  17
ATOM     17  O2* UNL     1       1.540   3.860  17.166  0.00  0.00    +0.000 OA
ATOM     18  H2* UNL     1       2.416   3.742  16.760  0.00  0.00    +0.000 HD
ENDBRANCH  14  17
BRANCH  12  19
ATOM     19  C5* UNL     1       4.096   2.028  20.829  0.00  0.00    +0.000 C 
BRANCH  19  20
ATOM     20  O5* UNL     1       4.855   1.648  19.683  0.00  0.00    +0.000 OA
ATOM     21  H5* UNL     1       4.936   2.446  19.127  0.00  0.00    +0.000 HD
ENDBRANCH  19  20
ENDBRANCH  12  19
ENDBRANCH   6  10
BRANCH   8  22
ATOM     22  C   UNL     1       6.966   4.705  17.155  0.00  0.00    +0.000 C 
BRANCH  22  23
ATOM     23  C   UNL     1       7.300   4.599  15.666  0.00  0.00    +0.000 C 
ATOM     24 CL   UNL     1       5.967   3.864  14.740  0.00  0.00    +0.000 Cl
ENDBRANCH  22  23
ENDBRANCH   8  22
TORSDOF 7
ENDMDL
MODEL 9
REMARK VINA RESULT:      -6.6      1.783      2.197
REMARK  Name = 
REMARK  7 active torsions:
REMARK  status: ('A' for Active; 'I' for Inactive)
REMARK    1  A    between atoms: N_6  and  C1*_7
REMARK    2  A    between atoms: C4*_9  and  C5*_10
REMARK    3  A    between atoms: C5*_10  and  O5*_11
REMARK    4  A    between atoms: C3*_12  and  O3*_13
REMARK    5  A    between atoms: C2*_14  and  O2*_15
REMARK    6  A    between atoms: C_17  and  C_18
REMARK    7  A    between atoms: C_18  and  C_19
REMARK                            x       y       z     vdW  Elec       q    Type
REMARK                         _______ _______ _______ _____ _____    ______ ____
ROOT
ATOM      1  O   UNL     1       7.551   4.760  12.314  0.00  0.00    +0.000 OA
ATOM      2  C   UNL     1       7.087   4.749  13.447  0.00  0.00    +0.000 A 
ATOM      3  N   UNL     1       7.606   5.504  14.463  0.00  0.00    +0.000 N 
ATOM      4  C   UNL     1       7.171   5.529  15.765  0.00  0.00    +0.000 A 
ATOM      5  O   UNL     1       7.747   6.229  16.600  0.00  0.00    +0.000 OA
ATOM      6  N   UNL     1       6.068   4.732  16.042  0.00  0.00    +0.000 N 
ATOM      7  C   UNL     1       5.476   3.964  15.060  0.00  0.00    +0.000 A 
ATOM      8  C   UNL     1       5.911   3.920  13.797  0.00  0.00    +0.000 A 
ATOM      9  H   UNL     1       8.417   6.065  14.245  0.00  0.00    +0.000 HD
ENDROOT
BRANCH   6  10
ATOM     10  C1* UNL     1       5.596   4.687  17.432  0.00  0.00    +0.000 C 
ATOM     11  O4* UNL     1       4.754   3.524  17.621  0.00  0.00    +0.000 OA
ATOM     12  C4* UNL     1       3.437   3.970  18.015  0.00  0.00    +0.000 C 
ATOM     13  C3* UNL     1       3.342   5.444  17.653  0.00  0.00    +0.000 C 
ATOM     14  C2* UNL     1       4.771   5.910  17.887  0.00  0.00    +0.000 C 
BRANCH  13  15
ATOM     15  O3* UNL     1       2.367   6.123  18.434  0.00  0.00    +0.000 OA
ATOM     16  H3* UNL     1       2.760   6.934  18.805  0.00  0.00    +0.000 HD
ENDBRANCH  13  15
BRANCH  14  17
ATOM     17  O2* UNL     1       5.048   7.144  17.238  0.00  0.00    +0.000 OA
ATOM     18  H2* UNL     1       5.095   6.985  16.279  0.00  0.00    +0.000 HD
ENDBRANCH  14  17
BRANCH  12  19
ATOM     19  C5* UNL     1       2.376   3.125  17.308  0.00  0.00    +0.000 C 
BRANCH  19  20
ATOM     20  O5* UNL     1       1.104   3.764  17.394  0.00  0.00    +0.000 OA
ATOM     21  H5* UNL     1       1.172   4.588  16.875  0.00  0.00    +0.000 HD
ENDBRANCH  19  20
ENDBRANCH  12  19
ENDBRANCH   6  10
BRANCH   8  22
ATOM     22  C   UNL     1       5.248   3.081  12.738  0.00  0.00    +0.000 C 
BRANCH  22  23
ATOM     23  C   UNL     1       4.554   3.849  11.613  0.00  0.00    +0.000 C 
ATOM     24 CL   UNL     1       3.343   2.846  10.775  0.00  0.00    +0.000 Cl
ENDBRANCH  22  23
ENDBRANCH   8  22
TORSDOF 7
ENDMDL
