MODEL 1
REMARK VINA RESULT:      -8.4      0.000      0.000
REMARK  Name = 
REMARK  7 active torsions:
REMARK  status: ('A' for Active; 'I' for Inactive)
REMARK    1  A    between atoms: C_2  and  C_3
REMARK    2  A    between atoms: C_7  and  S_8
REMARK    3  A    between atoms: S_8  and  N_11
REMARK    4  A    between atoms: N_11  and  C_12
REMARK    5  A    between atoms: N_11  and  C_20
REMARK    6  A    between atoms: C_12  and  C_13
REMARK    7  A    between atoms: C_20  and  C_21
REMARK                            x       y       z     vdW  Elec       q    Type
REMARK                         _______ _______ _______ _____ _____    ______ ____
ROOT
ATOM      1  N   UNL     1       3.281   5.751  17.584  0.00  0.00    +0.000 NA
ENDROOT
BRANCH   1   2
ATOM      2  S   UNL     1       2.460   4.224  17.633  0.00  0.00    +0.000 S 
ATOM      3  O   UNL     1       3.238   3.322  16.807  0.00  0.00    +0.000 OA
ATOM      4  O   UNL     1       1.057   4.454  17.365  0.00  0.00    +0.000 OA
BRANCH   2   9
ATOM      5  C   UNL     1       3.651   2.255  20.945  0.00  0.00    +0.000 A 
ATOM      6  C   UNL     1       2.476   2.220  21.707  0.00  0.00    +0.000 A 
ATOM      7  C   UNL     1       1.327   2.885  21.264  0.00  0.00    +0.000 A 
ATOM      8  C   UNL     1       1.337   3.575  20.051  0.00  0.00    +0.000 A 
ATOM      9  C   UNL     1       2.510   3.608  19.295  0.00  0.00    +0.000 A 
ATOM     10  C   UNL     1       3.672   2.960  19.740  0.00  0.00    +0.000 A 
BRANCH   5  12
ATOM     11  N   UNL     1       5.745   0.929  21.717  0.00  0.00    +0.000 NA
ATOM     12  C   UNL     1       4.810   1.521  21.375  0.00  0.00    +0.000 C 
ENDBRANCH   5  12
ENDBRANCH   2   9
ENDBRANCH   1   2
BRANCH   1  13
ATOM     13  C   UNL     1       3.265   6.460  18.908  0.00  0.00    +0.000 C 
BRANCH  13  14
ATOM     14  C   UNL     1       2.295   7.626  19.030  0.00  0.00    +0.000 A 
ATOM     15  C   UNL     1       1.714   7.975  20.261  0.00  0.00    +0.000 A 
ATOM     16  C   UNL     1       0.893   9.105  20.368  0.00  0.00    +0.000 A 
ATOM     17  C   UNL     1       0.646   9.894  19.245  0.00  0.00    +0.000 A 
ATOM     18 CL   UNL     1      -0.326  11.308  19.384  0.00  0.00    +0.000 Cl
ATOM     19  C   UNL     1       1.192   9.550  18.013  0.00  0.00    +0.000 A 
ATOM     20  C   UNL     1       2.011   8.421  17.907  0.00  0.00    +0.000 A 
ENDBRANCH  13  14
ENDBRANCH   1  13
BRANCH   1  21
ATOM     21  C   UNL     1       4.731   5.570  17.117  0.00  0.00    +0.000 C 
BRANCH  21  22
ATOM     22  C   UNL     1       5.783   6.149  18.073  0.00  0.00    +0.000 C 
ATOM     23  C   UNL     1       6.891   6.930  17.378  0.00  0.00    +0.000 C 
ATOM     24  C   UNL     1       7.991   6.945  18.439  0.00  0.00    +0.000 C 
ATOM     25  C   UNL     1       7.764   5.641  19.170  0.00  0.00    +0.000 C 
ATOM     26  O   UNL     1       8.506   5.130  19.988  0.00  0.00    +0.000 OA
ATOM     27  N   UNL     1       6.526   5.153  18.796  0.00  0.00    +0.000 N 
ATOM     28  H   UNL     1       6.095   4.438  19.372  0.00  0.00    +0.000 HD
ENDBRANCH  21  22
ENDBRANCH   1  21
TORSDOF 7
ENDMDL
MODEL 2
REMARK VINA RESULT:      -8.2      0.679      1.150
REMARK  Name = 
REMARK  7 active torsions:
REMARK  status: ('A' for Active; 'I' for Inactive)
REMARK    1  A    between atoms: C_2  and  C_3
REMARK    2  A    between atoms: C_7  and  S_8
REMARK    3  A    between atoms: S_8  and  N_11
REMARK    4  A    between atoms: N_11  and  C_12
REMARK    5  A    between atoms: N_11  and  C_20
REMARK    6  A    between atoms: C_12  and  C_13
REMARK    7  A    between atoms: C_20  and  C_21
REMARK                            x       y       z     vdW  Elec       q    Type
REMARK                         _______ _______ _______ _____ _____    ______ ____
ROOT
ATOM      1  N   UNL     1       2.855   6.033  17.685  0.00  0.00    +0.000 NA
ENDROOT
BRANCH   1   2
ATOM      2  S   UNL     1       2.410   4.357  17.649  0.00  0.00    +0.000 S 
ATOM      3  O   UNL     1       3.435   3.685  16.876  0.00  0.00    +0.000 OA
ATOM      4  O   UNL     1       1.016   4.265  17.274  0.00  0.00    +0.000 OA
BRANCH   2   9
ATOM      5  C   UNL     1       3.632   2.331  20.916  0.00  0.00    +0.000 A 
ATOM      6  C   UNL     1       2.469   2.298  21.695  0.00  0.00    +0.000 A 
ATOM      7  C   UNL     1       1.320   2.979  21.279  0.00  0.00    +0.000 A 
ATOM      8  C   UNL     1       1.318   3.686  20.075  0.00  0.00    +0.000 A 
ATOM      9  C   UNL     1       2.480   3.717  19.302  0.00  0.00    +0.000 A 
ATOM     10  C   UNL     1       3.642   3.052  19.720  0.00  0.00    +0.000 A 
BRANCH   5  12
ATOM     11  N   UNL     1       5.721   0.973  21.644  0.00  0.00    +0.000 NA
ATOM     12  C   UNL     1       4.790   1.581  21.318  0.00  0.00    +0.000 C 
ENDBRANCH   5  12
ENDBRANCH   2   9
ENDBRANCH   1   2
BRANCH   1  13
ATOM     13  C   UNL     1       2.988   6.567  19.083  0.00  0.00    +0.000 C 
BRANCH  13  14
ATOM     14  C   UNL     1       2.116   7.767  19.425  0.00  0.00    +0.000 A 
ATOM     15  C   UNL     1       1.829   8.762  18.475  0.00  0.00    +0.000 A 
ATOM     16  C   UNL     1       0.953   9.812  18.785  0.00  0.00    +0.000 A 
ATOM     17  C   UNL     1       0.360   9.874  20.045  0.00  0.00    +0.000 A 
ATOM     18 CL   UNL     1      -0.751  11.137  20.411  0.00  0.00    +0.000 Cl
ATOM     19  C   UNL     1       0.651   8.911  21.005  0.00  0.00    +0.000 A 
ATOM     20  C   UNL     1       1.525   7.864  20.696  0.00  0.00    +0.000 A 
ENDBRANCH  13  14
ENDBRANCH   1  13
BRANCH   1  21
ATOM     21  C   UNL     1       4.167   6.260  16.923  0.00  0.00    +0.000 C 
BRANCH  21  22
ATOM     22  C   UNL     1       5.425   6.222  17.801  0.00  0.00    +0.000 C 
ATOM     23  C   UNL     1       6.496   7.227  17.397  0.00  0.00    +0.000 C 
ATOM     24  C   UNL     1       7.748   6.653  18.062  0.00  0.00    +0.000 C 
ATOM     25  C   UNL     1       7.478   5.165  18.046  0.00  0.00    +0.000 C 
ATOM     26  O   UNL     1       8.272   4.282  18.310  0.00  0.00    +0.000 OA
ATOM     27  N   UNL     1       6.143   4.977  17.737  0.00  0.00    +0.000 N 
ATOM     28  H   UNL     1       5.725   4.076  17.937  0.00  0.00    +0.000 HD
ENDBRANCH  21  22
ENDBRANCH   1  21
TORSDOF 7
ENDMDL
MODEL 3
REMARK VINA RESULT:      -8.0      3.284      5.610
REMARK  Name = 
REMARK  7 active torsions:
REMARK  status: ('A' for Active; 'I' for Inactive)
REMARK    1  A    between atoms: C_2  and  C_3
REMARK    2  A    between atoms: C_7  and  S_8
REMARK    3  A    between atoms: S_8  and  N_11
REMARK    4  A    between atoms: N_11  and  C_12
REMARK    5  A    between atoms: N_11  and  C_20
REMARK    6  A    between atoms: C_12  and  C_13
REMARK    7  A    between atoms: C_20  and  C_21
REMARK                            x       y       z     vdW  Elec       q    Type
REMARK                         _______ _______ _______ _____ _____    ______ ____
ROOT
ATOM      1  N   UNL     1       5.065   4.426  16.886  0.00  0.00    +0.000 NA
ENDROOT
BRANCH   1   2
ATOM      2  S   UNL     1       3.607   3.766  17.553  0.00  0.00    +0.000 S 
ATOM      3  O   UNL     1       4.021   2.742  18.493  0.00  0.00    +0.000 OA
ATOM      4  O   UNL     1       2.709   3.453  16.463  0.00  0.00    +0.000 OA
BRANCH   2   9
ATOM      5  C   UNL     1       2.220   7.380  18.684  0.00  0.00    +0.000 A 
ATOM      6  C   UNL     1       1.920   7.172  20.037  0.00  0.00    +0.000 A 
ATOM      7  C   UNL     1       2.043   5.896  20.599  0.00  0.00    +0.000 A 
ATOM      8  C   UNL     1       2.482   4.824  19.821  0.00  0.00    +0.000 A 
ATOM      9  C   UNL     1       2.780   5.035  18.474  0.00  0.00    +0.000 A 
ATOM     10  C   UNL     1       2.641   6.307  17.897  0.00  0.00    +0.000 A 
BRANCH   5  12
ATOM     11  N   UNL     1       2.089   9.768  17.674  0.00  0.00    +0.000 NA
ATOM     12  C   UNL     1       2.150   8.703  18.127  0.00  0.00    +0.000 C 
ENDBRANCH   5  12
ENDBRANCH   2   9
ENDBRANCH   1   2
BRANCH   1  13
ATOM     13  C   UNL     1       6.156   4.571  17.909  0.00  0.00    +0.000 C 
BRANCH  13  14
ATOM     14  C   UNL     1       6.863   5.918  17.945  0.00  0.00    +0.000 A 
ATOM     15  C   UNL     1       6.429   6.998  17.157  0.00  0.00    +0.000 A 
ATOM     16  C   UNL     1       7.040   8.254  17.271  0.00  0.00    +0.000 A 
ATOM     17  C   UNL     1       8.088   8.439  18.171  0.00  0.00    +0.000 A 
ATOM     18 CL   UNL     1       8.809   9.992  18.344  0.00  0.00    +0.000 Cl
ATOM     19  C   UNL     1       8.547   7.375  18.940  0.00  0.00    +0.000 A 
ATOM     20  C   UNL     1       7.938   6.122  18.826  0.00  0.00    +0.000 A 
ENDBRANCH  13  14
ENDBRANCH   1  13
BRANCH   1  21
ATOM     21  C   UNL     1       5.566   3.562  15.722  0.00  0.00    +0.000 C 
BRANCH  21  22
ATOM     22  C   UNL     1       5.953   4.353  14.465  0.00  0.00    +0.000 C 
ATOM     23  C   UNL     1       6.113   3.495  13.216  0.00  0.00    +0.000 C 
ATOM     24  C   UNL     1       6.946   4.400  12.306  0.00  0.00    +0.000 C 
ATOM     25  C   UNL     1       7.774   5.190  13.294  0.00  0.00    +0.000 C 
ATOM     26  O   UNL     1       8.716   5.915  13.033  0.00  0.00    +0.000 OA
ATOM     27  N   UNL     1       7.235   4.997  14.553  0.00  0.00    +0.000 N 
ATOM     28  H   UNL     1       7.490   5.644  15.290  0.00  0.00    +0.000 HD
ENDBRANCH  21  22
ENDBRANCH   1  21
TORSDOF 7
ENDMDL
MODEL 4
REMARK VINA RESULT:      -7.6      2.692      5.442
REMARK  Name = 
REMARK  7 active torsions:
REMARK  status: ('A' for Active; 'I' for Inactive)
REMARK    1  A    between atoms: C_2  and  C_3
REMARK    2  A    between atoms: C_7  and  S_8
REMARK    3  A    between atoms: S_8  and  N_11
REMARK    4  A    between atoms: N_11  and  C_12
REMARK    5  A    between atoms: N_11  and  C_20
REMARK    6  A    between atoms: C_12  and  C_13
REMARK    7  A    between atoms: C_20  and  C_21
REMARK                            x       y       z     vdW  Elec       q    Type
REMARK                         _______ _______ _______ _____ _____    ______ ____
ROOT
ATOM      1  N   UNL     1       4.101   5.529  18.349  0.00  0.00    +0.000 NA
ENDROOT
BRANCH   1   2
ATOM      2  S   UNL     1       5.783   5.152  18.159  0.00  0.00    +0.000 S 
ATOM      3  O   UNL     1       6.054   4.053  19.065  0.00  0.00    +0.000 OA
ATOM      4  O   UNL     1       6.537   6.384  18.239  0.00  0.00    +0.000 OA
BRANCH   2   9
ATOM      5  C   UNL     1       7.117   4.892  14.361  0.00  0.00    +0.000 A 
ATOM      6  C   UNL     1       6.196   4.008  13.784  0.00  0.00    +0.000 A 
ATOM      7  C   UNL     1       5.211   3.400  14.571  0.00  0.00    +0.000 A 
ATOM      8  C   UNL     1       5.129   3.682  15.936  0.00  0.00    +0.000 A 
ATOM      9  C   UNL     1       6.049   4.563  16.507  0.00  0.00    +0.000 A 
ATOM     10  C   UNL     1       7.050   5.162  15.729  0.00  0.00    +0.000 A 
BRANCH   5  12
ATOM     11  N   UNL     1       8.874   6.097  12.877  0.00  0.00    +0.000 NA
ATOM     12  C   UNL     1       8.088   5.559  13.537  0.00  0.00    +0.000 C 
ENDBRANCH   5  12
ENDBRANCH   2   9
ENDBRANCH   1   2
BRANCH   1  13
ATOM     13  C   UNL     1       3.720   6.823  17.686  0.00  0.00    +0.000 C 
BRANCH  13  14
ATOM     14  C   UNL     1       2.686   7.667  18.416  0.00  0.00    +0.000 A 
ATOM     15  C   UNL     1       2.289   7.371  19.731  0.00  0.00    +0.000 A 
ATOM     16  C   UNL     1       1.401   8.213  20.415  0.00  0.00    +0.000 A 
ATOM     17  C   UNL     1       0.903   9.354  19.790  0.00  0.00    +0.000 A 
ATOM     18 CL   UNL     1      -0.152  10.413  20.644  0.00  0.00    +0.000 Cl
ATOM     19  C   UNL     1       1.265   9.650  18.480  0.00  0.00    +0.000 A 
ATOM     20  C   UNL     1       2.151   8.810  17.797  0.00  0.00    +0.000 A 
ENDBRANCH  13  14
ENDBRANCH   1  13
BRANCH   1  21
ATOM     21  C   UNL     1       3.227   4.395  17.798  0.00  0.00    +0.000 C 
BRANCH  21  22
ATOM     22  C   UNL     1       2.601   3.497  18.874  0.00  0.00    +0.000 C 
ATOM     23  C   UNL     1       1.108   3.720  19.078  0.00  0.00    +0.000 C 
ATOM     24  C   UNL     1       0.875   3.110  20.460  0.00  0.00    +0.000 C 
ATOM     25  C   UNL     1       2.197   3.350  21.155  0.00  0.00    +0.000 C 
ATOM     26  O   UNL     1       2.432   3.194  22.338  0.00  0.00    +0.000 OA
ATOM     27  N   UNL     1       3.121   3.720  20.195  0.00  0.00    +0.000 N 
ATOM     28  H   UNL     1       4.106   3.666  20.429  0.00  0.00    +0.000 HD
ENDBRANCH  21  22
ENDBRANCH   1  21
TORSDOF 7
ENDMDL
MODEL 5
REMARK VINA RESULT:      -7.6      3.354      4.853
REMARK  Name = 
REMARK  7 active torsions:
REMARK  status: ('A' for Active; 'I' for Inactive)
REMARK    1  A    between atoms: C_2  and  C_3
REMARK    2  A    between atoms: C_7  and  S_8
REMARK    3  A    between atoms: S_8  and  N_11
REMARK    4  A    between atoms: N_11  and  C_12
REMARK    5  A    between atoms: N_11  and  C_20
REMARK    6  A    between atoms: C_12  and  C_13
REMARK    7  A    between atoms: C_20  and  C_21
REMARK                            x       y       z     vdW  Elec       q    Type
REMARK                         _______ _______ _______ _____ _____    ______ ____
ROOT
ATOM      1  N   UNL     1       5.132   4.285  16.751  0.00  0.00    +0.000 NA
ENDROOT
BRANCH   1   2
ATOM      2  S   UNL     1       3.695   3.431  17.215  0.00  0.00    +0.000 S 
ATOM      3  O   UNL     1       4.107   2.070  17.492  0.00  0.00    +0.000 OA
ATOM      4  O   UNL     1       2.665   3.712  16.238  0.00  0.00    +0.000 OA
BRANCH   2   9
ATOM      5  C   UNL     1       1.920   3.778  20.820  0.00  0.00    +0.000 A 
ATOM      6  C   UNL     1       1.701   5.158  20.910  0.00  0.00    +0.000 A 
ATOM      7  C   UNL     1       2.182   6.016  19.915  0.00  0.00    +0.000 A 
ATOM      8  C   UNL     1       2.870   5.502  18.815  0.00  0.00    +0.000 A 
ATOM      9  C   UNL     1       3.087   4.126  18.729  0.00  0.00    +0.000 A 
ATOM     10  C   UNL     1       2.625   3.260  19.731  0.00  0.00    +0.000 A 
BRANCH   5  12
ATOM     11  N   UNL     1       0.934   2.186  22.619  0.00  0.00    +0.000 NA
ATOM     12  C   UNL     1       1.373   2.895  21.814  0.00  0.00    +0.000 C 
ENDBRANCH   5  12
ENDBRANCH   2   9
ENDBRANCH   1   2
BRANCH   1  13
ATOM     13  C   UNL     1       6.083   4.482  17.898  0.00  0.00    +0.000 C 
BRANCH  13  14
ATOM     14  C   UNL     1       6.715   5.862  18.011  0.00  0.00    +0.000 A 
ATOM     15  C   UNL     1       7.812   6.101  18.857  0.00  0.00    +0.000 A 
ATOM     16  C   UNL     1       8.434   7.357  18.880  0.00  0.00    +0.000 A 
ATOM     17  C   UNL     1       7.964   8.381  18.059  0.00  0.00    +0.000 A 
ATOM     18 CL   UNL     1       8.755   9.909  18.053  0.00  0.00    +0.000 Cl
ATOM     19  C   UNL     1       6.865   8.170  17.234  0.00  0.00    +0.000 A 
ATOM     20  C   UNL     1       6.244   6.916  17.212  0.00  0.00    +0.000 A 
ENDBRANCH  13  14
ENDBRANCH   1  13
BRANCH   1  21
ATOM     21  C   UNL     1       5.850   3.554  15.610  0.00  0.00    +0.000 C 
BRANCH  21  22
ATOM     22  C   UNL     1       6.194   4.441  14.406  0.00  0.00    +0.000 C 
ATOM     23  C   UNL     1       6.287   3.687  13.085  0.00  0.00    +0.000 C 
ATOM     24  C   UNL     1       7.093   4.653  12.216  0.00  0.00    +0.000 C 
ATOM     25  C   UNL     1       7.975   5.351  13.227  0.00  0.00    +0.000 C 
ATOM     26  O   UNL     1       8.915   6.084  12.985  0.00  0.00    +0.000 OA
ATOM     27  N   UNL     1       7.488   5.062  14.489  0.00  0.00    +0.000 N 
ATOM     28  H   UNL     1       7.784   5.644  15.264  0.00  0.00    +0.000 HD
ENDBRANCH  21  22
ENDBRANCH   1  21
TORSDOF 7
ENDMDL
MODEL 6
REMARK VINA RESULT:      -7.5      3.004      6.354
REMARK  Name = 
REMARK  7 active torsions:
REMARK  status: ('A' for Active; 'I' for Inactive)
REMARK    1  A    between atoms: C_2  and  C_3
REMARK    2  A    between atoms: C_7  and  S_8
REMARK    3  A    between atoms: S_8  and  N_11
REMARK    4  A    between atoms: N_11  and  C_12
REMARK    5  A    between atoms: N_11  and  C_20
REMARK    6  A    between atoms: C_12  and  C_13
REMARK    7  A    between atoms: C_20  and  C_21
REMARK                            x       y       z     vdW  Elec       q    Type
REMARK                         _______ _______ _______ _____ _____    ______ ____
ROOT
ATOM      1  N   UNL     1       3.924   5.100  16.859  0.00  0.00    +0.000 NA
ENDROOT
BRANCH   1   2
ATOM      2  S   UNL     1       5.457   5.499  16.153  0.00  0.00    +0.000 S 
ATOM      3  O   UNL     1       5.199   6.569  15.210  0.00  0.00    +0.000 OA
ATOM      4  O   UNL     1       6.094   4.272  15.729  0.00  0.00    +0.000 OA
BRANCH   2   9
ATOM      5  C   UNL     1       7.929   7.954  18.186  0.00  0.00    +0.000 A 
ATOM      6  C   UNL     1       8.525   7.079  19.103  0.00  0.00    +0.000 A 
ATOM      7  C   UNL     1       8.109   5.745  19.181  0.00  0.00    +0.000 A 
ATOM      8  C   UNL     1       7.106   5.271  18.334  0.00  0.00    +0.000 A 
ATOM      9  C   UNL     1       6.514   6.145  17.422  0.00  0.00    +0.000 A 
ATOM     10  C   UNL     1       6.912   7.489  17.349  0.00  0.00    +0.000 A 
BRANCH   5  12
ATOM     11  N   UNL     1       8.782  10.397  17.979  0.00  0.00    +0.000 NA
ATOM     12  C   UNL     1       8.401   9.306  18.069  0.00  0.00    +0.000 C 
ENDBRANCH   5  12
ENDBRANCH   2   9
ENDBRANCH   1   2
BRANCH   1  13
ATOM     13  C   UNL     1       3.751   3.622  17.069  0.00  0.00    +0.000 C 
BRANCH  13  14
ATOM     14  C   UNL     1       3.082   3.207  18.371  0.00  0.00    +0.000 A 
ATOM     15  C   UNL     1       3.834   2.823  19.495  0.00  0.00    +0.000 A 
ATOM     16  C   UNL     1       3.201   2.529  20.710  0.00  0.00    +0.000 A 
ATOM     17  C   UNL     1       1.813   2.615  20.810  0.00  0.00    +0.000 A 
ATOM     18 CL   UNL     1       1.038   2.298  22.314  0.00  0.00    +0.000 Cl
ATOM     19  C   UNL     1       1.051   2.970  19.702  0.00  0.00    +0.000 A 
ATOM     20  C   UNL     1       1.683   3.263  18.489  0.00  0.00    +0.000 A 
ENDBRANCH  13  14
ENDBRANCH   1  13
BRANCH   1  21
ATOM     21  C   UNL     1       3.736   5.832  18.194  0.00  0.00    +0.000 C 
BRANCH  21  22
ATOM     22  C   UNL     1       2.600   6.864  18.198  0.00  0.00    +0.000 C 
ATOM     23  C   UNL     1       2.950   8.177  17.511  0.00  0.00    +0.000 C 
ATOM     24  C   UNL     1       1.898   9.131  18.079  0.00  0.00    +0.000 C 
ATOM     25  C   UNL     1       1.651   8.565  19.459  0.00  0.00    +0.000 C 
ATOM     26  O   UNL     1       1.018   9.092  20.356  0.00  0.00    +0.000 OA
ATOM     27  N   UNL     1       2.217   7.305  19.511  0.00  0.00    +0.000 N 
ATOM     28  H   UNL     1       1.929   6.677  20.254  0.00  0.00    +0.000 HD
ENDBRANCH  21  22
ENDBRANCH   1  21
TORSDOF 7
ENDMDL
MODEL 7
REMARK VINA RESULT:      -7.3      2.660      5.514
REMARK  Name = 
REMARK  7 active torsions:
REMARK  status: ('A' for Active; 'I' for Inactive)
REMARK    1  A    between atoms: C_2  and  C_3
REMARK    2  A    between atoms: C_7  and  S_8
REMARK    3  A    between atoms: S_8  and  N_11
REMARK    4  A    between atoms: N_11  and  C_12
REMARK    5  A    between atoms: N_11  and  C_20
REMARK    6  A    between atoms: C_12  and  C_13
REMARK    7  A    between atoms: C_20  and  C_21
REMARK                            x       y       z     vdW  Elec       q    Type
REMARK                         _______ _______ _______ _____ _____    ______ ____
ROOT
ATOM      1  N   UNL     1       3.812   4.921  18.335  0.00  0.00    +0.000 NA
ENDROOT
BRANCH   1   2
ATOM      2  S   UNL     1       5.187   3.959  17.895  0.00  0.00    +0.000 S 
ATOM      3  O   UNL     1       4.696   2.604  17.738  0.00  0.00    +0.000 OA
ATOM      4  O   UNL     1       6.263   4.257  18.815  0.00  0.00    +0.000 OA
BRANCH   2   9
ATOM      5  C   UNL     1       5.760   4.215  13.911  0.00  0.00    +0.000 A 
ATOM      6  C   UNL     1       6.950   4.950  13.830  0.00  0.00    +0.000 A 
ATOM      7  C   UNL     1       7.543   5.464  14.989  0.00  0.00    +0.000 A 
ATOM      8  C   UNL     1       6.962   5.235  16.238  0.00  0.00    +0.000 A 
ATOM      9  C   UNL     1       5.776   4.503  16.314  0.00  0.00    +0.000 A 
ATOM     10  C   UNL     1       5.164   4.000  15.156  0.00  0.00    +0.000 A 
BRANCH   5  12
ATOM     11  N   UNL     1       4.724   3.180  11.767  0.00  0.00    +0.000 NA
ATOM     12  C   UNL     1       5.187   3.640  12.725  0.00  0.00    +0.000 C 
ENDBRANCH   5  12
ENDBRANCH   2   9
ENDBRANCH   1   2
BRANCH   1  13
ATOM     13  C   UNL     1       3.804   6.262  17.657  0.00  0.00    +0.000 C 
BRANCH  13  14
ATOM     14  C   UNL     1       2.869   7.305  18.252  0.00  0.00    +0.000 A 
ATOM     15  C   UNL     1       2.401   7.206  19.573  0.00  0.00    +0.000 A 
ATOM     16  C   UNL     1       1.613   8.223  20.129  0.00  0.00    +0.000 A 
ATOM     17  C   UNL     1       1.286   9.344  19.368  0.00  0.00    +0.000 A 
ATOM     18 CL   UNL     1       0.356  10.615  20.063  0.00  0.00    +0.000 Cl
ATOM     19  C   UNL     1       1.720   9.448  18.051  0.00  0.00    +0.000 A 
ATOM     20  C   UNL     1       2.506   8.433  17.496  0.00  0.00    +0.000 A 
ENDBRANCH  13  14
ENDBRANCH   1  13
BRANCH   1  21
ATOM     21  C   UNL     1       2.508   4.178  18.019  0.00  0.00    +0.000 C 
BRANCH  21  22
ATOM     22  C   UNL     1       1.991   3.290  19.158  0.00  0.00    +0.000 C 
ATOM     23  C   UNL     1       0.972   3.971  20.063  0.00  0.00    +0.000 C 
ATOM     24  C   UNL     1       1.019   3.098  21.318  0.00  0.00    +0.000 C 
ATOM     25  C   UNL     1       2.451   2.613  21.330  0.00  0.00    +0.000 C 
ATOM     26  O   UNL     1       3.010   2.029  22.239  0.00  0.00    +0.000 OA
ATOM     27  N   UNL     1       3.006   2.893  20.095  0.00  0.00    +0.000 N 
ATOM     28  H   UNL     1       3.859   2.413  19.831  0.00  0.00    +0.000 HD
ENDBRANCH  21  22
ENDBRANCH   1  21
TORSDOF 7
ENDMDL
MODEL 8
REMARK VINA RESULT:      -7.2      3.937      6.929
REMARK  Name = 
REMARK  7 active torsions:
REMARK  status: ('A' for Active; 'I' for Inactive)
REMARK    1  A    between atoms: C_2  and  C_3
REMARK    2  A    between atoms: C_7  and  S_8
REMARK    3  A    between atoms: S_8  and  N_11
REMARK    4  A    between atoms: N_11  and  C_12
REMARK    5  A    between atoms: N_11  and  C_20
REMARK    6  A    between atoms: C_12  and  C_13
REMARK    7  A    between atoms: C_20  and  C_21
REMARK                            x       y       z     vdW  Elec       q    Type
REMARK                         _______ _______ _______ _____ _____    ______ ____
ROOT
ATOM      1  N   UNL     1       5.354   4.893  16.745  0.00  0.00    +0.000 NA
ENDROOT
BRANCH   1   2
ATOM      2  S   UNL     1       6.978   5.126  16.185  0.00  0.00    +0.000 S 
ATOM      3  O   UNL     1       7.749   4.018  16.712  0.00  0.00    +0.000 OA
ATOM      4  O   UNL     1       7.361   6.494  16.458  0.00  0.00    +0.000 OA
BRANCH   2   9
ATOM      5  C   UNL     1       6.478   3.673  12.456  0.00  0.00    +0.000 A 
ATOM      6  C   UNL     1       7.358   4.466  11.709  0.00  0.00    +0.000 A 
ATOM      7  C   UNL     1       8.044   5.524  12.316  0.00  0.00    +0.000 A 
ATOM      8  C   UNL     1       7.870   5.788  13.675  0.00  0.00    +0.000 A 
ATOM      9  C   UNL     1       6.992   4.995  14.416  0.00  0.00    +0.000 A 
ATOM     10  C   UNL     1       6.286   3.944  13.812  0.00  0.00    +0.000 A 
BRANCH   5  12
ATOM     11  N   UNL     1       5.297   1.646  11.344  0.00  0.00    +0.000 NA
ATOM     12  C   UNL     1       5.822   2.551  11.841  0.00  0.00    +0.000 C 
ENDBRANCH   5  12
ENDBRANCH   2   9
ENDBRANCH   1   2
BRANCH   1  13
ATOM     13  C   UNL     1       5.026   3.446  16.982  0.00  0.00    +0.000 C 
BRANCH  13  14
ATOM     14  C   UNL     1       4.042   3.160  18.108  0.00  0.00    +0.000 A 
ATOM     15  C   UNL     1       4.480   2.869  19.411  0.00  0.00    +0.000 A 
ATOM     16  C   UNL     1       3.557   2.696  20.452  0.00  0.00    +0.000 A 
ATOM     17  C   UNL     1       2.192   2.810  20.196  0.00  0.00    +0.000 A 
ATOM     18 CL   UNL     1       1.059   2.642  21.481  0.00  0.00    +0.000 Cl
ATOM     19  C   UNL     1       1.739   3.073  18.908  0.00  0.00    +0.000 A 
ATOM     20  C   UNL     1       2.661   3.246  17.870  0.00  0.00    +0.000 A 
ENDBRANCH  13  14
ENDBRANCH   1  13
BRANCH   1  21
ATOM     21  C   UNL     1       5.106   5.692  18.031  0.00  0.00    +0.000 C 
BRANCH  21  22
ATOM     22  C   UNL     1       3.685   6.257  18.163  0.00  0.00    +0.000 C 
ATOM     23  C   UNL     1       3.522   7.664  17.603  0.00  0.00    +0.000 C 
ATOM     24  C   UNL     1       2.239   8.138  18.287  0.00  0.00    +0.000 C 
ATOM     25  C   UNL     1       2.279   7.406  19.609  0.00  0.00    +0.000 C 
ATOM     26  O   UNL     1       1.554   7.600  20.567  0.00  0.00    +0.000 OA
ATOM     27  N   UNL     1       3.247   6.423  19.522  0.00  0.00    +0.000 N 
ATOM     28  H   UNL     1       3.235   5.673  20.205  0.00  0.00    +0.000 HD
ENDBRANCH  21  22
ENDBRANCH   1  21
TORSDOF 7
ENDMDL
MODEL 9
REMARK VINA RESULT:      -7.2      2.502      5.625
REMARK  Name = 
REMARK  7 active torsions:
REMARK  status: ('A' for Active; 'I' for Inactive)
REMARK    1  A    between atoms: C_2  and  C_3
REMARK    2  A    between atoms: C_7  and  S_8
REMARK    3  A    between atoms: S_8  and  N_11
REMARK    4  A    between atoms: N_11  and  C_12
REMARK    5  A    between atoms: N_11  and  C_20
REMARK    6  A    between atoms: C_12  and  C_13
REMARK    7  A    between atoms: C_20  and  C_21
REMARK                            x       y       z     vdW  Elec       q    Type
REMARK                         _______ _______ _______ _____ _____    ______ ____
ROOT
ATOM      1  N   UNL     1       4.602   5.798  18.949  0.00  0.00    +0.000 NA
ENDROOT
BRANCH   1   2
ATOM      2  S   UNL     1       6.238   5.791  18.374  0.00  0.00    +0.000 S 
ATOM      3  O   UNL     1       6.999   5.018  19.336  0.00  0.00    +0.000 OA
ATOM      4  O   UNL     1       6.612   7.151  18.052  0.00  0.00    +0.000 OA
BRANCH   2   9
ATOM      5  C   UNL     1       6.995   4.910  14.512  0.00  0.00    +0.000 A 
ATOM      6  C   UNL     1       6.063   3.897  14.252  0.00  0.00    +0.000 A 
ATOM      7  C   UNL     1       5.257   3.398  15.281  0.00  0.00    +0.000 A 
ATOM      8  C   UNL     1       5.362   3.917  16.572  0.00  0.00    +0.000 A 
ATOM      9  C   UNL     1       6.292   4.926  16.827  0.00  0.00    +0.000 A 
ATOM     10  C   UNL     1       7.118   5.420  15.806  0.00  0.00    +0.000 A 
BRANCH   5  12
ATOM     11  N   UNL     1       8.410   5.900  12.573  0.00  0.00    +0.000 NA
ATOM     12  C   UNL     1       7.779   5.460  13.440  0.00  0.00    +0.000 C 
ENDBRANCH   5  12
ENDBRANCH   2   9
ENDBRANCH   1   2
BRANCH   1  13
ATOM     13  C   UNL     1       3.639   6.370  17.947  0.00  0.00    +0.000 C 
BRANCH  13  14
ATOM     14  C   UNL     1       2.695   7.445  18.466  0.00  0.00    +0.000 A 
ATOM     15  C   UNL     1       2.214   7.427  19.786  0.00  0.00    +0.000 A 
ATOM     16  C   UNL     1       1.417   8.473  20.269  0.00  0.00    +0.000 A 
ATOM     17  C   UNL     1       1.094   9.543  19.436  0.00  0.00    +0.000 A 
ATOM     18 CL   UNL     1       0.153  10.851  20.041  0.00  0.00    +0.000 Cl
ATOM     19  C   UNL     1       1.541   9.566  18.119  0.00  0.00    +0.000 A 
ATOM     20  C   UNL     1       2.336   8.521  17.637  0.00  0.00    +0.000 A 
ENDBRANCH  13  14
ENDBRANCH   1  13
BRANCH   1  21
ATOM     21  C   UNL     1       4.158   4.381  19.334  0.00  0.00    +0.000 C 
BRANCH  21  22
ATOM     22  C   UNL     1       2.637   4.184  19.387  0.00  0.00    +0.000 C 
ATOM     23  C   UNL     1       2.113   3.752  20.750  0.00  0.00    +0.000 C 
ATOM     24  C   UNL     1       0.743   3.170  20.401  0.00  0.00    +0.000 C 
ATOM     25  C   UNL     1       0.961   2.624  19.008  0.00  0.00    +0.000 C 
ATOM     26  O   UNL     1       0.200   1.909  18.383  0.00  0.00    +0.000 OA
ATOM     27  N   UNL     1       2.156   3.132  18.533  0.00  0.00    +0.000 N 
ATOM     28  H   UNL     1       2.335   3.090  17.536  0.00  0.00    +0.000 HD
ENDBRANCH  21  22
ENDBRANCH   1  21
TORSDOF 7
ENDMDL
