MODEL 1
REMARK VINA RESULT:      -7.5      0.000      0.000
REMARK  Name = 
REMARK  8 active torsions:
REMARK  status: ('A' for Active; 'I' for Inactive)
REMARK    1  A    between atoms: C_1  and  O_2
REMARK    2  A    between atoms: O_2  and  C_3
REMARK    3  A    between atoms: C_7  and  O_8
REMARK    4  A    between atoms: O_8  and  C_9
REMARK    5  A    between atoms: C_10  and  C_11
REMARK    6  A    between atoms: N_17  and  C_18
REMARK    7  A    between atoms: C_18  and  C_19
REMARK    8  A    between atoms: C_22  and  N_23
REMARK                            x       y       z     vdW  Elec       q    Type
REMARK                         _______ _______ _______ _____ _____    ______ ____
ROOT
ATOM      1  C   UNL     1       4.726   3.883  18.586  0.00  0.00    +0.000 C 
ATOM      2  C   UNL     1       4.674   2.685  17.621  0.00  0.00    +0.000 C 
ATOM      3  C   UNL     1       3.607   1.708  18.063  0.00  0.00    +0.000 C 
ATOM      4  C   UNL     1       2.267   2.399  18.101  0.00  0.00    +0.000 C 
ATOM      5  C   UNL     1       2.230   3.720  18.843  0.00  0.00    +0.000 C 
ATOM      6  O   UNL     1       1.118   4.136  19.182  0.00  0.00    +0.000 OA
ATOM      7  N   UNL     1       3.411   4.432  18.992  0.00  0.00    +0.000 N 
ENDROOT
BRANCH   1  13
ATOM      8  C   UNL     1       5.565   5.486  16.790  0.00  0.00    +0.000 A 
ATOM      9  C   UNL     1       6.337   6.576  16.360  0.00  0.00    +0.000 A 
ATOM     10  C   UNL     1       7.354   7.074  17.158  0.00  0.00    +0.000 A 
ATOM     11  C   UNL     1       7.589   6.498  18.399  0.00  0.00    +0.000 A 
ATOM     12  C   UNL     1       6.789   5.446  18.881  0.00  0.00    +0.000 A 
ATOM     13  C   UNL     1       5.729   4.939  18.096  0.00  0.00    +0.000 A 
BRANCH   8  15
ATOM     14  C   UNL     1       5.037   4.593  14.657  0.00  0.00    +0.000 C 
ATOM     15  O   UNL     1       4.601   4.937  15.975  0.00  0.00    +0.000 OA
ENDBRANCH   8  15
BRANCH  12  16
ATOM     16  O   UNL     1       7.060   5.148  20.191  0.00  0.00    +0.000 OA
ATOM     17  C   UNL     1       8.400   5.298  20.637  0.00  0.00    +0.000 C 
ENDBRANCH  12  16
ENDBRANCH   1  13
BRANCH   7  18
ATOM     18  C   UNL     1       3.482   5.669  19.798  0.00  0.00    +0.000 C 
BRANCH  18  19
ATOM     19  C   UNL     1       2.670   6.883  19.440  0.00  0.00    +0.000 A 
ATOM     20  C   UNL     1       1.903   7.539  20.414  0.00  0.00    +0.000 A 
ATOM     21  C   UNL     1       1.226   8.721  20.105  0.00  0.00    +0.000 A 
ATOM     22  C   UNL     1       1.282   9.288  18.824  0.00  0.00    +0.000 A 
ATOM     23  C   UNL     1       2.007   8.593  17.847  0.00  0.00    +0.000 A 
ATOM     24  C   UNL     1       2.696   7.413  18.146  0.00  0.00    +0.000 A 
BRANCH  22  25
ATOM     25  N   UNL     1       0.663  10.488  18.480  0.00  0.00    +0.000 N 
ATOM     26  C   UNL     1       0.876  11.704  19.271  0.00  0.00    +0.000 C 
ATOM     27  C   UNL     1      -0.521  12.153  19.677  0.00  0.00    +0.000 C 
ATOM     28  C   UNL     1      -1.371  11.704  18.500  0.00  0.00    +0.000 C 
ATOM     29  C   UNL     1      -0.762  10.352  18.133  0.00  0.00    +0.000 C 
ENDBRANCH  22  25
ENDBRANCH  18  19
ENDBRANCH   7  18
TORSDOF 6
ENDMDL
MODEL 2
REMARK VINA RESULT:      -7.5      3.647      9.399
REMARK  Name = 
REMARK  8 active torsions:
REMARK  status: ('A' for Active; 'I' for Inactive)
REMARK    1  A    between atoms: C_1  and  O_2
REMARK    2  A    between atoms: O_2  and  C_3
REMARK    3  A    between atoms: C_7  and  O_8
REMARK    4  A    between atoms: O_8  and  C_9
REMARK    5  A    between atoms: C_10  and  C_11
REMARK    6  A    between atoms: N_17  and  C_18
REMARK    7  A    between atoms: C_18  and  C_19
REMARK    8  A    between atoms: C_22  and  N_23
REMARK                            x       y       z     vdW  Elec       q    Type
REMARK                         _______ _______ _______ _____ _____    ______ ____
ROOT
ATOM      1  C   UNL     1       0.951  12.730  21.057  0.00  0.00    +0.000 C 
ATOM      2  C   UNL     1       1.547  14.077  21.502  0.00  0.00    +0.000 C 
ATOM      3  C   UNL     1       2.972  14.203  21.007  0.00  0.00    +0.000 C 
ATOM      4  C   UNL     1       3.000  14.098  19.503  0.00  0.00    +0.000 C 
ATOM      5  C   UNL     1       2.250  12.920  18.912  0.00  0.00    +0.000 C 
ATOM      6  O   UNL     1       2.526  12.614  17.748  0.00  0.00    +0.000 OA
ATOM      7  N   UNL     1       1.233  12.340  19.655  0.00  0.00    +0.000 N 
ENDROOT
BRANCH   1  13
ATOM      8  C   UNL     1      -0.900  11.716  22.488  0.00  0.00    +0.000 A 
ATOM      9  C   UNL     1      -2.200  11.708  23.014  0.00  0.00    +0.000 A 
ATOM     10  C   UNL     1      -3.184  12.514  22.465  0.00  0.00    +0.000 A 
ATOM     11  C   UNL     1      -2.866  13.347  21.400  0.00  0.00    +0.000 A 
ATOM     12  C   UNL     1      -1.555  13.420  20.895  0.00  0.00    +0.000 A 
ATOM     13  C   UNL     1      -0.529  12.627  21.456  0.00  0.00    +0.000 A 
BRANCH   8  15
ATOM     14  C   UNL     1      -0.390   9.556  23.325  0.00  0.00    +0.000 C 
ATOM     15  O   UNL     1       0.067  10.866  22.977  0.00  0.00    +0.000 OA
ENDBRANCH   8  15
BRANCH  12  16
ATOM     16  O   UNL     1      -1.410  14.430  19.980  0.00  0.00    +0.000 OA
ATOM     17  C   UNL     1      -1.591  15.763  20.435  0.00  0.00    +0.000 C 
ENDBRANCH  12  16
ENDBRANCH   1  13
BRANCH   7  18
ATOM     18  C   UNL     1       0.531  11.121  19.201  0.00  0.00    +0.000 C 
BRANCH  18  19
ATOM     19  C   UNL     1       1.232   9.791  19.144  0.00  0.00    +0.000 A 
ATOM     20  C   UNL     1       1.275   8.961  20.274  0.00  0.00    +0.000 A 
ATOM     21  C   UNL     1       1.842   7.686  20.194  0.00  0.00    +0.000 A 
ATOM     22  C   UNL     1       2.384   7.195  18.999  0.00  0.00    +0.000 A 
ATOM     23  C   UNL     1       2.384   8.056  17.894  0.00  0.00    +0.000 A 
ATOM     24  C   UNL     1       1.813   9.332  17.959  0.00  0.00    +0.000 A 
BRANCH  22  25
ATOM     25  N   UNL     1       2.918   5.916  18.858  0.00  0.00    +0.000 N 
ATOM     26  C   UNL     1       4.324   5.719  18.490  0.00  0.00    +0.000 C 
ATOM     27  C   UNL     1       4.280   4.850  17.241  0.00  0.00    +0.000 C 
ATOM     28  C   UNL     1       3.041   4.001  17.467  0.00  0.00    +0.000 C 
ATOM     29  C   UNL     1       2.061   4.986  18.101  0.00  0.00    +0.000 C 
ENDBRANCH  22  25
ENDBRANCH  18  19
ENDBRANCH   7  18
TORSDOF 6
ENDMDL
MODEL 3
REMARK VINA RESULT:      -7.5      3.672      9.481
REMARK  Name = 
REMARK  8 active torsions:
REMARK  status: ('A' for Active; 'I' for Inactive)
REMARK    1  A    between atoms: C_1  and  O_2
REMARK    2  A    between atoms: O_2  and  C_3
REMARK    3  A    between atoms: C_7  and  O_8
REMARK    4  A    between atoms: O_8  and  C_9
REMARK    5  A    between atoms: C_10  and  C_11
REMARK    6  A    between atoms: N_17  and  C_18
REMARK    7  A    between atoms: C_18  and  C_19
REMARK    8  A    between atoms: C_22  and  N_23
REMARK                            x       y       z     vdW  Elec       q    Type
REMARK                         _______ _______ _______ _____ _____    ______ ____
ROOT
ATOM      1  C   UNL     1       0.953  12.761  21.028  0.00  0.00    +0.000 C 
ATOM      2  C   UNL     1       1.607  14.067  21.513  0.00  0.00    +0.000 C 
ATOM      3  C   UNL     1       3.027  14.159  20.998  0.00  0.00    +0.000 C 
ATOM      4  C   UNL     1       3.026  14.111  19.490  0.00  0.00    +0.000 C 
ATOM      5  C   UNL     1       2.223  12.985  18.869  0.00  0.00    +0.000 C 
ATOM      6  O   UNL     1       2.468  12.714  17.690  0.00  0.00    +0.000 OA
ATOM      7  N   UNL     1       1.196  12.415  19.607  0.00  0.00    +0.000 N 
ENDROOT
BRANCH   1  13
ATOM      8  C   UNL     1      -0.906  11.782  22.472  0.00  0.00    +0.000 A 
ATOM      9  C   UNL     1      -2.198  11.807  23.019  0.00  0.00    +0.000 A 
ATOM     10  C   UNL     1      -3.165  12.652  22.500  0.00  0.00    +0.000 A 
ATOM     11  C   UNL     1      -2.837  13.492  21.444  0.00  0.00    +0.000 A 
ATOM     12  C   UNL     1      -1.533  13.533  20.918  0.00  0.00    +0.000 A 
ATOM     13  C   UNL     1      -0.524  12.698  21.450  0.00  0.00    +0.000 A 
BRANCH   8  15
ATOM     14  C   UNL     1      -0.458   9.604  23.298  0.00  0.00    +0.000 C 
ATOM     15  O   UNL     1       0.040  10.894  22.932  0.00  0.00    +0.000 OA
ENDBRANCH   8  15
BRANCH  12  16
ATOM     16  O   UNL     1      -1.370  14.552  20.017  0.00  0.00    +0.000 OA
ATOM     17  C   UNL     1      -1.707  15.866  20.440  0.00  0.00    +0.000 C 
ENDBRANCH  12  16
ENDBRANCH   1  13
BRANCH   7  18
ATOM     18  C   UNL     1       0.442  11.241  19.121  0.00  0.00    +0.000 C 
BRANCH  18  19
ATOM     19  C   UNL     1       1.071   9.876  19.064  0.00  0.00    +0.000 A 
ATOM     20  C   UNL     1       1.664   9.416  17.879  0.00  0.00    +0.000 A 
ATOM     21  C   UNL     1       2.333   8.189  17.853  0.00  0.00    +0.000 A 
ATOM     22  C   UNL     1       2.432   7.380  18.992  0.00  0.00    +0.000 A 
ATOM     23  C   UNL     1       1.788   7.827  20.154  0.00  0.00    +0.000 A 
ATOM     24  C   UNL     1       1.122   9.057  20.195  0.00  0.00    +0.000 A 
BRANCH  22  25
ATOM     25  N   UNL     1       3.126   6.172  19.028  0.00  0.00    +0.000 N 
ATOM     26  C   UNL     1       3.472   5.463  17.793  0.00  0.00    +0.000 C 
ATOM     27  C   UNL     1       2.871   4.074  17.962  0.00  0.00    +0.000 C 
ATOM     28  C   UNL     1       2.967   3.848  19.461  0.00  0.00    +0.000 C 
ATOM     29  C   UNL     1       2.629   5.222  20.037  0.00  0.00    +0.000 C 
ENDBRANCH  22  25
ENDBRANCH  18  19
ENDBRANCH   7  18
TORSDOF 6
ENDMDL
MODEL 4
REMARK VINA RESULT:      -7.5      1.431      2.883
REMARK  Name = 
REMARK  8 active torsions:
REMARK  status: ('A' for Active; 'I' for Inactive)
REMARK    1  A    between atoms: C_1  and  O_2
REMARK    2  A    between atoms: O_2  and  C_3
REMARK    3  A    between atoms: C_7  and  O_8
REMARK    4  A    between atoms: O_8  and  C_9
REMARK    5  A    between atoms: C_10  and  C_11
REMARK    6  A    between atoms: N_17  and  C_18
REMARK    7  A    between atoms: C_18  and  C_19
REMARK    8  A    between atoms: C_22  and  N_23
REMARK                            x       y       z     vdW  Elec       q    Type
REMARK                         _______ _______ _______ _____ _____    ______ ____
ROOT
ATOM      1  C   UNL     1       4.096   4.025  19.714  0.00  0.00    +0.000 C 
ATOM      2  C   UNL     1       3.641   2.572  19.938  0.00  0.00    +0.000 C 
ATOM      3  C   UNL     1       2.861   2.465  21.229  0.00  0.00    +0.000 C 
ATOM      4  C   UNL     1       1.662   3.379  21.178  0.00  0.00    +0.000 C 
ATOM      5  C   UNL     1       1.942   4.806  20.750  0.00  0.00    +0.000 C 
ATOM      6  O   UNL     1       1.076   5.645  21.016  0.00  0.00    +0.000 OA
ATOM      7  N   UNL     1       3.075   5.063  19.993  0.00  0.00    +0.000 N 
ENDROOT
BRANCH   1  13
ATOM      8  C   UNL     1       6.153   4.617  18.329  0.00  0.00    +0.000 A 
ATOM      9  C   UNL     1       6.896   4.603  17.139  0.00  0.00    +0.000 A 
ATOM     10  C   UNL     1       6.292   4.263  15.939  0.00  0.00    +0.000 A 
ATOM     11  C   UNL     1       4.948   3.915  15.929  0.00  0.00    +0.000 A 
ATOM     12  C   UNL     1       4.196   3.860  17.117  0.00  0.00    +0.000 A 
ATOM     13  C   UNL     1       4.798   4.177  18.356  0.00  0.00    +0.000 A 
BRANCH   8  15
ATOM     14  C   UNL     1       7.931   5.781  19.384  0.00  0.00    +0.000 C 
ATOM     15  O   UNL     1       6.724   5.024  19.514  0.00  0.00    +0.000 OA
ENDBRANCH   8  15
BRANCH  12  16
ATOM     16  O   UNL     1       2.954   3.318  16.918  0.00  0.00    +0.000 OA
ATOM     17  C   UNL     1       1.826   4.141  17.179  0.00  0.00    +0.000 C 
ENDBRANCH  12  16
ENDBRANCH   1  13
BRANCH   7  18
ATOM     18  C   UNL     1       3.480   6.438  19.633  0.00  0.00    +0.000 C 
BRANCH  18  19
ATOM     19  C   UNL     1       2.459   7.492  19.304  0.00  0.00    +0.000 A 
ATOM     20  C   UNL     1       1.810   8.198  20.328  0.00  0.00    +0.000 A 
ATOM     21  C   UNL     1       0.934   9.243  20.023  0.00  0.00    +0.000 A 
ATOM     22  C   UNL     1       0.670   9.619  18.699  0.00  0.00    +0.000 A 
ATOM     23  C   UNL     1       1.283   8.870  17.685  0.00  0.00    +0.000 A 
ATOM     24  C   UNL     1       2.168   7.827  17.978  0.00  0.00    +0.000 A 
BRANCH  22  25
ATOM     25  N   UNL     1      -0.158  10.682  18.345  0.00  0.00    +0.000 N 
ATOM     26  C   UNL     1      -0.389  11.799  19.267  0.00  0.00    +0.000 C 
ATOM     27  C   UNL     1      -1.902  11.863  19.427  0.00  0.00    +0.000 C 
ATOM     28  C   UNL     1      -2.402  11.393  18.072  0.00  0.00    +0.000 C 
ATOM     29  C   UNL     1      -1.426  10.274  17.715  0.00  0.00    +0.000 C 
ENDBRANCH  22  25
ENDBRANCH  18  19
ENDBRANCH   7  18
TORSDOF 6
ENDMDL
MODEL 5
REMARK VINA RESULT:      -7.2      0.612      2.428
REMARK  Name = 
REMARK  8 active torsions:
REMARK  status: ('A' for Active; 'I' for Inactive)
REMARK    1  A    between atoms: C_1  and  O_2
REMARK    2  A    between atoms: O_2  and  C_3
REMARK    3  A    between atoms: C_7  and  O_8
REMARK    4  A    between atoms: O_8  and  C_9
REMARK    5  A    between atoms: C_10  and  C_11
REMARK    6  A    between atoms: N_17  and  C_18
REMARK    7  A    between atoms: C_18  and  C_19
REMARK    8  A    between atoms: C_22  and  N_23
REMARK                            x       y       z     vdW  Elec       q    Type
REMARK                         _______ _______ _______ _____ _____    ______ ____
ROOT
ATOM      1  C   UNL     1       4.920   4.420  18.436  0.00  0.00    +0.000 C 
ATOM      2  C   UNL     1       5.034   3.324  17.362  0.00  0.00    +0.000 C 
ATOM      3  C   UNL     1       4.027   2.227  17.631  0.00  0.00    +0.000 C 
ATOM      4  C   UNL     1       2.634   2.804  17.632  0.00  0.00    +0.000 C 
ATOM      5  C   UNL     1       2.434   4.039  18.489  0.00  0.00    +0.000 C 
ATOM      6  O   UNL     1       1.271   4.330  18.780  0.00  0.00    +0.000 OA
ATOM      7  N   UNL     1       3.538   4.823  18.792  0.00  0.00    +0.000 N 
ENDROOT
BRANCH   1  13
ATOM      8  C   UNL     1       6.968   5.836  18.984  0.00  0.00    +0.000 A 
ATOM      9  C   UNL     1       7.954   6.777  18.650  0.00  0.00    +0.000 A 
ATOM     10  C   UNL     1       7.813   7.571  17.524  0.00  0.00    +0.000 A 
ATOM     11  C   UNL     1       6.695   7.413  16.716  0.00  0.00    +0.000 A 
ATOM     12  C   UNL     1       5.723   6.435  16.993  0.00  0.00    +0.000 A 
ATOM     13  C   UNL     1       5.859   5.595  18.122  0.00  0.00    +0.000 A 
BRANCH   8  15
ATOM     14  C   UNL     1       8.343   5.108  20.774  0.00  0.00    +0.000 C 
ATOM     15  O   UNL     1       7.061   5.093  20.140  0.00  0.00    +0.000 OA
ENDBRANCH   8  15
BRANCH  12  16
ATOM     16  O   UNL     1       4.807   6.315  15.982  0.00  0.00    +0.000 OA
ATOM     17  C   UNL     1       5.224   5.668  14.788  0.00  0.00    +0.000 C 
ENDBRANCH  12  16
ENDBRANCH   1  13
BRANCH   7  18
ATOM     18  C   UNL     1       3.450   5.976  19.711  0.00  0.00    +0.000 C 
BRANCH  18  19
ATOM     19  C   UNL     1       2.565   7.153  19.406  0.00  0.00    +0.000 A 
ATOM     20  C   UNL     1       1.794   7.745  20.418  0.00  0.00    +0.000 A 
ATOM     21  C   UNL     1       1.047   8.897  20.157  0.00  0.00    +0.000 A 
ATOM     22  C   UNL     1       1.036   9.495  18.890  0.00  0.00    +0.000 A 
ATOM     23  C   UNL     1       1.766   8.861  17.875  0.00  0.00    +0.000 A 
ATOM     24  C   UNL     1       2.524   7.713  18.126  0.00  0.00    +0.000 A 
BRANCH  22  25
ATOM     25  N   UNL     1       0.345  10.668  18.592  0.00  0.00    +0.000 N 
ATOM     26  C   UNL     1       0.438  11.842  19.465  0.00  0.00    +0.000 C 
ATOM     27  C   UNL     1      -1.003  12.166  19.836  0.00  0.00    +0.000 C 
ATOM     28  C   UNL     1      -1.771  11.734  18.598  0.00  0.00    +0.000 C 
ATOM     29  C   UNL     1      -1.052  10.454  18.176  0.00  0.00    +0.000 C 
ENDBRANCH  22  25
ENDBRANCH  18  19
ENDBRANCH   7  18
TORSDOF 6
ENDMDL
MODEL 6
REMARK VINA RESULT:      -7.2      1.738      3.302
REMARK  Name = 
REMARK  8 active torsions:
REMARK  status: ('A' for Active; 'I' for Inactive)
REMARK    1  A    between atoms: C_1  and  O_2
REMARK    2  A    between atoms: O_2  and  C_3
REMARK    3  A    between atoms: C_7  and  O_8
REMARK    4  A    between atoms: O_8  and  C_9
REMARK    5  A    between atoms: C_10  and  C_11
REMARK    6  A    between atoms: N_17  and  C_18
REMARK    7  A    between atoms: C_18  and  C_19
REMARK    8  A    between atoms: C_22  and  N_23
REMARK                            x       y       z     vdW  Elec       q    Type
REMARK                         _______ _______ _______ _____ _____    ______ ____
ROOT
ATOM      1  C   UNL     1       3.978   4.263  19.722  0.00  0.00    +0.000 C 
ATOM      2  C   UNL     1       3.812   2.805  20.186  0.00  0.00    +0.000 C 
ATOM      3  C   UNL     1       2.917   2.745  21.404  0.00  0.00    +0.000 C 
ATOM      4  C   UNL     1       1.569   3.338  21.075  0.00  0.00    +0.000 C 
ATOM      5  C   UNL     1       1.595   4.696  20.402  0.00  0.00    +0.000 C 
ATOM      6  O   UNL     1       0.547   5.348  20.427  0.00  0.00    +0.000 OA
ATOM      7  N   UNL     1       2.736   5.072  19.707  0.00  0.00    +0.000 N 
ENDROOT
BRANCH   1  13
ATOM      8  C   UNL     1       6.172   4.697  18.500  0.00  0.00    +0.000 A 
ATOM      9  C   UNL     1       7.007   4.607  17.376  0.00  0.00    +0.000 A 
ATOM     10  C   UNL     1       6.485   4.268  16.138  0.00  0.00    +0.000 A 
ATOM     11  C   UNL     1       5.127   3.998  16.024  0.00  0.00    +0.000 A 
ATOM     12  C   UNL     1       4.279   4.019  17.147  0.00  0.00    +0.000 A 
ATOM     13  C   UNL     1       4.796   4.336  18.424  0.00  0.00    +0.000 A 
BRANCH   8  15
ATOM     14  C   UNL     1       7.918   5.797  19.670  0.00  0.00    +0.000 C 
ATOM     15  O   UNL     1       6.668   5.104  19.718  0.00  0.00    +0.000 OA
ENDBRANCH   8  15
BRANCH  12  16
ATOM     16  O   UNL     1       3.027   3.544  16.858  0.00  0.00    +0.000 OA
ATOM     17  C   UNL     1       2.711   2.224  17.276  0.00  0.00    +0.000 C 
ENDBRANCH  12  16
ENDBRANCH   1  13
BRANCH   7  18
ATOM     18  C   UNL     1       2.885   6.420  19.121  0.00  0.00    +0.000 C 
BRANCH  18  19
ATOM     19  C   UNL     1       2.073   7.583  19.619  0.00  0.00    +0.000 A 
ATOM     20  C   UNL     1       1.562   8.531  18.720  0.00  0.00    +0.000 A 
ATOM     21  C   UNL     1       0.727   9.558  19.171  0.00  0.00    +0.000 A 
ATOM     22  C   UNL     1       0.376   9.680  20.521  0.00  0.00    +0.000 A 
ATOM     23  C   UNL     1       0.937   8.759  21.416  0.00  0.00    +0.000 A 
ATOM     24  C   UNL     1       1.767   7.723  20.976  0.00  0.00    +0.000 A 
BRANCH  22  25
ATOM     25  N   UNL     1      -0.488  10.657  21.012  0.00  0.00    +0.000 N 
ATOM     26  C   UNL     1      -0.366  12.056  20.590  0.00  0.00    +0.000 C 
ATOM     27  C   UNL     1      -0.208  12.840  21.885  0.00  0.00    +0.000 C 
ATOM     28  C   UNL     1      -1.026  12.023  22.872  0.00  0.00    +0.000 C 
ATOM     29  C   UNL     1      -0.717  10.584  22.465  0.00  0.00    +0.000 C 
ENDBRANCH  22  25
ENDBRANCH  18  19
ENDBRANCH   7  18
TORSDOF 6
ENDMDL
MODEL 7
REMARK VINA RESULT:      -7.2      1.425      1.961
REMARK  Name = 
REMARK  8 active torsions:
REMARK  status: ('A' for Active; 'I' for Inactive)
REMARK    1  A    between atoms: C_1  and  O_2
REMARK    2  A    between atoms: O_2  and  C_3
REMARK    3  A    between atoms: C_7  and  O_8
REMARK    4  A    between atoms: O_8  and  C_9
REMARK    5  A    between atoms: C_10  and  C_11
REMARK    6  A    between atoms: N_17  and  C_18
REMARK    7  A    between atoms: C_18  and  C_19
REMARK    8  A    between atoms: C_22  and  N_23
REMARK                            x       y       z     vdW  Elec       q    Type
REMARK                         _______ _______ _______ _____ _____    ______ ____
ROOT
ATOM      1  C   UNL     1       4.006   3.948  19.847  0.00  0.00    +0.000 C 
ATOM      2  C   UNL     1       3.518   2.504  20.057  0.00  0.00    +0.000 C 
ATOM      3  C   UNL     1       2.638   2.427  21.285  0.00  0.00    +0.000 C 
ATOM      4  C   UNL     1       1.457   3.352  21.125  0.00  0.00    +0.000 C 
ATOM      5  C   UNL     1       1.786   4.769  20.698  0.00  0.00    +0.000 C 
ATOM      6  O   UNL     1       0.912   5.621  20.883  0.00  0.00    +0.000 OA
ATOM      7  N   UNL     1       2.978   5.001  20.028  0.00  0.00    +0.000 N 
ENDROOT
BRANCH   1  13
ATOM      8  C   UNL     1       4.195   3.697  17.317  0.00  0.00    +0.000 A 
ATOM      9  C   UNL     1       4.817   3.954  16.086  0.00  0.00    +0.000 A 
ATOM     10  C   UNL     1       6.098   4.480  16.043  0.00  0.00    +0.000 A 
ATOM     11  C   UNL     1       6.755   4.770  17.232  0.00  0.00    +0.000 A 
ATOM     12  C   UNL     1       6.130   4.581  18.479  0.00  0.00    +0.000 A 
ATOM     13  C   UNL     1       4.813   4.070  18.545  0.00  0.00    +0.000 A 
BRANCH   8  15
ATOM     14  C   UNL     1       1.849   3.982  17.120  0.00  0.00    +0.000 C 
ATOM     15  O   UNL     1       2.952   3.107  17.372  0.00  0.00    +0.000 OA
ENDBRANCH   8  15
BRANCH  12  16
ATOM     16  O   UNL     1       6.867   5.099  19.510  0.00  0.00    +0.000 OA
ATOM     17  C   UNL     1       7.967   5.934  19.180  0.00  0.00    +0.000 C 
ENDBRANCH  12  16
ENDBRANCH   1  13
BRANCH   7  18
ATOM     18  C   UNL     1       3.426   6.365  19.679  0.00  0.00    +0.000 C 
BRANCH  18  19
ATOM     19  C   UNL     1       2.439   7.449  19.340  0.00  0.00    +0.000 A 
ATOM     20  C   UNL     1       1.802   8.175  20.357  0.00  0.00    +0.000 A 
ATOM     21  C   UNL     1       0.960   9.245  20.043  0.00  0.00    +0.000 A 
ATOM     22  C   UNL     1       0.719   9.626  18.716  0.00  0.00    +0.000 A 
ATOM     23  C   UNL     1       1.318   8.858  17.709  0.00  0.00    +0.000 A 
ATOM     24  C   UNL     1       2.169   7.790  18.011  0.00  0.00    +0.000 A 
BRANCH  22  25
ATOM     25  N   UNL     1      -0.076  10.712  18.354  0.00  0.00    +0.000 N 
ATOM     26  C   UNL     1      -0.216  11.874  19.238  0.00  0.00    +0.000 C 
ATOM     27  C   UNL     1      -1.716  12.016  19.458  0.00  0.00    +0.000 C 
ATOM     28  C   UNL     1      -2.295  11.517  18.145  0.00  0.00    +0.000 C 
ATOM     29  C   UNL     1      -1.386  10.340  17.794  0.00  0.00    +0.000 C 
ENDBRANCH  22  25
ENDBRANCH  18  19
ENDBRANCH   7  18
TORSDOF 6
ENDMDL
MODEL 8
REMARK VINA RESULT:      -7.1      1.698      3.190
REMARK  Name = 
REMARK  8 active torsions:
REMARK  status: ('A' for Active; 'I' for Inactive)
REMARK    1  A    between atoms: C_1  and  O_2
REMARK    2  A    between atoms: O_2  and  C_3
REMARK    3  A    between atoms: C_7  and  O_8
REMARK    4  A    between atoms: O_8  and  C_9
REMARK    5  A    between atoms: C_10  and  C_11
REMARK    6  A    between atoms: N_17  and  C_18
REMARK    7  A    between atoms: C_18  and  C_19
REMARK    8  A    between atoms: C_22  and  N_23
REMARK                            x       y       z     vdW  Elec       q    Type
REMARK                         _______ _______ _______ _____ _____    ______ ____
ROOT
ATOM      1  C   UNL     1       3.845   4.264  19.728  0.00  0.00    +0.000 C 
ATOM      2  C   UNL     1       3.806   2.821  20.260  0.00  0.00    +0.000 C 
ATOM      3  C   UNL     1       2.911   2.739  21.477  0.00  0.00    +0.000 C 
ATOM      4  C   UNL     1       1.519   3.194  21.116  0.00  0.00    +0.000 C 
ATOM      5  C   UNL     1       1.429   4.516  20.380  0.00  0.00    +0.000 C 
ATOM      6  O   UNL     1       0.327   5.072  20.370  0.00  0.00    +0.000 OA
ATOM      7  N   UNL     1       2.536   4.958  19.671  0.00  0.00    +0.000 N 
ENDROOT
BRANCH   1  13
ATOM      8  C   UNL     1       6.027   4.753  18.504  0.00  0.00    +0.000 A 
ATOM      9  C   UNL     1       6.866   4.676  17.382  0.00  0.00    +0.000 A 
ATOM     10  C   UNL     1       6.356   4.308  16.147  0.00  0.00    +0.000 A 
ATOM     11  C   UNL     1       5.008   3.994  16.035  0.00  0.00    +0.000 A 
ATOM     12  C   UNL     1       4.158   4.002  17.156  0.00  0.00    +0.000 A 
ATOM     13  C   UNL     1       4.663   4.349  18.430  0.00  0.00    +0.000 A 
BRANCH   8  15
ATOM     14  C   UNL     1       7.852   5.678  19.704  0.00  0.00    +0.000 C 
ATOM     15  O   UNL     1       6.508   5.188  19.718  0.00  0.00    +0.000 OA
ENDBRANCH   8  15
BRANCH  12  16
ATOM     16  O   UNL     1       2.922   3.484  16.871  0.00  0.00    +0.000 OA
ATOM     17  C   UNL     1       2.638   2.168  17.323  0.00  0.00    +0.000 C 
ENDBRANCH  12  16
ENDBRANCH   1  13
BRANCH   7  18
ATOM     18  C   UNL     1       2.570   6.285  19.022  0.00  0.00    +0.000 C 
BRANCH  18  19
ATOM     19  C   UNL     1       1.935   7.487  19.665  0.00  0.00    +0.000 A 
ATOM     20  C   UNL     1       1.774   7.547  21.057  0.00  0.00    +0.000 A 
ATOM     21  C   UNL     1       1.272   8.702  21.663  0.00  0.00    +0.000 A 
ATOM     22  C   UNL     1       0.911   9.829  20.913  0.00  0.00    +0.000 A 
ATOM     23  C   UNL     1       1.026   9.735  19.519  0.00  0.00    +0.000 A 
ATOM     24  C   UNL     1       1.534   8.587  18.902  0.00  0.00    +0.000 A 
BRANCH  22  25
ATOM     25  N   UNL     1       0.450  11.018  21.473  0.00  0.00    +0.000 N 
ATOM     26  C   UNL     1      -0.577  11.013  22.519  0.00  0.00    +0.000 C 
ATOM     27  C   UNL     1      -1.688  11.902  21.977  0.00  0.00    +0.000 C 
ATOM     28  C   UNL     1      -0.925  12.919  21.146  0.00  0.00    +0.000 C 
ATOM     29  C   UNL     1       0.167  12.077  20.490  0.00  0.00    +0.000 C 
ENDBRANCH  22  25
ENDBRANCH  18  19
ENDBRANCH   7  18
TORSDOF 6
ENDMDL
MODEL 9
REMARK VINA RESULT:      -7.1      3.833      9.260
REMARK  Name = 
REMARK  8 active torsions:
REMARK  status: ('A' for Active; 'I' for Inactive)
REMARK    1  A    between atoms: C_1  and  O_2
REMARK    2  A    between atoms: O_2  and  C_3
REMARK    3  A    between atoms: C_7  and  O_8
REMARK    4  A    between atoms: O_8  and  C_9
REMARK    5  A    between atoms: C_10  and  C_11
REMARK    6  A    between atoms: N_17  and  C_18
REMARK    7  A    between atoms: C_18  and  C_19
REMARK    8  A    between atoms: C_22  and  N_23
REMARK                            x       y       z     vdW  Elec       q    Type
REMARK                         _______ _______ _______ _____ _____    ______ ____
ROOT
ATOM      1  C   UNL     1       1.106  12.942  20.902  0.00  0.00    +0.000 C 
ATOM      2  C   UNL     1       1.763  14.265  21.334  0.00  0.00    +0.000 C 
ATOM      3  C   UNL     1       3.186  14.328  20.823  0.00  0.00    +0.000 C 
ATOM      4  C   UNL     1       3.193  14.217  19.319  0.00  0.00    +0.000 C 
ATOM      5  C   UNL     1       2.388  13.069  18.742  0.00  0.00    +0.000 C 
ATOM      6  O   UNL     1       2.637  12.747  17.577  0.00  0.00    +0.000 OA
ATOM      7  N   UNL     1       1.355  12.535  19.499  0.00  0.00    +0.000 N 
ENDROOT
BRANCH   1  13
ATOM      8  C   UNL     1      -1.308  13.709  20.606  0.00  0.00    +0.000 A 
ATOM      9  C   UNL     1      -2.688  13.579  20.823  0.00  0.00    +0.000 A 
ATOM     10  C   UNL     1      -3.167  12.741  21.816  0.00  0.00    +0.000 A 
ATOM     11  C   UNL     1      -2.267  12.012  22.583  0.00  0.00    +0.000 A 
ATOM     12  C   UNL     1      -0.882  12.075  22.345  0.00  0.00    +0.000 A 
ATOM     13  C   UNL     1      -0.373  12.904  21.319  0.00  0.00    +0.000 A 
BRANCH   8  15
ATOM     14  C   UNL     1      -1.114  15.971  19.919  0.00  0.00    +0.000 C 
ATOM     15  O   UNL     1      -0.818  14.594  19.671  0.00  0.00    +0.000 OA
ENDBRANCH   8  15
BRANCH  12  16
ATOM     16  O   UNL     1      -0.189  11.146  23.075  0.00  0.00    +0.000 OA
ATOM     17  C   UNL     1      -0.771   9.861  23.230  0.00  0.00    +0.000 C 
ENDBRANCH  12  16
ENDBRANCH   1  13
BRANCH   7  18
ATOM     18  C   UNL     1       0.597  11.345  19.059  0.00  0.00    +0.000 C 
BRANCH  18  19
ATOM     19  C   UNL     1       1.196   9.967  19.131  0.00  0.00    +0.000 A 
ATOM     20  C   UNL     1       1.148   9.233  20.326  0.00  0.00    +0.000 A 
ATOM     21  C   UNL     1       1.617   7.917  20.367  0.00  0.00    +0.000 A 
ATOM     22  C   UNL     1       2.149   7.289  19.233  0.00  0.00    +0.000 A 
ATOM     23  C   UNL     1       2.241   8.053  18.061  0.00  0.00    +0.000 A 
ATOM     24  C   UNL     1       1.768   9.368  18.005  0.00  0.00    +0.000 A 
BRANCH  22  25
ATOM     25  N   UNL     1       2.587   5.967  19.213  0.00  0.00    +0.000 N 
ATOM     26  C   UNL     1       2.783   5.255  17.946  0.00  0.00    +0.000 C 
ATOM     27  C   UNL     1       1.915   4.010  18.061  0.00  0.00    +0.000 C 
ATOM     28  C   UNL     1       1.963   3.705  19.549  0.00  0.00    +0.000 C 
ATOM     29  C   UNL     1       1.908   5.093  20.185  0.00  0.00    +0.000 C 
ENDBRANCH  22  25
ENDBRANCH  18  19
ENDBRANCH   7  18
TORSDOF 6
ENDMDL
