MODEL 1
REMARK VINA RESULT:      -8.3      0.000      0.000
REMARK  Name = 
REMARK  3 active torsions:
REMARK  status: ('A' for Active; 'I' for Inactive)
REMARK    1  A    between atoms: C_4  and  C_5
REMARK    2  A    between atoms: C_5  and  C_6
REMARK    3  A    between atoms: C_19  and  O_20
REMARK                            x       y       z     vdW  Elec       q    Type
REMARK                         _______ _______ _______ _____ _____    ______ ____
ROOT
ATOM      1  C   UNL     1       3.714   3.933  18.428  0.00  0.00    +0.000 C 
ENDROOT
BRANCH   1   2
ATOM      2  C   UNL     1       3.079   5.214  18.931  0.00  0.00    +0.000 A 
ATOM      3  C   UNL     1       2.530   5.276  20.217  0.00  0.00    +0.000 A 
ATOM      4  C   UNL     1       1.900   6.439  20.665  0.00  0.00    +0.000 A 
ATOM      5  C   UNL     1       1.805   7.567  19.840  0.00  0.00    +0.000 A 
ATOM      6  C   UNL     1       1.166   8.740  20.272  0.00  0.00    +0.000 A 
ATOM      7  C   UNL     1       1.085   9.860  19.441  0.00  0.00    +0.000 A 
ATOM      8  C   UNL     1       1.649   9.821  18.171  0.00  0.00    +0.000 A 
ATOM      9  C   UNL     1       2.285   8.661  17.723  0.00  0.00    +0.000 A 
ATOM     10  C   UNL     1       2.367   7.524  18.543  0.00  0.00    +0.000 A 
ATOM     11  C   UNL     1       2.993   6.344  18.102  0.00  0.00    +0.000 A 
ENDBRANCH   1   2
BRANCH   1  15
ATOM     12  O   UNL     1       5.542   4.071  13.945  0.00  0.00    +0.000 OA
ATOM     13  C   UNL     1       5.703   4.342  15.127  0.00  0.00    +0.000 C 
ATOM     14  C   UNL     1       4.633   4.051  16.102  0.00  0.00    +0.000 C 
ATOM     15  C   UNL     1       4.808   4.190  17.425  0.00  0.00    +0.000 C 
ATOM     16  C   UNL     1       6.143   4.575  17.943  0.00  0.00    +0.000 C 
ATOM     17  O   UNL     1       6.437   4.490  19.128  0.00  0.00    +0.000 OA
ATOM     18  C   UNL     1       7.134   5.085  16.972  0.00  0.00    +0.000 C 
ATOM     19  C   UNL     1       6.940   4.996  15.653  0.00  0.00    +0.000 C 
BRANCH  19  20
ATOM     20  O   UNL     1       7.856   5.478  14.735  0.00  0.00    +0.000 OA
ATOM     21  H   UNL     1       8.098   6.391  14.962  0.00  0.00    +0.000 HD
ENDBRANCH  19  20
ENDBRANCH   1  15
TORSDOF 3
ENDMDL
MODEL 2
REMARK VINA RESULT:      -8.2      2.560      3.971
REMARK  Name = 
REMARK  3 active torsions:
REMARK  status: ('A' for Active; 'I' for Inactive)
REMARK    1  A    between atoms: C_4  and  C_5
REMARK    2  A    between atoms: C_5  and  C_6
REMARK    3  A    between atoms: C_19  and  O_20
REMARK                            x       y       z     vdW  Elec       q    Type
REMARK                         _______ _______ _______ _____ _____    ______ ____
ROOT
ATOM      1  C   UNL     1       3.422   6.953  17.812  0.00  0.00    +0.000 C 
ENDROOT
BRANCH   1   2
ATOM      2  C   UNL     1       2.418   7.862  18.493  0.00  0.00    +0.000 A 
ATOM      3  C   UNL     1       1.764   8.864  17.767  0.00  0.00    +0.000 A 
ATOM      4  C   UNL     1       0.875   9.735  18.401  0.00  0.00    +0.000 A 
ATOM      5  C   UNL     1       0.619   9.625  19.774  0.00  0.00    +0.000 A 
ATOM      6  C   UNL     1      -0.263  10.500  20.429  0.00  0.00    +0.000 A 
ATOM      7  C   UNL     1      -0.514  10.373  21.797  0.00  0.00    +0.000 A 
ATOM      8  C   UNL     1       0.110   9.366  22.525  0.00  0.00    +0.000 A 
ATOM      9  C   UNL     1       0.993   8.489  21.891  0.00  0.00    +0.000 A 
ATOM     10  C   UNL     1       1.263   8.608  20.518  0.00  0.00    +0.000 A 
ATOM     11  C   UNL     1       2.160   7.742  19.868  0.00  0.00    +0.000 A 
ENDBRANCH   1   2
BRANCH   1  15
ATOM     12  O   UNL     1       0.766   2.912  18.074  0.00  0.00    +0.000 OA
ATOM     13  C   UNL     1       1.870   3.423  18.200  0.00  0.00    +0.000 C 
ATOM     14  C   UNL     1       2.058   4.856  17.895  0.00  0.00    +0.000 C 
ATOM     15  C   UNL     1       3.205   5.501  18.153  0.00  0.00    +0.000 C 
ATOM     16  C   UNL     1       4.304   4.781  18.839  0.00  0.00    +0.000 C 
ATOM     17  O   UNL     1       5.273   5.360  19.314  0.00  0.00    +0.000 OA
ATOM     18  C   UNL     1       4.205   3.310  18.934  0.00  0.00    +0.000 C 
ATOM     19  C   UNL     1       3.080   2.657  18.628  0.00  0.00    +0.000 C 
BRANCH  19  20
ATOM     20  O   UNL     1       2.980   1.279  18.702  0.00  0.00    +0.000 OA
ATOM     21  H   UNL     1       2.790   1.013  19.616  0.00  0.00    +0.000 HD
ENDBRANCH  19  20
ENDBRANCH   1  15
TORSDOF 3
ENDMDL
MODEL 3
REMARK VINA RESULT:      -7.9      2.502      3.626
REMARK  Name = 
REMARK  3 active torsions:
REMARK  status: ('A' for Active; 'I' for Inactive)
REMARK    1  A    between atoms: C_4  and  C_5
REMARK    2  A    between atoms: C_5  and  C_6
REMARK    3  A    between atoms: C_19  and  O_20
REMARK                            x       y       z     vdW  Elec       q    Type
REMARK                         _______ _______ _______ _____ _____    ______ ____
ROOT
ATOM      1  C   UNL     1       3.202   6.873  17.825  0.00  0.00    +0.000 C 
ENDROOT
BRANCH   1   2
ATOM      2  C   UNL     1       2.346   7.724  18.743  0.00  0.00    +0.000 A 
ATOM      3  C   UNL     1       2.162   7.357  20.081  0.00  0.00    +0.000 A 
ATOM      4  C   UNL     1       1.334   8.111  20.916  0.00  0.00    +0.000 A 
ATOM      5  C   UNL     1       0.672   9.247  20.435  0.00  0.00    +0.000 A 
ATOM      6  C   UNL     1      -0.172  10.010  21.258  0.00  0.00    +0.000 A 
ATOM      7  C   UNL     1      -0.819  11.146  20.766  0.00  0.00    +0.000 A 
ATOM      8  C   UNL     1      -0.624  11.536  19.446  0.00  0.00    +0.000 A 
ATOM      9  C   UNL     1       0.209  10.787  18.611  0.00  0.00    +0.000 A 
ATOM     10  C   UNL     1       0.860   9.639  19.088  0.00  0.00    +0.000 A 
ATOM     11  C   UNL     1       1.691   8.867  18.256  0.00  0.00    +0.000 A 
ENDBRANCH   1   2
BRANCH   1  15
ATOM     12  O   UNL     1       0.783   2.687  18.114  0.00  0.00    +0.000 OA
ATOM     13  C   UNL     1       1.865   3.254  18.190  0.00  0.00    +0.000 C 
ATOM     14  C   UNL     1       1.958   4.703  17.921  0.00  0.00    +0.000 C 
ATOM     15  C   UNL     1       3.083   5.402  18.130  0.00  0.00    +0.000 C 
ATOM     16  C   UNL     1       4.259   4.723  18.724  0.00  0.00    +0.000 C 
ATOM     17  O   UNL     1       5.224   5.340  19.159  0.00  0.00    +0.000 OA
ATOM     18  C   UNL     1       4.244   3.247  18.776  0.00  0.00    +0.000 C 
ATOM     19  C   UNL     1       3.138   2.542  18.517  0.00  0.00    +0.000 C 
BRANCH  19  20
ATOM     20  O   UNL     1       3.115   1.160  18.552  0.00  0.00    +0.000 OA
ATOM     21  H   UNL     1       2.743   0.859  19.397  0.00  0.00    +0.000 HD
ENDBRANCH  19  20
ENDBRANCH   1  15
TORSDOF 3
ENDMDL
MODEL 4
REMARK VINA RESULT:      -7.7      0.913      1.927
REMARK  Name = 
REMARK  3 active torsions:
REMARK  status: ('A' for Active; 'I' for Inactive)
REMARK    1  A    between atoms: C_4  and  C_5
REMARK    2  A    between atoms: C_5  and  C_6
REMARK    3  A    between atoms: C_19  and  O_20
REMARK                            x       y       z     vdW  Elec       q    Type
REMARK                         _______ _______ _______ _____ _____    ______ ____
ROOT
ATOM      1  C   UNL     1       3.553   5.018  18.998  0.00  0.00    +0.000 C 
ENDROOT
BRANCH   1   2
ATOM      2  C   UNL     1       2.837   6.354  19.045  0.00  0.00    +0.000 A 
ATOM      3  C   UNL     1       2.850   7.204  17.934  0.00  0.00    +0.000 A 
ATOM      4  C   UNL     1       2.234   8.456  17.991  0.00  0.00    +0.000 A 
ATOM      5  C   UNL     1       1.591   8.887  19.158  0.00  0.00    +0.000 A 
ATOM      6  C   UNL     1       0.975  10.147  19.235  0.00  0.00    +0.000 A 
ATOM      7  C   UNL     1       0.331  10.560  20.404  0.00  0.00    +0.000 A 
ATOM      8  C   UNL     1       0.289   9.715  21.506  0.00  0.00    +0.000 A 
ATOM      9  C   UNL     1       0.899   8.459  21.449  0.00  0.00    +0.000 A 
ATOM     10  C   UNL     1       1.557   8.033  20.285  0.00  0.00    +0.000 A 
ATOM     11  C   UNL     1       2.188   6.777  20.216  0.00  0.00    +0.000 A 
ENDBRANCH   1   2
BRANCH   1  15
ATOM     12  O   UNL     1       5.346   4.115  14.590  0.00  0.00    +0.000 OA
ATOM     13  C   UNL     1       5.535   4.612  15.692  0.00  0.00    +0.000 C 
ATOM     14  C   UNL     1       4.457   4.597  16.702  0.00  0.00    +0.000 C 
ATOM     15  C   UNL     1       4.653   4.994  17.968  0.00  0.00    +0.000 C 
ATOM     16  C   UNL     1       6.014   5.392  18.401  0.00  0.00    +0.000 C 
ATOM     17  O   UNL     1       6.313   5.533  19.580  0.00  0.00    +0.000 OA
ATOM     18  C   UNL     1       7.026   5.626  17.351  0.00  0.00    +0.000 C 
ATOM     19  C   UNL     1       6.816   5.280  16.077  0.00  0.00    +0.000 C 
BRANCH  19  20
ATOM     20  O   UNL     1       7.752   5.504  15.084  0.00  0.00    +0.000 OA
ATOM     21  H   UNL     1       7.726   4.780  14.439  0.00  0.00    +0.000 HD
ENDBRANCH  19  20
ENDBRANCH   1  15
TORSDOF 3
ENDMDL
MODEL 5
REMARK VINA RESULT:      -7.7      2.022      3.157
REMARK  Name = 
REMARK  3 active torsions:
REMARK  status: ('A' for Active; 'I' for Inactive)
REMARK    1  A    between atoms: C_4  and  C_5
REMARK    2  A    between atoms: C_5  and  C_6
REMARK    3  A    between atoms: C_19  and  O_20
REMARK                            x       y       z     vdW  Elec       q    Type
REMARK                         _______ _______ _______ _____ _____    ______ ____
ROOT
ATOM      1  C   UNL     1       3.038   6.137  17.643  0.00  0.00    +0.000 C 
ENDROOT
BRANCH   1   2
ATOM      2  C   UNL     1       2.370   7.323  18.309  0.00  0.00    +0.000 A 
ATOM      3  C   UNL     1       2.109   8.490  17.581  0.00  0.00    +0.000 A 
ATOM      4  C   UNL     1       1.538   9.602  18.204  0.00  0.00    +0.000 A 
ATOM      5  C   UNL     1       1.216   9.575  19.567  0.00  0.00    +0.000 A 
ATOM      6  C   UNL     1       0.652  10.689  20.211  0.00  0.00    +0.000 A 
ATOM      7  C   UNL     1       0.329  10.644  21.569  0.00  0.00    +0.000 A 
ATOM      8  C   UNL     1       0.560   9.483  22.298  0.00  0.00    +0.000 A 
ATOM      9  C   UNL     1       1.123   8.367  21.675  0.00  0.00    +0.000 A 
ATOM     10  C   UNL     1       1.462   8.398  20.312  0.00  0.00    +0.000 A 
ATOM     11  C   UNL     1       2.042   7.287  19.674  0.00  0.00    +0.000 A 
ENDBRANCH   1   2
BRANCH   1  15
ATOM     12  O   UNL     1       7.680   7.211  16.771  0.00  0.00    +0.000 OA
ATOM     13  C   UNL     1       6.871   6.698  17.534  0.00  0.00    +0.000 C 
ATOM     14  C   UNL     1       5.430   6.740  17.215  0.00  0.00    +0.000 C 
ATOM     15  C   UNL     1       4.515   6.072  17.934  0.00  0.00    +0.000 C 
ATOM     16  C   UNL     1       4.963   5.195  19.042  0.00  0.00    +0.000 C 
ATOM     17  O   UNL     1       4.219   4.383  19.578  0.00  0.00    +0.000 OA
ATOM     18  C   UNL     1       6.360   5.331  19.502  0.00  0.00    +0.000 C 
ATOM     19  C   UNL     1       7.263   6.040  18.817  0.00  0.00    +0.000 C 
BRANCH  19  20
ATOM     20  O   UNL     1       8.571   6.183  19.243  0.00  0.00    +0.000 OA
ATOM     21  H   UNL     1       8.713   5.657  20.047  0.00  0.00    +0.000 HD
ENDBRANCH  19  20
ENDBRANCH   1  15
TORSDOF 3
ENDMDL
MODEL 6
REMARK VINA RESULT:      -7.7      1.338      2.502
REMARK  Name = 
REMARK  3 active torsions:
REMARK  status: ('A' for Active; 'I' for Inactive)
REMARK    1  A    between atoms: C_4  and  C_5
REMARK    2  A    between atoms: C_5  and  C_6
REMARK    3  A    between atoms: C_19  and  O_20
REMARK                            x       y       z     vdW  Elec       q    Type
REMARK                         _______ _______ _______ _____ _____    ______ ____
ROOT
ATOM      1  C   UNL     1       3.003   5.161  17.823  0.00  0.00    +0.000 C 
ENDROOT
BRANCH   1   2
ATOM      2  C   UNL     1       2.489   6.351  18.608  0.00  0.00    +0.000 A 
ATOM      3  C   UNL     1       2.105   6.204  19.947  0.00  0.00    +0.000 A 
ATOM      4  C   UNL     1       1.585   7.287  20.659  0.00  0.00    +0.000 A 
ATOM      5  C   UNL     1       1.436   8.541  20.052  0.00  0.00    +0.000 A 
ATOM      6  C   UNL     1       0.904   9.637  20.750  0.00  0.00    +0.000 A 
ATOM      7  C   UNL     1       0.769  10.883  20.133  0.00  0.00    +0.000 A 
ATOM      8  C   UNL     1       1.169  11.048  18.812  0.00  0.00    +0.000 A 
ATOM      9  C   UNL     1       1.696   9.968  18.100  0.00  0.00    +0.000 A 
ATOM     10  C   UNL     1       1.832   8.707  18.704  0.00  0.00    +0.000 A 
ATOM     11  C   UNL     1       2.348   7.607  17.996  0.00  0.00    +0.000 A 
ENDBRANCH   1   2
BRANCH   1  15
ATOM     12  O   UNL     1       7.308   5.440  20.024  0.00  0.00    +0.000 OA
ATOM     13  C   UNL     1       6.688   5.110  19.023  0.00  0.00    +0.000 C 
ATOM     14  C   UNL     1       5.219   5.257  18.984  0.00  0.00    +0.000 C 
ATOM     15  C   UNL     1       4.505   5.050  17.867  0.00  0.00    +0.000 C 
ATOM     16  C   UNL     1       5.212   4.738  16.602  0.00  0.00    +0.000 C 
ATOM     17  O   UNL     1       4.654   4.772  15.512  0.00  0.00    +0.000 OA
ATOM     18  C   UNL     1       6.640   4.367  16.688  0.00  0.00    +0.000 C 
ATOM     19  C   UNL     1       7.343   4.522  17.815  0.00  0.00    +0.000 C 
BRANCH  19  20
ATOM     20  O   UNL     1       8.676   4.169  17.910  0.00  0.00    +0.000 OA
ATOM     21  H   UNL     1       9.144   4.802  18.478  0.00  0.00    +0.000 HD
ENDBRANCH  19  20
ENDBRANCH   1  15
TORSDOF 3
ENDMDL
MODEL 7
REMARK VINA RESULT:      -7.6      2.235      3.601
REMARK  Name = 
REMARK  3 active torsions:
REMARK  status: ('A' for Active; 'I' for Inactive)
REMARK    1  A    between atoms: C_4  and  C_5
REMARK    2  A    between atoms: C_5  and  C_6
REMARK    3  A    between atoms: C_19  and  O_20
REMARK                            x       y       z     vdW  Elec       q    Type
REMARK                         _______ _______ _______ _____ _____    ______ ____
ROOT
ATOM      1  C   UNL     1       3.013   7.190  17.489  0.00  0.00    +0.000 C 
ENDROOT
BRANCH   1   2
ATOM      2  C   UNL     1       2.251   7.913  18.582  0.00  0.00    +0.000 A 
ATOM      3  C   UNL     1       2.191   7.380  19.875  0.00  0.00    +0.000 A 
ATOM      4  C   UNL     1       1.449   8.018  20.871  0.00  0.00    +0.000 A 
ATOM      5  C   UNL     1       0.751   9.202  20.600  0.00  0.00    +0.000 A 
ATOM      6  C   UNL     1      -0.008   9.849  21.588  0.00  0.00    +0.000 A 
ATOM      7  C   UNL     1      -0.692  11.034  21.305  0.00  0.00    +0.000 A 
ATOM      8  C   UNL     1      -0.620  11.587  20.032  0.00  0.00    +0.000 A 
ATOM      9  C   UNL     1       0.127  10.955  19.035  0.00  0.00    +0.000 A 
ATOM     10  C   UNL     1       0.814   9.760  19.302  0.00  0.00    +0.000 A 
ATOM     11  C   UNL     1       1.560   9.104  18.306  0.00  0.00    +0.000 A 
ENDBRANCH   1   2
BRANCH   1  15
ATOM     12  O   UNL     1       6.725   4.442  18.948  0.00  0.00    +0.000 OA
ATOM     13  C   UNL     1       5.514   4.537  18.802  0.00  0.00    +0.000 C 
ATOM     14  C   UNL     1       4.929   5.793  18.292  0.00  0.00    +0.000 C 
ATOM     15  C   UNL     1       3.631   5.904  17.975  0.00  0.00    +0.000 C 
ATOM     16  C   UNL     1       2.758   4.709  18.062  0.00  0.00    +0.000 C 
ATOM     17  O   UNL     1       1.637   4.677  17.568  0.00  0.00    +0.000 OA
ATOM     18  C   UNL     1       3.280   3.530  18.782  0.00  0.00    +0.000 C 
ATOM     19  C   UNL     1       4.563   3.436  19.147  0.00  0.00    +0.000 C 
BRANCH  19  20
ATOM     20  O   UNL     1       5.061   2.342  19.831  0.00  0.00    +0.000 OA
ATOM     21  H   UNL     1       5.447   1.710  19.202  0.00  0.00    +0.000 HD
ENDBRANCH  19  20
ENDBRANCH   1  15
TORSDOF 3
ENDMDL
MODEL 8
REMARK VINA RESULT:      -7.6      1.456      2.688
REMARK  Name = 
REMARK  3 active torsions:
REMARK  status: ('A' for Active; 'I' for Inactive)
REMARK    1  A    between atoms: C_4  and  C_5
REMARK    2  A    between atoms: C_5  and  C_6
REMARK    3  A    between atoms: C_19  and  O_20
REMARK                            x       y       z     vdW  Elec       q    Type
REMARK                         _______ _______ _______ _____ _____    ______ ____
ROOT
ATOM      1  C   UNL     1       3.444   5.438  19.089  0.00  0.00    +0.000 C 
ENDROOT
BRANCH   1   2
ATOM      2  C   UNL     1       2.656   6.733  19.094  0.00  0.00    +0.000 A 
ATOM      3  C   UNL     1       2.529   7.489  17.923  0.00  0.00    +0.000 A 
ATOM      4  C   UNL     1       1.846   8.707  17.936  0.00  0.00    +0.000 A 
ATOM      5  C   UNL     1       1.273   9.197  19.116  0.00  0.00    +0.000 A 
ATOM      6  C   UNL     1       0.592  10.425  19.149  0.00  0.00    +0.000 A 
ATOM      7  C   UNL     1       0.020  10.896  20.332  0.00  0.00    +0.000 A 
ATOM      8  C   UNL     1       0.116  10.142  21.496  0.00  0.00    +0.000 A 
ATOM      9  C   UNL     1       0.794   8.921  21.484  0.00  0.00    +0.000 A 
ATOM     10  C   UNL     1       1.381   8.436  20.304  0.00  0.00    +0.000 A 
ATOM     11  C   UNL     1       2.078   7.215  20.279  0.00  0.00    +0.000 A 
ENDBRANCH   1   2
BRANCH   1  15
ATOM     12  O   UNL     1       7.367   7.138  16.812  0.00  0.00    +0.000 OA
ATOM     13  C   UNL     1       6.547   6.234  16.907  0.00  0.00    +0.000 C 
ATOM     14  C   UNL     1       5.503   6.294  17.950  0.00  0.00    +0.000 C 
ATOM     15  C   UNL     1       4.495   5.410  18.009  0.00  0.00    +0.000 C 
ATOM     16  C   UNL     1       4.371   4.379  16.951  0.00  0.00    +0.000 C 
ATOM     17  O   UNL     1       3.361   3.702  16.808  0.00  0.00    +0.000 OA
ATOM     18  C   UNL     1       5.527   4.176  16.053  0.00  0.00    +0.000 C 
ATOM     19  C   UNL     1       6.559   5.026  16.028  0.00  0.00    +0.000 C 
BRANCH  19  20
ATOM     20  O   UNL     1       7.651   4.840  15.199  0.00  0.00    +0.000 OA
ATOM     21  H   UNL     1       8.263   5.589  15.289  0.00  0.00    +0.000 HD
ENDBRANCH  19  20
ENDBRANCH   1  15
TORSDOF 3
ENDMDL
MODEL 9
REMARK VINA RESULT:      -7.6      2.717      4.858
REMARK  Name = 
REMARK  3 active torsions:
REMARK  status: ('A' for Active; 'I' for Inactive)
REMARK    1  A    between atoms: C_4  and  C_5
REMARK    2  A    between atoms: C_5  and  C_6
REMARK    3  A    between atoms: C_19  and  O_20
REMARK                            x       y       z     vdW  Elec       q    Type
REMARK                         _______ _______ _______ _____ _____    ______ ____
ROOT
ATOM      1  C   UNL     1       3.226   6.640  19.463  0.00  0.00    +0.000 C 
ENDROOT
BRANCH   1   2
ATOM      2  C   UNL     1       2.245   7.781  19.279  0.00  0.00    +0.000 A 
ATOM      3  C   UNL     1       2.028   8.332  18.010  0.00  0.00    +0.000 A 
ATOM      4  C   UNL     1       1.163   9.415  17.845  0.00  0.00    +0.000 A 
ATOM      5  C   UNL     1       0.493   9.973  18.941  0.00  0.00    +0.000 A 
ATOM      6  C   UNL     1      -0.372  11.069  18.794  0.00  0.00    +0.000 A 
ATOM      7  C   UNL     1      -1.039  11.610  19.896  0.00  0.00    +0.000 A 
ATOM      8  C   UNL     1      -0.853  11.056  21.158  0.00  0.00    +0.000 A 
ATOM      9  C   UNL     1       0.007   9.968  21.324  0.00  0.00    +0.000 A 
ATOM     10  C   UNL     1       0.691   9.418  20.228  0.00  0.00    +0.000 A 
ATOM     11  C   UNL     1       1.571   8.332  20.381  0.00  0.00    +0.000 A 
ENDBRANCH   1   2
BRANCH   1  15
ATOM     12  O   UNL     1       0.733   2.797  21.035  0.00  0.00    +0.000 OA
ATOM     13  C   UNL     1       1.228   3.377  20.078  0.00  0.00    +0.000 C 
ATOM     14  C   UNL     1       1.892   4.682  20.271  0.00  0.00    +0.000 C 
ATOM     15  C   UNL     1       2.576   5.292  19.291  0.00  0.00    +0.000 C 
ATOM     16  C   UNL     1       2.743   4.606  17.988  0.00  0.00    +0.000 C 
ATOM     17  O   UNL     1       3.543   4.988  17.142  0.00  0.00    +0.000 OA
ATOM     18  C   UNL     1       1.897   3.424  17.721  0.00  0.00    +0.000 C 
ATOM     19  C   UNL     1       1.172   2.844  18.683  0.00  0.00    +0.000 C 
BRANCH  19  20
ATOM     20  O   UNL     1       0.369   1.744  18.443  0.00  0.00    +0.000 OA
ATOM     21  H   UNL     1       0.058   1.375  19.285  0.00  0.00    +0.000 HD
ENDBRANCH  19  20
ENDBRANCH   1  15
TORSDOF 3
ENDMDL
