MODEL 1
REMARK VINA RESULT:      -7.3      0.000      0.000
REMARK  Name = 
REMARK  5 active torsions:
REMARK  status: ('A' for Active; 'I' for Inactive)
REMARK    1  A    between atoms: C_1  and  C_2
REMARK    2  A    between atoms: C_2  and  N_3
REMARK    3  A    between atoms: C_6  and  N_7
REMARK    4  A    between atoms: C_8  and  C_10
REMARK    5  A    between atoms: C_30  and  C_31
REMARK                            x       y       z     vdW  Elec       q    Type
REMARK                         _______ _______ _______ _____ _____    ______ ____
ROOT
ATOM      1  C   UNL     1      -0.203  13.125  21.535  0.00  0.00    +0.000 A 
ATOM      2  N   UNL     1      -0.040  11.761  21.286  0.00  0.00    +0.000 NA
ATOM      3  C   UNL     1       0.715  11.351  20.281  0.00  0.00    +0.000 A 
ATOM      4  N   UNL     1       0.853   9.985  20.065  0.00  0.00    +0.000 N 
ATOM      5  C   UNL     1       1.153   9.390  18.746  0.00  0.00    +0.000 C 
ATOM      6  C   UNL     1       2.235   8.300  18.876  0.00  0.00    +0.000 C 
ATOM      7  N   UNL     1       1.815   7.331  19.885  0.00  0.00    +0.000 N 
ATOM      8  C   UNL     1       1.913   5.986  19.674  0.00  0.00    +0.000 A 
ATOM      9  N   UNL     1       2.436   5.538  18.523  0.00  0.00    +0.000 NA
ATOM     10  C   UNL     1       2.481   4.205  18.330  0.00  0.00    +0.000 A 
ATOM     11  C   UNL     1       2.006   3.294  19.235  0.00  0.00    +0.000 A 
ATOM     12  C   UNL     1       1.482   3.834  20.379  0.00  0.00    +0.000 A 
ATOM     13  N   UNL     1       1.434   5.156  20.618  0.00  0.00    +0.000 NA
ATOM     14  C   UNL     1       1.463   7.867  21.200  0.00  0.00    +0.000 C 
ATOM     15  C   UNL     1       0.412   8.988  21.054  0.00  0.00    +0.000 C 
ATOM     16  C   UNL     1       1.378  12.362  19.460  0.00  0.00    +0.000 A 
ATOM     17  N   UNL     1       2.192  12.176  18.434  0.00  0.00    +0.000 NA
ATOM     18  C   UNL     1       2.505  13.433  17.998  0.00  0.00    +0.000 A 
ATOM     19  C   UNL     1       1.921  14.384  18.799  0.00  0.00    +0.000 A 
ATOM     20  N   UNL     1       1.204  13.693  19.744  0.00  0.00    +0.000 N 
ATOM     21  C   UNL     1       0.407  14.100  20.809  0.00  0.00    +0.000 A 
ATOM     22  C   UNL     1       0.283  15.573  21.093  0.00  0.00    +0.000 C 
ENDROOT
BRANCH   1  24
ATOM     23  N   UNL     1      -2.462  13.622  22.354  0.00  0.00    +0.000 N 
ATOM     24  C   UNL     1      -1.131  13.524  22.681  0.00  0.00    +0.000 C 
ATOM     25  O   UNL     1      -0.736  13.756  23.825  0.00  0.00    +0.000 OA
ATOM     26  H   UNL     1      -2.688  13.537  21.369  0.00  0.00    +0.000 HD
BRANCH  23  30
ATOM     27  N   UNL     1      -6.117  13.836  22.084  0.00  0.00    +0.000 NA
ATOM     28  C   UNL     1      -5.374  12.631  22.479  0.00  0.00    +0.000 C 
ATOM     29  C   UNL     1      -4.440  12.887  23.656  0.00  0.00    +0.000 C 
ATOM     30  C   UNL     1      -3.459  14.011  23.353  0.00  0.00    +0.000 C 
ATOM     31  C   UNL     1      -4.248  15.261  22.958  0.00  0.00    +0.000 C 
ATOM     32  C   UNL     1      -5.216  14.974  21.809  0.00  0.00    +0.000 C 
BRANCH  27  34
ATOM     33  C   UNL     1      -7.228  12.099  20.638  0.00  0.00    +0.000 C 
ATOM     34  C   UNL     1      -6.968  13.580  20.904  0.00  0.00    +0.000 C 
ENDBRANCH  27  34
ENDBRANCH  23  30
ENDBRANCH   1  24
TORSDOF 3
ENDMDL
MODEL 2
REMARK VINA RESULT:      -7.2      3.316     10.073
REMARK  Name = 
REMARK  5 active torsions:
REMARK  status: ('A' for Active; 'I' for Inactive)
REMARK    1  A    between atoms: C_1  and  C_2
REMARK    2  A    between atoms: C_2  and  N_3
REMARK    3  A    between atoms: C_6  and  N_7
REMARK    4  A    between atoms: C_8  and  C_10
REMARK    5  A    between atoms: C_30  and  C_31
REMARK                            x       y       z     vdW  Elec       q    Type
REMARK                         _______ _______ _______ _____ _____    ______ ____
ROOT
ATOM      1  C   UNL     1       1.581   8.822  19.346  0.00  0.00    +0.000 A 
ATOM      2  N   UNL     1       1.174  10.120  19.028  0.00  0.00    +0.000 NA
ATOM      3  C   UNL     1       0.433  10.813  19.875  0.00  0.00    +0.000 A 
ATOM      4  N   UNL     1       0.047  12.101  19.523  0.00  0.00    +0.000 N 
ATOM      5  C   UNL     1      -1.171  12.760  20.036  0.00  0.00    +0.000 C 
ATOM      6  C   UNL     1      -0.869  14.214  20.450  0.00  0.00    +0.000 C 
ATOM      7  N   UNL     1      -0.244  14.908  19.326  0.00  0.00    +0.000 N 
ATOM      8  C   UNL     1      -0.635  16.160  18.948  0.00  0.00    +0.000 A 
ATOM      9  N   UNL     1      -1.597  16.786  19.641  0.00  0.00    +0.000 NA
ATOM     10  C   UNL     1      -1.987  18.003  19.217  0.00  0.00    +0.000 A 
ATOM     11  C   UNL     1      -1.468  18.620  18.110  0.00  0.00    +0.000 A 
ATOM     12  C   UNL     1      -0.497  17.911  17.456  0.00  0.00    +0.000 A 
ATOM     13  N   UNL     1      -0.066  16.702  17.856  0.00  0.00    +0.000 NA
ATOM     14  C   UNL     1       0.943  14.279  18.748  0.00  0.00    +0.000 C 
ATOM     15  C   UNL     1       0.642  12.810  18.378  0.00  0.00    +0.000 C 
ATOM     16  C   UNL     1       0.071  10.189  21.146  0.00  0.00    +0.000 A 
ATOM     17  N   UNL     1      -0.632  10.706  22.140  0.00  0.00    +0.000 NA
ATOM     18  C   UNL     1      -0.714   9.710  23.072  0.00  0.00    +0.000 A 
ATOM     19  C   UNL     1      -0.010   8.603  22.662  0.00  0.00    +0.000 A 
ATOM     20  N   UNL     1       0.502   8.917  21.428  0.00  0.00    +0.000 N 
ATOM     21  C   UNL     1       1.284   8.208  20.522  0.00  0.00    +0.000 A 
ATOM     22  C   UNL     1       1.755   6.830  20.902  0.00  0.00    +0.000 C 
ENDROOT
BRANCH   1  24
ATOM     23  N   UNL     1       2.870   6.838  18.695  0.00  0.00    +0.000 N 
ATOM     24  C   UNL     1       2.393   8.064  18.297  0.00  0.00    +0.000 C 
ATOM     25  O   UNL     1       2.626   8.504  17.170  0.00  0.00    +0.000 OA
ATOM     26  H   UNL     1       2.740   6.604  19.673  0.00  0.00    +0.000 HD
BRANCH  23  30
ATOM     27  N   UNL     1       4.146   3.423  19.131  0.00  0.00    +0.000 NA
ATOM     28  C   UNL     1       2.838   3.763  18.553  0.00  0.00    +0.000 C 
ATOM     29  C   UNL     1       2.956   4.735  17.384  0.00  0.00    +0.000 C 
ATOM     30  C   UNL     1       3.676   6.011  17.794  0.00  0.00    +0.000 C 
ATOM     31  C   UNL     1       5.041   5.642  18.380  0.00  0.00    +0.000 C 
ATOM     32  C   UNL     1       4.908   4.629  19.518  0.00  0.00    +0.000 C 
BRANCH  27  34
ATOM     33  C   UNL     1       2.738   2.781  21.117  0.00  0.00    +0.000 C 
ATOM     34  C   UNL     1       4.003   2.531  20.298  0.00  0.00    +0.000 C 
ENDBRANCH  27  34
ENDBRANCH  23  30
ENDBRANCH   1  24
TORSDOF 3
ENDMDL
MODEL 3
REMARK VINA RESULT:      -7.0      1.412      2.032
REMARK  Name = 
REMARK  5 active torsions:
REMARK  status: ('A' for Active; 'I' for Inactive)
REMARK    1  A    between atoms: C_1  and  C_2
REMARK    2  A    between atoms: C_2  and  N_3
REMARK    3  A    between atoms: C_6  and  N_7
REMARK    4  A    between atoms: C_8  and  C_10
REMARK    5  A    between atoms: C_30  and  C_31
REMARK                            x       y       z     vdW  Elec       q    Type
REMARK                         _______ _______ _______ _____ _____    ______ ____
ROOT
ATOM      1  C   UNL     1      -0.314  11.793  21.203  0.00  0.00    +0.000 A 
ATOM      2  N   UNL     1       0.102  10.534  20.764  0.00  0.00    +0.000 NA
ATOM      3  C   UNL     1       0.956  10.425  19.761  0.00  0.00    +0.000 A 
ATOM      4  N   UNL     1       1.346   9.156  19.353  0.00  0.00    +0.000 N 
ATOM      5  C   UNL     1       1.799   8.839  17.982  0.00  0.00    +0.000 C 
ATOM      6  C   UNL     1       3.054   7.945  18.018  0.00  0.00    +0.000 C 
ATOM      7  N   UNL     1       2.777   6.769  18.841  0.00  0.00    +0.000 N 
ATOM      8  C   UNL     1       3.125   5.513  18.438  0.00  0.00    +0.000 A 
ATOM      9  N   UNL     1       3.764   5.350  17.270  0.00  0.00    +0.000 NA
ATOM     10  C   UNL     1       4.055   4.093  16.883  0.00  0.00    +0.000 A 
ATOM     11  C   UNL     1       3.718   2.981  17.608  0.00  0.00    +0.000 A 
ATOM     12  C   UNL     1       3.062   3.234  18.782  0.00  0.00    +0.000 A 
ATOM     13  N   UNL     1       2.767   4.473  19.213  0.00  0.00    +0.000 NA
ATOM     14  C   UNL     1       2.285   7.021  20.195  0.00  0.00    +0.000 C 
ATOM     15  C   UNL     1       1.054   7.953  20.150  0.00  0.00    +0.000 C 
ATOM     16  C   UNL     1       1.457  11.653  19.146  0.00  0.00    +0.000 A 
ATOM     17  N   UNL     1       2.330  11.775  18.159  0.00  0.00    +0.000 NA
ATOM     18  C   UNL     1       2.428  13.120  17.939  0.00  0.00    +0.000 A 
ATOM     19  C   UNL     1       1.651  13.817  18.833  0.00  0.00    +0.000 A 
ATOM     20  N   UNL     1       1.035  12.871  19.614  0.00  0.00    +0.000 N 
ATOM     21  C   UNL     1       0.137  12.961  20.673  0.00  0.00    +0.000 A 
ATOM     22  C   UNL     1      -0.262  14.326  21.166  0.00  0.00    +0.000 C 
ENDROOT
BRANCH   1  24
ATOM     23  N   UNL     1      -2.523  12.471  22.027  0.00  0.00    +0.000 N 
ATOM     24  C   UNL     1      -1.342  11.838  22.332  0.00  0.00    +0.000 C 
ATOM     25  O   UNL     1      -1.145  11.358  23.449  0.00  0.00    +0.000 OA
ATOM     26  H   UNL     1      -2.559  12.945  21.132  0.00  0.00    +0.000 HD
BRANCH  23  30
ATOM     27  N   UNL     1      -4.771  15.288  22.729  0.00  0.00    +0.000 NA
ATOM     28  C   UNL     1      -5.043  14.219  21.757  0.00  0.00    +0.000 C 
ATOM     29  C   UNL     1      -4.951  12.831  22.381  0.00  0.00    +0.000 C 
ATOM     30  C   UNL     1      -3.591  12.600  23.022  0.00  0.00    +0.000 C 
ATOM     31  C   UNL     1      -3.329  13.711  24.041  0.00  0.00    +0.000 C 
ATOM     32  C   UNL     1      -3.474  15.096  23.410  0.00  0.00    +0.000 C 
BRANCH  27  34
ATOM     33  C   UNL     1      -3.431  17.139  21.671  0.00  0.00    +0.000 C 
ATOM     34  C   UNL     1      -4.804  16.618  22.088  0.00  0.00    +0.000 C 
ENDBRANCH  27  34
ENDBRANCH  23  30
ENDBRANCH   1  24
TORSDOF 3
ENDMDL
MODEL 4
REMARK VINA RESULT:      -7.0      1.306      1.566
REMARK  Name = 
REMARK  5 active torsions:
REMARK  status: ('A' for Active; 'I' for Inactive)
REMARK    1  A    between atoms: C_1  and  C_2
REMARK    2  A    between atoms: C_2  and  N_3
REMARK    3  A    between atoms: C_6  and  N_7
REMARK    4  A    between atoms: C_8  and  C_10
REMARK    5  A    between atoms: C_30  and  C_31
REMARK                            x       y       z     vdW  Elec       q    Type
REMARK                         _______ _______ _______ _____ _____    ______ ____
ROOT
ATOM      1  C   UNL     1      -0.980  13.003  20.573  0.00  0.00    +0.000 A 
ATOM      2  N   UNL     1      -0.650  11.648  20.497  0.00  0.00    +0.000 NA
ATOM      3  C   UNL     1       0.380  11.252  19.769  0.00  0.00    +0.000 A 
ATOM      4  N   UNL     1       0.677   9.895  19.717  0.00  0.00    +0.000 N 
ATOM      5  C   UNL     1       1.369   9.250  18.583  0.00  0.00    +0.000 C 
ATOM      6  C   UNL     1       2.456   8.282  19.090  0.00  0.00    +0.000 C 
ATOM      7  N   UNL     1       1.854   7.342  20.032  0.00  0.00    +0.000 N 
ATOM      8  C   UNL     1       2.110   6.003  19.973  0.00  0.00    +0.000 A 
ATOM      9  N   UNL     1       2.960   5.536  19.046  0.00  0.00    +0.000 NA
ATOM     10  C   UNL     1       3.158   4.205  18.990  0.00  0.00    +0.000 A 
ATOM     11  C   UNL     1       2.527   3.310  19.812  0.00  0.00    +0.000 A 
ATOM     12  C   UNL     1       1.672   3.868  20.723  0.00  0.00    +0.000 A 
ATOM     13  N   UNL     1       1.458   5.191  20.825  0.00  0.00    +0.000 NA
ATOM     14  C   UNL     1       1.117   7.923  21.154  0.00  0.00    +0.000 C 
ATOM     15  C   UNL     1       0.061   8.924  20.637  0.00  0.00    +0.000 C 
ATOM     16  C   UNL     1       1.161  12.268  19.067  0.00  0.00    +0.000 A 
ATOM     17  N   UNL     1       2.235  12.099  18.315  0.00  0.00    +0.000 NA
ATOM     18  C   UNL     1       2.557  13.350  17.870  0.00  0.00    +0.000 A 
ATOM     19  C   UNL     1       1.704  14.289  18.400  0.00  0.00    +0.000 A 
ATOM     20  N   UNL     1       0.813  13.592  19.178  0.00  0.00    +0.000 N 
ATOM     21  C   UNL     1      -0.273  13.985  19.953  0.00  0.00    +0.000 A 
ATOM     22  C   UNL     1      -0.584  15.454  20.064  0.00  0.00    +0.000 C 
ENDROOT
BRANCH   1  24
ATOM     23  N   UNL     1      -3.385  13.473  20.682  0.00  0.00    +0.000 N 
ATOM     24  C   UNL     1      -2.213  13.381  21.393  0.00  0.00    +0.000 C 
ATOM     25  O   UNL     1      -2.181  13.601  22.604  0.00  0.00    +0.000 OA
ATOM     26  H   UNL     1      -3.305  13.399  19.674  0.00  0.00    +0.000 HD
BRANCH  23  30
ATOM     27  N   UNL     1      -6.857  12.985  19.590  0.00  0.00    +0.000 NA
ATOM     28  C   UNL     1      -6.080  12.016  20.377  0.00  0.00    +0.000 C 
ATOM     29  C   UNL     1      -5.507  12.629  21.649  0.00  0.00    +0.000 C 
ATOM     30  C   UNL     1      -4.641  13.842  21.340  0.00  0.00    +0.000 C 
ATOM     31  C   UNL     1      -5.467  14.847  20.535  0.00  0.00    +0.000 C 
ATOM     32  C   UNL     1      -6.075  14.202  19.288  0.00  0.00    +0.000 C 
BRANCH  27  34
ATOM     33  C   UNL     1      -6.747  13.006  17.075  0.00  0.00    +0.000 C 
ATOM     34  C   UNL     1      -7.349  12.386  18.334  0.00  0.00    +0.000 C 
ENDBRANCH  27  34
ENDBRANCH  23  30
ENDBRANCH   1  24
TORSDOF 3
ENDMDL
MODEL 5
REMARK VINA RESULT:      -7.0      3.644     10.043
REMARK  Name = 
REMARK  5 active torsions:
REMARK  status: ('A' for Active; 'I' for Inactive)
REMARK    1  A    between atoms: C_1  and  C_2
REMARK    2  A    between atoms: C_2  and  N_3
REMARK    3  A    between atoms: C_6  and  N_7
REMARK    4  A    between atoms: C_8  and  C_10
REMARK    5  A    between atoms: C_30  and  C_31
REMARK                            x       y       z     vdW  Elec       q    Type
REMARK                         _______ _______ _______ _____ _____    ______ ____
ROOT
ATOM      1  C   UNL     1       1.843   8.455  19.294  0.00  0.00    +0.000 A 
ATOM      2  N   UNL     1       1.716   9.801  18.945  0.00  0.00    +0.000 NA
ATOM      3  C   UNL     1       1.034  10.630  19.716  0.00  0.00    +0.000 A 
ATOM      4  N   UNL     1       0.929  11.962  19.334  0.00  0.00    +0.000 N 
ATOM      5  C   UNL     1      -0.192  12.841  19.725  0.00  0.00    +0.000 C 
ATOM      6  C   UNL     1       0.330  14.219  20.175  0.00  0.00    +0.000 C 
ATOM      7  N   UNL     1       1.181  14.772  19.123  0.00  0.00    +0.000 N 
ATOM      8  C   UNL     1       1.067  16.069  18.715  0.00  0.00    +0.000 A 
ATOM      9  N   UNL     1       0.172  16.870  19.311  0.00  0.00    +0.000 NA
ATOM     10  C   UNL     1       0.058  18.132  18.856  0.00  0.00    +0.000 A 
ATOM     11  C   UNL     1       0.790  18.629  17.811  0.00  0.00    +0.000 A 
ATOM     12  C   UNL     1       1.674  17.745  17.254  0.00  0.00    +0.000 A 
ATOM     13  N   UNL     1       1.832  16.483  17.688  0.00  0.00    +0.000 NA
ATOM     14  C   UNL     1       2.284  13.927  18.665  0.00  0.00    +0.000 C 
ATOM     15  C   UNL     1       1.756  12.535  18.259  0.00  0.00    +0.000 C 
ATOM     16  C   UNL     1       0.438  10.100  20.941  0.00  0.00    +0.000 A 
ATOM     17  N   UNL     1      -0.253  10.751  21.861  0.00  0.00    +0.000 NA
ATOM     18  C   UNL     1      -0.609   9.799  22.775  0.00  0.00    +0.000 A 
ATOM     19  C   UNL     1      -0.085   8.576  22.432  0.00  0.00    +0.000 A 
ATOM     20  N   UNL     1       0.597   8.774  21.257  0.00  0.00    +0.000 N 
ATOM     21  C   UNL     1       1.322   7.921  20.431  0.00  0.00    +0.000 A 
ATOM     22  C   UNL     1       1.491   6.485  20.850  0.00  0.00    +0.000 C 
ENDROOT
BRANCH   1  24
ATOM     23  N   UNL     1       2.337   6.204  18.452  0.00  0.00    +0.000 N 
ATOM     24  C   UNL     1       2.603   7.547  18.328  0.00  0.00    +0.000 C 
ATOM     25  O   UNL     1       3.408   7.964  17.496  0.00  0.00    +0.000 OA
ATOM     26  H   UNL     1       1.759   5.933  19.240  0.00  0.00    +0.000 HD
BRANCH  23  30
ATOM     27  N   UNL     1       3.726   2.910  19.289  0.00  0.00    +0.000 NA
ATOM     28  C   UNL     1       2.338   3.154  18.872  0.00  0.00    +0.000 C 
ATOM     29  C   UNL     1       2.254   3.898  17.544  0.00  0.00    +0.000 C 
ATOM     30  C   UNL     1       3.006   5.219  17.599  0.00  0.00    +0.000 C 
ATOM     31  C   UNL     1       4.452   4.947  18.019  0.00  0.00    +0.000 C 
ATOM     32  C   UNL     1       4.517   4.158  19.327  0.00  0.00    +0.000 C 
BRANCH  27  34
ATOM     33  C   UNL     1       2.638   2.624  21.541  0.00  0.00    +0.000 C 
ATOM     34  C   UNL     1       3.784   2.245  20.606  0.00  0.00    +0.000 C 
ENDBRANCH  27  34
ENDBRANCH  23  30
ENDBRANCH   1  24
TORSDOF 3
ENDMDL
MODEL 6
REMARK VINA RESULT:      -6.7      3.020      6.188
REMARK  Name = 
REMARK  5 active torsions:
REMARK  status: ('A' for Active; 'I' for Inactive)
REMARK    1  A    between atoms: C_1  and  C_2
REMARK    2  A    between atoms: C_2  and  N_3
REMARK    3  A    between atoms: C_6  and  N_7
REMARK    4  A    between atoms: C_8  and  C_10
REMARK    5  A    between atoms: C_30  and  C_31
REMARK                            x       y       z     vdW  Elec       q    Type
REMARK                         _______ _______ _______ _____ _____    ______ ____
ROOT
ATOM      1  C   UNL     1       0.690  12.036  19.792  0.00  0.00    +0.000 A 
ATOM      2  N   UNL     1       1.251  10.798  19.472  0.00  0.00    +0.000 NA
ATOM      3  C   UNL     1       1.067   9.757  20.265  0.00  0.00    +0.000 A 
ATOM      4  N   UNL     1       1.641   8.541  19.913  0.00  0.00    +0.000 N 
ATOM      5  C   UNL     1       2.012   7.497  20.889  0.00  0.00    +0.000 C 
ATOM      6  C   UNL     1       1.568   6.107  20.392  0.00  0.00    +0.000 C 
ATOM      7  N   UNL     1       2.107   5.887  19.051  0.00  0.00    +0.000 N 
ATOM      8  C   UNL     1       2.703   4.711  18.701  0.00  0.00    +0.000 A 
ATOM      9  N   UNL     1       2.773   3.716  19.598  0.00  0.00    +0.000 NA
ATOM     10  C   UNL     1       3.404   2.583  19.232  0.00  0.00    +0.000 A 
ATOM     11  C   UNL     1       3.990   2.406  18.008  0.00  0.00    +0.000 A 
ATOM     12  C   UNL     1       3.880   3.471  17.155  0.00  0.00    +0.000 A 
ATOM     13  N   UNL     1       3.244   4.612  17.473  0.00  0.00    +0.000 NA
ATOM     14  C   UNL     1       1.809   6.912  18.052  0.00  0.00    +0.000 C 
ATOM     15  C   UNL     1       2.216   8.305  18.578  0.00  0.00    +0.000 C 
ATOM     16  C   UNL     1       0.255   9.939  21.466  0.00  0.00    +0.000 A 
ATOM     17  N   UNL     1      -0.076   9.036  22.374  0.00  0.00    +0.000 NA
ATOM     18  C   UNL     1      -0.810   9.720  23.302  0.00  0.00    +0.000 A 
ATOM     19  C   UNL     1      -0.968  11.033  22.926  0.00  0.00    +0.000 A 
ATOM     20  N   UNL     1      -0.291  11.169  21.739  0.00  0.00    +0.000 N 
ATOM     21  C   UNL     1      -0.087  12.249  20.887  0.00  0.00    +0.000 A 
ATOM     22  C   UNL     1      -0.740  13.563  21.222  0.00  0.00    +0.000 C 
ENDROOT
BRANCH   1  24
ATOM     23  N   UNL     1       2.196  13.827  19.054  0.00  0.00    +0.000 N 
ATOM     24  C   UNL     1       0.987  13.206  18.854  0.00  0.00    +0.000 C 
ATOM     25  O   UNL     1       0.209  13.589  17.980  0.00  0.00    +0.000 OA
ATOM     26  H   UNL     1       2.722  13.532  19.870  0.00  0.00    +0.000 HD
BRANCH  23  30
ATOM     27  N   UNL     1       4.683  16.444  19.721  0.00  0.00    +0.000 NA
ATOM     28  C   UNL     1       4.971  15.161  19.064  0.00  0.00    +0.000 C 
ATOM     29  C   UNL     1       4.075  14.915  17.856  0.00  0.00    +0.000 C 
ATOM     30  C   UNL     1       2.602  14.972  18.235  0.00  0.00    +0.000 C 
ATOM     31  C   UNL     1       2.316  16.318  18.904  0.00  0.00    +0.000 C 
ATOM     32  C   UNL     1       3.256  16.570  20.083  0.00  0.00    +0.000 C 
BRANCH  27  34
ATOM     33  C   UNL     1       6.078  15.332  21.498  0.00  0.00    +0.000 C 
ATOM     34  C   UNL     1       5.520  16.632  20.923  0.00  0.00    +0.000 C 
ENDBRANCH  27  34
ENDBRANCH  23  30
ENDBRANCH   1  24
TORSDOF 3
ENDMDL
MODEL 7
REMARK VINA RESULT:      -6.7      1.396      1.688
REMARK  Name = 
REMARK  5 active torsions:
REMARK  status: ('A' for Active; 'I' for Inactive)
REMARK    1  A    between atoms: C_1  and  C_2
REMARK    2  A    between atoms: C_2  and  N_3
REMARK    3  A    between atoms: C_6  and  N_7
REMARK    4  A    between atoms: C_8  and  C_10
REMARK    5  A    between atoms: C_30  and  C_31
REMARK                            x       y       z     vdW  Elec       q    Type
REMARK                         _______ _______ _______ _____ _____    ______ ____
ROOT
ATOM      1  C   UNL     1      -1.867  12.717  21.448  0.00  0.00    +0.000 A 
ATOM      2  N   UNL     1      -1.318  11.456  21.202  0.00  0.00    +0.000 NA
ATOM      3  C   UNL     1      -0.338  11.313  20.327  0.00  0.00    +0.000 A 
ATOM      4  N   UNL     1       0.181  10.043  20.109  0.00  0.00    +0.000 N 
ATOM      5  C   UNL     1       0.824   9.626  18.846  0.00  0.00    +0.000 C 
ATOM      6  C   UNL     1       2.119   8.839  19.130  0.00  0.00    +0.000 C 
ATOM      7  N   UNL     1       1.814   7.734  20.037  0.00  0.00    +0.000 N 
ATOM      8  C   UNL     1       2.290   6.474  19.818  0.00  0.00    +0.000 A 
ATOM      9  N   UNL     1       3.082   6.244  18.760  0.00  0.00    +0.000 NA
ATOM     10  C   UNL     1       3.500   4.981  18.551  0.00  0.00    +0.000 A 
ATOM     11  C   UNL     1       3.144   3.925  19.346  0.00  0.00    +0.000 A 
ATOM     12  C   UNL     1       2.329   4.243  20.399  0.00  0.00    +0.000 A 
ATOM     13  N   UNL     1       1.903   5.492  20.654  0.00  0.00    +0.000 NA
ATOM     14  C   UNL     1       1.138   8.082  21.286  0.00  0.00    +0.000 C 
ATOM     15  C   UNL     1      -0.133   8.907  20.992  0.00  0.00    +0.000 C 
ATOM     16  C   UNL     1       0.158  12.507  19.646  0.00  0.00    +0.000 A 
ATOM     17  N   UNL     1       1.141  12.597  18.765  0.00  0.00    +0.000 NA
ATOM     18  C   UNL     1       1.180  13.917  18.412  0.00  0.00    +0.000 A 
ATOM     19  C   UNL     1       0.253  14.638  19.125  0.00  0.00    +0.000 A 
ATOM     20  N   UNL     1      -0.397  13.731  19.925  0.00  0.00    +0.000 N 
ATOM     21  C   UNL     1      -1.426  13.857  20.852  0.00  0.00    +0.000 A 
ATOM     22  C   UNL     1      -1.971  15.230  21.141  0.00  0.00    +0.000 C 
ENDROOT
BRANCH   1  24
ATOM     23  N   UNL     1      -4.274  12.939  21.865  0.00  0.00    +0.000 N 
ATOM     24  C   UNL     1      -3.031  12.797  22.434  0.00  0.00    +0.000 C 
ATOM     25  O   UNL     1      -2.890  12.749  23.656  0.00  0.00    +0.000 OA
ATOM     26  H   UNL     1      -4.293  13.094  20.863  0.00  0.00    +0.000 HD
BRANCH  23  30
ATOM     27  N   UNL     1      -7.431  14.705  21.236  0.00  0.00    +0.000 NA
ATOM     28  C   UNL     1      -7.150  13.319  20.835  0.00  0.00    +0.000 C 
ATOM     29  C   UNL     1      -6.702  12.455  22.008  0.00  0.00    +0.000 C 
ATOM     30  C   UNL     1      -5.477  13.043  22.694  0.00  0.00    +0.000 C 
ATOM     31  C   UNL     1      -5.790  14.479  23.119  0.00  0.00    +0.000 C 
ATOM     32  C   UNL     1      -6.285  15.318  21.940  0.00  0.00    +0.000 C 
BRANCH  27  34
ATOM     33  C   UNL     1      -6.753  15.555  18.965  0.00  0.00    +0.000 C 
ATOM     34  C   UNL     1      -7.803  15.536  20.074  0.00  0.00    +0.000 C 
ENDBRANCH  27  34
ENDBRANCH  23  30
ENDBRANCH   1  24
TORSDOF 3
ENDMDL
MODEL 8
REMARK VINA RESULT:      -6.7      2.839      6.338
REMARK  Name = 
REMARK  5 active torsions:
REMARK  status: ('A' for Active; 'I' for Inactive)
REMARK    1  A    between atoms: C_1  and  C_2
REMARK    2  A    between atoms: C_2  and  N_3
REMARK    3  A    between atoms: C_6  and  N_7
REMARK    4  A    between atoms: C_8  and  C_10
REMARK    5  A    between atoms: C_30  and  C_31
REMARK                            x       y       z     vdW  Elec       q    Type
REMARK                         _______ _______ _______ _____ _____    ______ ____
ROOT
ATOM      1  C   UNL     1       0.428  12.838  19.943  0.00  0.00    +0.000 A 
ATOM      2  N   UNL     1       1.067  11.644  19.605  0.00  0.00    +0.000 NA
ATOM      3  C   UNL     1       0.900  10.563  20.348  0.00  0.00    +0.000 A 
ATOM      4  N   UNL     1       1.553   9.394  19.979  0.00  0.00    +0.000 N 
ATOM      5  C   UNL     1       1.930   8.330  20.933  0.00  0.00    +0.000 C 
ATOM      6  C   UNL     1       1.584   6.941  20.361  0.00  0.00    +0.000 C 
ATOM      7  N   UNL     1       2.199   6.803  19.043  0.00  0.00    +0.000 N 
ATOM      8  C   UNL     1       2.872   5.674  18.679  0.00  0.00    +0.000 A 
ATOM      9  N   UNL     1       2.950   4.648  19.540  0.00  0.00    +0.000 NA
ATOM     10  C   UNL     1       3.656   3.564  19.164  0.00  0.00    +0.000 A 
ATOM     11  C   UNL     1       4.310   3.466  17.965  0.00  0.00    +0.000 A 
ATOM     12  C   UNL     1       4.187   4.558  17.149  0.00  0.00    +0.000 A 
ATOM     13  N   UNL     1       3.478   5.652  17.477  0.00  0.00    +0.000 NA
ATOM     14  C   UNL     1       1.897   7.852  18.069  0.00  0.00    +0.000 C 
ATOM     15  C   UNL     1       2.205   9.241  18.668  0.00  0.00    +0.000 C 
ATOM     16  C   UNL     1       0.021  10.656  21.511  0.00  0.00    +0.000 A 
ATOM     17  N   UNL     1      -0.307   9.701  22.366  0.00  0.00    +0.000 NA
ATOM     18  C   UNL     1      -1.120  10.309  23.281  0.00  0.00    +0.000 A 
ATOM     19  C   UNL     1      -1.328  11.626  22.947  0.00  0.00    +0.000 A 
ATOM     20  N   UNL     1      -0.601  11.844  21.803  0.00  0.00    +0.000 N 
ATOM     21  C   UNL     1      -0.412  12.967  21.004  0.00  0.00    +0.000 A 
ATOM     22  C   UNL     1      -1.149  14.232  21.355  0.00  0.00    +0.000 C 
ENDROOT
BRANCH   1  24
ATOM     23  N   UNL     1       1.918  14.673  19.286  0.00  0.00    +0.000 N 
ATOM     24  C   UNL     1       0.709  14.058  19.067  0.00  0.00    +0.000 C 
ATOM     25  O   UNL     1      -0.081  14.485  18.224  0.00  0.00    +0.000 OA
ATOM     26  H   UNL     1       2.454  14.336  20.078  0.00  0.00    +0.000 HD
BRANCH  23  30
ATOM     27  N   UNL     1       5.246  16.102  18.684  0.00  0.00    +0.000 NA
ATOM     28  C   UNL     1       4.603  15.087  17.837  0.00  0.00    +0.000 C 
ATOM     29  C   UNL     1       3.224  15.524  17.357  0.00  0.00    +0.000 C 
ATOM     30  C   UNL     1       2.310  15.862  18.526  0.00  0.00    +0.000 C 
ATOM     31  C   UNL     1       2.987  16.929  19.390  0.00  0.00    +0.000 C 
ATOM     32  C   UNL     1       4.389  16.495  19.821  0.00  0.00    +0.000 C 
BRANCH  27  34
ATOM     33  C   UNL     1       7.370  14.855  18.157  0.00  0.00    +0.000 C 
ATOM     34  C   UNL     1       6.553  15.631  19.187  0.00  0.00    +0.000 C 
ENDBRANCH  27  34
ENDBRANCH  23  30
ENDBRANCH   1  24
TORSDOF 3
ENDMDL
MODEL 9
REMARK VINA RESULT:      -6.6      3.877     10.257
REMARK  Name = 
REMARK  5 active torsions:
REMARK  status: ('A' for Active; 'I' for Inactive)
REMARK    1  A    between atoms: C_1  and  C_2
REMARK    2  A    between atoms: C_2  and  N_3
REMARK    3  A    between atoms: C_6  and  N_7
REMARK    4  A    between atoms: C_8  and  C_10
REMARK    5  A    between atoms: C_30  and  C_31
REMARK                            x       y       z     vdW  Elec       q    Type
REMARK                         _______ _______ _______ _____ _____    ______ ____
ROOT
ATOM      1  C   UNL     1       1.729   8.339  19.399  0.00  0.00    +0.000 A 
ATOM      2  N   UNL     1       1.694   9.681  19.014  0.00  0.00    +0.000 NA
ATOM      3  C   UNL     1       1.169  10.592  19.814  0.00  0.00    +0.000 A 
ATOM      4  N   UNL     1       1.151  11.916  19.396  0.00  0.00    +0.000 N 
ATOM      5  C   UNL     1       0.159  12.909  19.857  0.00  0.00    +0.000 C 
ATOM      6  C   UNL     1       0.847  14.243  20.206  0.00  0.00    +0.000 C 
ATOM      7  N   UNL     1       1.641  14.683  19.060  0.00  0.00    +0.000 N 
ATOM      8  C   UNL     1       1.608  15.973  18.617  0.00  0.00    +0.000 A 
ATOM      9  N   UNL     1       0.852  16.872  19.265  0.00  0.00    +0.000 NA
ATOM     10  C   UNL     1       0.812  18.127  18.777  0.00  0.00    +0.000 A 
ATOM     11  C   UNL     1       1.483  18.522  17.650  0.00  0.00    +0.000 A 
ATOM     12  C   UNL     1       2.224  17.543  17.046  0.00  0.00    +0.000 A 
ATOM     13  N   UNL     1       2.306  16.284  17.510  0.00  0.00    +0.000 NA
ATOM     14  C   UNL     1       2.611  13.725  18.532  0.00  0.00    +0.000 C 
ATOM     15  C   UNL     1       1.920  12.378  18.228  0.00  0.00    +0.000 C 
ATOM     16  C   UNL     1       0.647  10.155  21.108  0.00  0.00    +0.000 A 
ATOM     17  N   UNL     1       0.110  10.894  22.064  0.00  0.00    +0.000 NA
ATOM     18  C   UNL     1      -0.243  10.006  23.041  0.00  0.00    +0.000 A 
ATOM     19  C   UNL     1       0.131   8.729  22.696  0.00  0.00    +0.000 A 
ATOM     20  N   UNL     1       0.712   8.829  21.456  0.00  0.00    +0.000 N 
ATOM     21  C   UNL     1       1.273   7.888  20.598  0.00  0.00    +0.000 A 
ATOM     22  C   UNL     1       1.348   6.455  21.051  0.00  0.00    +0.000 C 
ENDROOT
BRANCH   1  24
ATOM     23  N   UNL     1       3.452   6.696  18.805  0.00  0.00    +0.000 N 
ATOM     24  C   UNL     1       2.305   7.336  18.400  0.00  0.00    +0.000 C 
ATOM     25  O   UNL     1       1.801   7.108  17.300  0.00  0.00    +0.000 OA
ATOM     26  H   UNL     1       3.870   7.028  19.667  0.00  0.00    +0.000 HD
BRANCH  23  30
ATOM     27  N   UNL     1       7.013   6.284  18.014  0.00  0.00    +0.000 NA
ATOM     28  C   UNL     1       6.326   5.645  19.146  0.00  0.00    +0.000 C 
ATOM     29  C   UNL     1       5.103   4.848  18.705  0.00  0.00    +0.000 C 
ATOM     30  C   UNL     1       4.118   5.720  17.939  0.00  0.00    +0.000 C 
ATOM     31  C   UNL     1       4.845   6.365  16.757  0.00  0.00    +0.000 C 
ATOM     32  C   UNL     1       6.096   7.119  17.212  0.00  0.00    +0.000 C 
BRANCH  27  34
ATOM     33  C   UNL     1       8.132   8.540  17.963  0.00  0.00    +0.000 C 
ATOM     34  C   UNL     1       8.156   7.100  18.471  0.00  0.00    +0.000 C 
ENDBRANCH  27  34
ENDBRANCH  23  30
ENDBRANCH   1  24
TORSDOF 3
ENDMDL
