MODEL 1
REMARK VINA RESULT:      -6.3      0.000      0.000
REMARK  Name = 
REMARK  6 active torsions:
REMARK  status: ('A' for Active; 'I' for Inactive)
REMARK    1  A    between atoms: C_1  and  C_2
REMARK    2  A    between atoms: C_2  and  C_4
REMARK    3  A    between atoms: C_4  and  C_5
REMARK    4  A    between atoms: N_7  and  C_8
REMARK    5  A    between atoms: C_11  and  S_12
REMARK    6  A    between atoms: S_12  and  N_13
REMARK                            x       y       z     vdW  Elec       q    Type
REMARK                         _______ _______ _______ _____ _____    ______ ____
ROOT
ATOM      1  C   UNL     1       4.723   3.939  17.357  0.00  0.00    +0.000 A 
ATOM      2  C   UNL     1       3.345   4.013  17.123  0.00  0.00    +0.000 A 
ATOM      3  C   UNL     1       2.438   4.083  18.179  0.00  0.00    +0.000 A 
ATOM      4  C   UNL     1       2.907   4.062  19.490  0.00  0.00    +0.000 A 
ATOM      5  C   UNL     1       4.278   3.988  19.751  0.00  0.00    +0.000 A 
ATOM      6  C   UNL     1       5.183   3.911  18.682  0.00  0.00    +0.000 A 
ENDROOT
BRANCH   1   9
ATOM      7  C   UNL     1       6.169   4.945  15.606  0.00  0.00    +0.000 C 
ATOM      8  O   UNL     1       5.992   6.126  15.896  0.00  0.00    +0.000 OA
ATOM      9  N   UNL     1       5.666   3.861  16.307  0.00  0.00    +0.000 N 
ATOM     10  H   UNL     1       6.068   2.948  16.128  0.00  0.00    +0.000 HD
BRANCH   7  11
ATOM     11  C   UNL     1       7.023   4.589  14.418  0.00  0.00    +0.000 C 
BRANCH  11  13
ATOM     12  C   UNL     1       6.960   3.607  12.010  0.00  0.00    +0.000 C 
ATOM     13  C   UNL     1       6.231   4.019  13.264  0.00  0.00    +0.000 C 
ATOM     14  O   UNL     1       5.013   3.844  13.373  0.00  0.00    +0.000 OA
ENDBRANCH  11  13
ENDBRANCH   7  11
ENDBRANCH   1   9
BRANCH   4  15
ATOM     15  S   UNL     1       1.738   4.152  20.811  0.00  0.00    +0.000 S 
ATOM     16  O   UNL     1       2.273   3.467  21.965  0.00  0.00    +0.000 OA
ATOM     17  O   UNL     1       1.195   5.485  20.881  0.00  0.00    +0.000 OA
BRANCH  15  18
ATOM     18  N   UNL     1       0.503   3.178  20.223  0.00  0.00    +0.000 NA
ATOM     19  H   UNL     1       0.317   2.418  20.877  0.00  0.00    +0.000 HD
ATOM     20  H   UNL     1      -0.313   3.746  20.001  0.00  0.00    +0.000 HD
ENDBRANCH  15  18
ENDBRANCH   4  15
TORSDOF 5
ENDMDL
MODEL 2
REMARK VINA RESULT:      -6.3      0.457      1.112
REMARK  Name = 
REMARK  6 active torsions:
REMARK  status: ('A' for Active; 'I' for Inactive)
REMARK    1  A    between atoms: C_1  and  C_2
REMARK    2  A    between atoms: C_2  and  C_4
REMARK    3  A    between atoms: C_4  and  C_5
REMARK    4  A    between atoms: N_7  and  C_8
REMARK    5  A    between atoms: C_11  and  S_12
REMARK    6  A    between atoms: S_12  and  N_13
REMARK                            x       y       z     vdW  Elec       q    Type
REMARK                         _______ _______ _______ _____ _____    ______ ____
ROOT
ATOM      1  C   UNL     1       4.903   4.071  17.479  0.00  0.00    +0.000 A 
ATOM      2  C   UNL     1       5.103   4.858  18.619  0.00  0.00    +0.000 A 
ATOM      3  C   UNL     1       4.157   4.899  19.642  0.00  0.00    +0.000 A 
ATOM      4  C   UNL     1       2.984   4.158  19.523  0.00  0.00    +0.000 A 
ATOM      5  C   UNL     1       2.759   3.364  18.394  0.00  0.00    +0.000 A 
ATOM      6  C   UNL     1       3.714   3.335  17.367  0.00  0.00    +0.000 A 
ENDROOT
BRANCH   1   9
ATOM      7  C   UNL     1       6.096   5.040  15.528  0.00  0.00    +0.000 C 
ATOM      8  O   UNL     1       5.665   6.188  15.618  0.00  0.00    +0.000 OA
ATOM      9  N   UNL     1       5.841   4.014  16.424  0.00  0.00    +0.000 N 
ATOM     10  H   UNL     1       6.432   3.192  16.389  0.00  0.00    +0.000 HD
BRANCH   7  11
ATOM     11  C   UNL     1       7.007   4.672  14.387  0.00  0.00    +0.000 C 
BRANCH  11  13
ATOM     12  C   UNL     1       7.052   3.707  11.972  0.00  0.00    +0.000 C 
ATOM     13  C   UNL     1       6.280   4.035  13.226  0.00  0.00    +0.000 C 
ATOM     14  O   UNL     1       5.086   3.737  13.328  0.00  0.00    +0.000 OA
ENDBRANCH  11  13
ENDBRANCH   7  11
ENDBRANCH   1   9
BRANCH   4  15
ATOM     15  S   UNL     1       1.801   4.226  20.832  0.00  0.00    +0.000 S 
ATOM     16  O   UNL     1       2.302   3.484  21.965  0.00  0.00    +0.000 OA
ATOM     17  O   UNL     1       1.290   5.569  20.947  0.00  0.00    +0.000 OA
BRANCH  15  18
ATOM     18  N   UNL     1       0.549   3.308  20.192  0.00  0.00    +0.000 NA
ATOM     19  H   UNL     1      -0.288   3.413  20.764  0.00  0.00    +0.000 HD
ATOM     20  H   UNL     1       0.416   3.539  19.208  0.00  0.00    +0.000 HD
ENDBRANCH  15  18
ENDBRANCH   4  15
TORSDOF 5
ENDMDL
MODEL 3
REMARK VINA RESULT:      -6.2      0.910      1.642
REMARK  Name = 
REMARK  6 active torsions:
REMARK  status: ('A' for Active; 'I' for Inactive)
REMARK    1  A    between atoms: C_1  and  C_2
REMARK    2  A    between atoms: C_2  and  C_4
REMARK    3  A    between atoms: C_4  and  C_5
REMARK    4  A    between atoms: N_7  and  C_8
REMARK    5  A    between atoms: C_11  and  S_12
REMARK    6  A    between atoms: S_12  and  N_13
REMARK                            x       y       z     vdW  Elec       q    Type
REMARK                         _______ _______ _______ _____ _____    ______ ____
ROOT
ATOM      1  C   UNL     1       4.918   3.967  17.339  0.00  0.00    +0.000 A 
ATOM      2  C   UNL     1       5.309   4.340  18.630  0.00  0.00    +0.000 A 
ATOM      3  C   UNL     1       4.385   4.405  19.672  0.00  0.00    +0.000 A 
ATOM      4  C   UNL     1       3.047   4.110  19.422  0.00  0.00    +0.000 A 
ATOM      5  C   UNL     1       2.631   3.736  18.142  0.00  0.00    +0.000 A 
ATOM      6  C   UNL     1       3.566   3.681  17.098  0.00  0.00    +0.000 A 
ENDROOT
BRANCH   1   9
ATOM      7  C   UNL     1       6.253   4.979  15.504  0.00  0.00    +0.000 C 
ATOM      8  O   UNL     1       6.021   6.160  15.757  0.00  0.00    +0.000 OA
ATOM      9  N   UNL     1       5.831   3.899  16.261  0.00  0.00    +0.000 N 
ATOM     10  H   UNL     1       6.275   3.001  16.103  0.00  0.00    +0.000 HD
BRANCH   7  11
ATOM     11  C   UNL     1       7.086   4.622  14.302  0.00  0.00    +0.000 C 
BRANCH  11  13
ATOM     12  C   UNL     1       6.992   3.583  11.920  0.00  0.00    +0.000 C 
ATOM     13  C   UNL     1       6.282   4.002  13.183  0.00  0.00    +0.000 C 
ATOM     14  O   UNL     1       5.074   3.792  13.328  0.00  0.00    +0.000 OA
ENDBRANCH  11  13
ENDBRANCH   7  11
ENDBRANCH   1   9
BRANCH   4  15
ATOM     15  S   UNL     1       1.895   4.200  20.759  0.00  0.00    +0.000 S 
ATOM     16  O   UNL     1       0.561   3.978  20.252  0.00  0.00    +0.000 OA
ATOM     17  O   UNL     1       2.423   3.486  21.895  0.00  0.00    +0.000 OA
BRANCH  15  18
ATOM     18  N   UNL     1       1.979   5.829  21.156  0.00  0.00    +0.000 NA
ATOM     19  H   UNL     1       2.781   6.000  21.761  0.00  0.00    +0.000 HD
ATOM     20  H   UNL     1       1.966   6.395  20.308  0.00  0.00    +0.000 HD
ENDBRANCH  15  18
ENDBRANCH   4  15
TORSDOF 5
ENDMDL
MODEL 4
REMARK VINA RESULT:      -6.2      0.906      1.171
REMARK  Name = 
REMARK  6 active torsions:
REMARK  status: ('A' for Active; 'I' for Inactive)
REMARK    1  A    between atoms: C_1  and  C_2
REMARK    2  A    between atoms: C_2  and  C_4
REMARK    3  A    between atoms: C_4  and  C_5
REMARK    4  A    between atoms: N_7  and  C_8
REMARK    5  A    between atoms: C_11  and  S_12
REMARK    6  A    between atoms: S_12  and  N_13
REMARK                            x       y       z     vdW  Elec       q    Type
REMARK                         _______ _______ _______ _____ _____    ______ ____
ROOT
ATOM      1  C   UNL     1       4.761   3.876  17.204  0.00  0.00    +0.000 A 
ATOM      2  C   UNL     1       3.384   3.698  17.035  0.00  0.00    +0.000 A 
ATOM      3  C   UNL     1       2.507   3.785  18.115  0.00  0.00    +0.000 A 
ATOM      4  C   UNL     1       3.011   4.037  19.389  0.00  0.00    +0.000 A 
ATOM      5  C   UNL     1       4.383   4.218  19.586  0.00  0.00    +0.000 A 
ATOM      6  C   UNL     1       5.257   4.121  18.493  0.00  0.00    +0.000 A 
ENDROOT
BRANCH   1   9
ATOM      7  C   UNL     1       6.141   4.863  15.390  0.00  0.00    +0.000 C 
ATOM      8  O   UNL     1       5.955   6.047  15.659  0.00  0.00    +0.000 OA
ATOM      9  N   UNL     1       5.675   3.788  16.129  0.00  0.00    +0.000 N 
ATOM     10  H   UNL     1       6.084   2.876  15.958  0.00  0.00    +0.000 HD
BRANCH   7  11
ATOM     11  C   UNL     1       6.965   4.492  14.185  0.00  0.00    +0.000 C 
BRANCH  11  13
ATOM     12  C   UNL     1       6.871   3.265  11.894  0.00  0.00    +0.000 C 
ATOM     13  C   UNL     1       6.152   3.859  13.080  0.00  0.00    +0.000 C 
ATOM     14  O   UNL     1       4.924   3.782  13.178  0.00  0.00    +0.000 OA
ENDBRANCH  11  13
ENDBRANCH   7  11
ENDBRANCH   1   9
BRANCH   4  15
ATOM     15  S   UNL     1       1.880   4.143  20.742  0.00  0.00    +0.000 S 
ATOM     16  O   UNL     1       0.541   3.897  20.262  0.00  0.00    +0.000 OA
ATOM     17  O   UNL     1       2.435   3.459  21.884  0.00  0.00    +0.000 OA
BRANCH  15  18
ATOM     18  N   UNL     1       1.952   5.781  21.103  0.00  0.00    +0.000 NA
ATOM     19  H   UNL     1       2.320   6.298  20.305  0.00  0.00    +0.000 HD
ATOM     20  H   UNL     1       1.043   6.106  21.428  0.00  0.00    +0.000 HD
ENDBRANCH  15  18
ENDBRANCH   4  15
TORSDOF 5
ENDMDL
MODEL 5
REMARK VINA RESULT:      -6.0      0.915      1.032
REMARK  Name = 
REMARK  6 active torsions:
REMARK  status: ('A' for Active; 'I' for Inactive)
REMARK    1  A    between atoms: C_1  and  C_2
REMARK    2  A    between atoms: C_2  and  C_4
REMARK    3  A    between atoms: C_4  and  C_5
REMARK    4  A    between atoms: N_7  and  C_8
REMARK    5  A    between atoms: C_11  and  S_12
REMARK    6  A    between atoms: S_12  and  N_13
REMARK                            x       y       z     vdW  Elec       q    Type
REMARK                         _______ _______ _______ _____ _____    ______ ____
ROOT
ATOM      1  C   UNL     1       4.843   3.924  17.277  0.00  0.00    +0.000 A 
ATOM      2  C   UNL     1       3.531   3.467  17.110  0.00  0.00    +0.000 A 
ATOM      3  C   UNL     1       2.613   3.516  18.158  0.00  0.00    +0.000 A 
ATOM      4  C   UNL     1       3.010   4.011  19.397  0.00  0.00    +0.000 A 
ATOM      5  C   UNL     1       4.316   4.472  19.590  0.00  0.00    +0.000 A 
ATOM      6  C   UNL     1       5.235   4.412  18.532  0.00  0.00    +0.000 A 
ENDROOT
BRANCH   1   9
ATOM      7  C   UNL     1       6.140   4.952  15.424  0.00  0.00    +0.000 C 
ATOM      8  O   UNL     1       5.786   6.116  15.595  0.00  0.00    +0.000 OA
ATOM      9  N   UNL     1       5.798   3.882  16.235  0.00  0.00    +0.000 N 
ATOM     10  H   UNL     1       6.333   3.025  16.148  0.00  0.00    +0.000 HD
BRANCH   7  11
ATOM     11  C   UNL     1       7.049   4.609  14.274  0.00  0.00    +0.000 C 
BRANCH  11  13
ATOM     12  C   UNL     1       7.098   3.649  11.857  0.00  0.00    +0.000 C 
ATOM     13  C   UNL     1       6.322   3.980  13.108  0.00  0.00    +0.000 C 
ATOM     14  O   UNL     1       5.126   3.692  13.204  0.00  0.00    +0.000 OA
ENDBRANCH  11  13
ENDBRANCH   7  11
ENDBRANCH   1   9
BRANCH   4  15
ATOM     15  S   UNL     1       1.829   4.062  20.709  0.00  0.00    +0.000 S 
ATOM     16  O   UNL     1       1.806   5.390  21.276  0.00  0.00    +0.000 OA
ATOM     17  O   UNL     1       0.632   3.369  20.303  0.00  0.00    +0.000 OA
BRANCH  15  18
ATOM     18  N   UNL     1       2.567   3.080  21.854  0.00  0.00    +0.000 NA
ATOM     19  H   UNL     1       2.429   2.099  21.613  0.00  0.00    +0.000 HD
ATOM     20  H   UNL     1       3.544   3.349  21.966  0.00  0.00    +0.000 HD
ENDBRANCH  15  18
ENDBRANCH   4  15
TORSDOF 5
ENDMDL
MODEL 6
REMARK VINA RESULT:      -6.0      1.058      1.603
REMARK  Name = 
REMARK  6 active torsions:
REMARK  status: ('A' for Active; 'I' for Inactive)
REMARK    1  A    between atoms: C_1  and  C_2
REMARK    2  A    between atoms: C_2  and  C_4
REMARK    3  A    between atoms: C_4  and  C_5
REMARK    4  A    between atoms: N_7  and  C_8
REMARK    5  A    between atoms: C_11  and  S_12
REMARK    6  A    between atoms: S_12  and  N_13
REMARK                            x       y       z     vdW  Elec       q    Type
REMARK                         _______ _______ _______ _____ _____    ______ ____
ROOT
ATOM      1  C   UNL     1       4.697   3.588  17.378  0.00  0.00    +0.000 A 
ATOM      2  C   UNL     1       4.995   4.475  18.419  0.00  0.00    +0.000 A 
ATOM      3  C   UNL     1       4.172   4.573  19.540  0.00  0.00    +0.000 A 
ATOM      4  C   UNL     1       3.025   3.789  19.621  0.00  0.00    +0.000 A 
ATOM      5  C   UNL     1       2.703   2.896  18.594  0.00  0.00    +0.000 A 
ATOM      6  C   UNL     1       3.533   2.809  17.467  0.00  0.00    +0.000 A 
ENDROOT
BRANCH   1   9
ATOM      7  C   UNL     1       5.560   4.389  15.191  0.00  0.00    +0.000 C 
ATOM      8  O   UNL     1       5.035   5.501  15.198  0.00  0.00    +0.000 OA
ATOM      9  N   UNL     1       5.508   3.471  16.227  0.00  0.00    +0.000 N 
ATOM     10  H   UNL     1       6.168   2.701  16.216  0.00  0.00    +0.000 HD
BRANCH   7  11
ATOM     11  C   UNL     1       6.365   3.951  13.997  0.00  0.00    +0.000 C 
BRANCH  11  13
ATOM     12  C   UNL     1       7.644   5.196  12.105  0.00  0.00    +0.000 C 
ATOM     13  C   UNL     1       7.405   4.962  13.576  0.00  0.00    +0.000 C 
ATOM     14  O   UNL     1       8.007   5.625  14.426  0.00  0.00    +0.000 OA
ENDBRANCH  11  13
ENDBRANCH   7  11
ENDBRANCH   1   9
BRANCH   4  15
ATOM     15  S   UNL     1       1.998   3.931  21.051  0.00  0.00    +0.000 S 
ATOM     16  O   UNL     1       2.526   3.091  22.100  0.00  0.00    +0.000 OA
ATOM     17  O   UNL     1       1.658   5.316  21.261  0.00  0.00    +0.000 OA
BRANCH  15  18
ATOM     18  N   UNL     1       0.591   3.185  20.521  0.00  0.00    +0.000 NA
ATOM     19  H   UNL     1       0.033   2.884  21.320  0.00  0.00    +0.000 HD
ATOM     20  H   UNL     1       0.095   3.795  19.871  0.00  0.00    +0.000 HD
ENDBRANCH  15  18
ENDBRANCH   4  15
TORSDOF 5
ENDMDL
MODEL 7
REMARK VINA RESULT:      -5.9      1.308      1.659
REMARK  Name = 
REMARK  6 active torsions:
REMARK  status: ('A' for Active; 'I' for Inactive)
REMARK    1  A    between atoms: C_1  and  C_2
REMARK    2  A    between atoms: C_2  and  C_4
REMARK    3  A    between atoms: C_4  and  C_5
REMARK    4  A    between atoms: N_7  and  C_8
REMARK    5  A    between atoms: C_11  and  S_12
REMARK    6  A    between atoms: S_12  and  N_13
REMARK                            x       y       z     vdW  Elec       q    Type
REMARK                         _______ _______ _______ _____ _____    ______ ____
ROOT
ATOM      1  C   UNL     1       4.576   3.688  17.214  0.00  0.00    +0.000 A 
ATOM      2  C   UNL     1       3.204   3.417  17.146  0.00  0.00    +0.000 A 
ATOM      3  C   UNL     1       2.379   3.592  18.256  0.00  0.00    +0.000 A 
ATOM      4  C   UNL     1       2.930   4.026  19.459  0.00  0.00    +0.000 A 
ATOM      5  C   UNL     1       4.296   4.302  19.554  0.00  0.00    +0.000 A 
ATOM      6  C   UNL     1       5.120   4.116  18.434  0.00  0.00    +0.000 A 
ENDROOT
BRANCH   1   9
ATOM      7  C   UNL     1       5.619   4.435  15.087  0.00  0.00    +0.000 C 
ATOM      8  O   UNL     1       5.184   5.584  15.079  0.00  0.00    +0.000 OA
ATOM      9  N   UNL     1       5.438   3.515  16.108  0.00  0.00    +0.000 N 
ATOM     10  H   UNL     1       6.034   2.695  16.123  0.00  0.00    +0.000 HD
BRANCH   7  11
ATOM     11  C   UNL     1       6.452   3.943  13.933  0.00  0.00    +0.000 C 
BRANCH  11  13
ATOM     12  C   UNL     1       7.607   5.192  11.966  0.00  0.00    +0.000 C 
ATOM     13  C   UNL     1       7.458   4.960  13.449  0.00  0.00    +0.000 C 
ATOM     14  O   UNL     1       8.106   5.629  14.260  0.00  0.00    +0.000 OA
ENDBRANCH  11  13
ENDBRANCH   7  11
ENDBRANCH   1   9
BRANCH   4  15
ATOM     15  S   UNL     1       1.864   4.239  20.851  0.00  0.00    +0.000 S 
ATOM     16  O   UNL     1       0.490   4.122  20.421  0.00  0.00    +0.000 OA
ATOM     17  O   UNL     1       2.391   3.505  21.975  0.00  0.00    +0.000 OA
BRANCH  15  18
ATOM     18  N   UNL     1       2.105   5.862  21.204  0.00  0.00    +0.000 NA
ATOM     19  H   UNL     1       2.697   5.956  22.029  0.00  0.00    +0.000 HD
ATOM     20  H   UNL     1       2.456   6.350  20.381  0.00  0.00    +0.000 HD
ENDBRANCH  15  18
ENDBRANCH   4  15
TORSDOF 5
ENDMDL
MODEL 8
REMARK VINA RESULT:      -5.9      1.118      1.309
REMARK  Name = 
REMARK  6 active torsions:
REMARK  status: ('A' for Active; 'I' for Inactive)
REMARK    1  A    between atoms: C_1  and  C_2
REMARK    2  A    between atoms: C_2  and  C_4
REMARK    3  A    between atoms: C_4  and  C_5
REMARK    4  A    between atoms: N_7  and  C_8
REMARK    5  A    between atoms: C_11  and  S_12
REMARK    6  A    between atoms: S_12  and  N_13
REMARK                            x       y       z     vdW  Elec       q    Type
REMARK                         _______ _______ _______ _____ _____    ______ ____
ROOT
ATOM      1  C   UNL     1       4.476   4.856  16.938  0.00  0.00    +0.000 A 
ATOM      2  C   UNL     1       4.277   5.960  17.775  0.00  0.00    +0.000 A 
ATOM      3  C   UNL     1       3.485   5.865  18.917  0.00  0.00    +0.000 A 
ATOM      4  C   UNL     1       2.866   4.656  19.225  0.00  0.00    +0.000 A 
ATOM      5  C   UNL     1       3.047   3.538  18.406  0.00  0.00    +0.000 A 
ATOM      6  C   UNL     1       3.840   3.645  17.254  0.00  0.00    +0.000 A 
ENDROOT
BRANCH   1   9
ATOM      7  C   UNL     1       6.648   4.798  15.735  0.00  0.00    +0.000 C 
ATOM      8  O   UNL     1       7.357   4.456  16.679  0.00  0.00    +0.000 OA
ATOM      9  N   UNL     1       5.269   4.923  15.770  0.00  0.00    +0.000 N 
ATOM     10  H   UNL     1       4.770   4.971  14.888  0.00  0.00    +0.000 HD
BRANCH   7  11
ATOM     11  C   UNL     1       7.275   5.085  14.397  0.00  0.00    +0.000 C 
BRANCH  11  13
ATOM     12  C   UNL     1       7.289   4.382  11.893  0.00  0.00    +0.000 C 
ATOM     13  C   UNL     1       6.728   4.222  13.284  0.00  0.00    +0.000 C 
ATOM     14  O   UNL     1       5.877   3.362  13.527  0.00  0.00    +0.000 OA
ENDBRANCH  11  13
ENDBRANCH   7  11
ENDBRANCH   1   9
BRANCH   4  15
ATOM     15  S   UNL     1       1.866   4.561  20.679  0.00  0.00    +0.000 S 
ATOM     16  O   UNL     1       2.537   3.745  21.664  0.00  0.00    +0.000 OA
ATOM     17  O   UNL     1       1.335   5.866  20.981  0.00  0.00    +0.000 OA
BRANCH  15  18
ATOM     18  N   UNL     1       0.569   3.650  20.126  0.00  0.00    +0.000 NA
ATOM     19  H   UNL     1       0.725   3.373  19.157  0.00  0.00    +0.000 HD
ATOM     20  H   UNL     1       0.394   2.871  20.760  0.00  0.00    +0.000 HD
ENDBRANCH  15  18
ENDBRANCH   4  15
TORSDOF 5
ENDMDL
MODEL 9
REMARK VINA RESULT:      -5.8      1.078      1.132
REMARK  Name = 
REMARK  6 active torsions:
REMARK  status: ('A' for Active; 'I' for Inactive)
REMARK    1  A    between atoms: C_1  and  C_2
REMARK    2  A    between atoms: C_2  and  C_4
REMARK    3  A    between atoms: C_4  and  C_5
REMARK    4  A    between atoms: N_7  and  C_8
REMARK    5  A    between atoms: C_11  and  S_12
REMARK    6  A    between atoms: S_12  and  N_13
REMARK                            x       y       z     vdW  Elec       q    Type
REMARK                         _______ _______ _______ _____ _____    ______ ____
ROOT
ATOM      1  C   UNL     1       4.429   4.728  16.902  0.00  0.00    +0.000 A 
ATOM      2  C   UNL     1       3.728   3.561  17.226  0.00  0.00    +0.000 A 
ATOM      3  C   UNL     1       2.945   3.486  18.376  0.00  0.00    +0.000 A 
ATOM      4  C   UNL     1       2.871   4.584  19.229  0.00  0.00    +0.000 A 
ATOM      5  C   UNL     1       3.562   5.762  18.930  0.00  0.00    +0.000 A 
ATOM      6  C   UNL     1       4.353   5.825  17.774  0.00  0.00    +0.000 A 
ENDROOT
BRANCH   1   9
ATOM      7  C   UNL     1       6.617   4.731  15.727  0.00  0.00    +0.000 C 
ATOM      8  O   UNL     1       7.320   4.384  16.673  0.00  0.00    +0.000 OA
ATOM      9  N   UNL     1       5.236   4.832  15.746  0.00  0.00    +0.000 N 
ATOM     10  H   UNL     1       4.748   4.888  14.859  0.00  0.00    +0.000 HD
BRANCH   7  11
ATOM     11  C   UNL     1       7.257   5.055  14.403  0.00  0.00    +0.000 C 
BRANCH  11  13
ATOM     12  C   UNL     1       7.325   4.388  11.890  0.00  0.00    +0.000 C 
ATOM     13  C   UNL     1       6.722   4.221  13.263  0.00  0.00    +0.000 C 
ATOM     14  O   UNL     1       5.843   3.379  13.468  0.00  0.00    +0.000 OA
ENDBRANCH  11  13
ENDBRANCH   7  11
ENDBRANCH   1   9
BRANCH   4  15
ATOM     15  S   UNL     1       1.872   4.465  20.681  0.00  0.00    +0.000 S 
ATOM     16  O   UNL     1       2.523   3.598  21.635  0.00  0.00    +0.000 OA
ATOM     17  O   UNL     1       1.376   5.773  21.030  0.00  0.00    +0.000 OA
BRANCH  15  18
ATOM     18  N   UNL     1       0.549   3.609  20.101  0.00  0.00    +0.000 NA
ATOM     19  H   UNL     1       0.819   3.064  19.281  0.00  0.00    +0.000 HD
ATOM     20  H   UNL     1       0.135   3.057  20.851  0.00  0.00    +0.000 HD
ENDBRANCH  15  18
ENDBRANCH   4  15
TORSDOF 5
ENDMDL
