MODEL 1
REMARK VINA RESULT:      -7.0      0.000      0.000
REMARK  Name = 
REMARK  3 active torsions:
REMARK  status: ('A' for Active; 'I' for Inactive)
REMARK    1  A    between atoms: C_1  and  N_2
REMARK    2  A    between atoms: C_9  and  O_10
REMARK    3  A    between atoms: C_13  and  C_14
REMARK                            x       y       z     vdW  Elec       q    Type
REMARK                         _______ _______ _______ _____ _____    ______ ____
ROOT
ATOM      1  C   UNL     1       0.944   9.782  20.642  0.00  0.00    +0.000 C 
ATOM      2  N   UNL     1       1.246   8.675  19.726  0.00  0.00    +0.000 NA
ATOM      3  C   UNL     1       2.185   9.154  18.692  0.00  0.00    +0.000 C 
ATOM      4  C   UNL     1       2.406   8.186  17.521  0.00  0.00    +0.000 C 
ATOM      5  C   UNL     1       3.469   7.170  17.855  0.00  0.00    +0.000 A 
ATOM      6  C   UNL     1       4.698   7.204  17.172  0.00  0.00    +0.000 A 
ATOM      7  C   UNL     1       5.724   6.330  17.518  0.00  0.00    +0.000 A 
ATOM      8 BR   UNL     1       7.376   6.426  16.597  0.00  0.00    +0.000 Br
ATOM      9  C   UNL     1       5.534   5.417  18.548  0.00  0.00    +0.000 A 
ATOM     10  C   UNL     1       4.319   5.368  19.228  0.00  0.00    +0.000 A 
ATOM     11  C   UNL     1       3.261   6.237  18.886  0.00  0.00    +0.000 A 
ATOM     12  C   UNL     1       1.906   6.202  19.615  0.00  0.00    +0.000 C 
ATOM     13  C   UNL     1       1.719   7.482  20.486  0.00  0.00    +0.000 C 
ENDROOT
BRANCH  12  14
ATOM     14  C   UNL     1       1.657   4.850  20.290  0.00  0.00    +0.000 A 
ATOM     15  C   UNL     1       2.185   4.500  21.541  0.00  0.00    +0.000 A 
ATOM     16  C   UNL     1       2.164   3.167  21.964  0.00  0.00    +0.000 A 
ATOM     17  C   UNL     1       1.596   2.178  21.158  0.00  0.00    +0.000 A 
ATOM     18  C   UNL     1       1.005   2.523  19.947  0.00  0.00    +0.000 A 
ATOM     19  C   UNL     1       1.029   3.847  19.520  0.00  0.00    +0.000 A 
ENDBRANCH  12  14
BRANCH   9  20
ATOM     20  O   UNL     1       6.506   4.544  18.942  0.00  0.00    +0.000 OA
ATOM     21  H   UNL     1       7.279   4.693  18.368  0.00  0.00    +0.000 HD
ENDBRANCH   9  20
TORSDOF 2
ENDMDL
MODEL 2
REMARK VINA RESULT:      -6.8      2.105      4.583
REMARK  Name = 
REMARK  3 active torsions:
REMARK  status: ('A' for Active; 'I' for Inactive)
REMARK    1  A    between atoms: C_1  and  N_2
REMARK    2  A    between atoms: C_9  and  O_10
REMARK    3  A    between atoms: C_13  and  C_14
REMARK                            x       y       z     vdW  Elec       q    Type
REMARK                         _______ _______ _______ _____ _____    ______ ____
ROOT
ATOM      1  C   UNL     1       0.842   2.466  19.669  0.00  0.00    +0.000 C 
ATOM      2  N   UNL     1       1.995   3.374  19.709  0.00  0.00    +0.000 NA
ATOM      3  C   UNL     1       3.165   2.684  19.129  0.00  0.00    +0.000 C 
ATOM      4  C   UNL     1       4.505   3.410  19.322  0.00  0.00    +0.000 C 
ATOM      5  C   UNL     1       4.720   4.440  18.242  0.00  0.00    +0.000 A 
ATOM      6  C   UNL     1       5.737   4.245  17.292  0.00  0.00    +0.000 A 
ATOM      7  C   UNL     1       5.903   5.141  16.239  0.00  0.00    +0.000 A 
ATOM      8 BR   UNL     1       7.264   4.828  14.960  0.00  0.00    +0.000 Br
ATOM      9  C   UNL     1       5.054   6.234  16.124  0.00  0.00    +0.000 A 
ATOM     10  C   UNL     1       4.046   6.443  17.064  0.00  0.00    +0.000 A 
ATOM     11  C   UNL     1       3.869   5.556  18.146  0.00  0.00    +0.000 A 
ATOM     12  C   UNL     1       2.768   5.764  19.202  0.00  0.00    +0.000 C 
ATOM     13  C   UNL     1       1.661   4.675  19.061  0.00  0.00    +0.000 C 
ENDROOT
BRANCH  12  14
ATOM     14  C   UNL     1       2.313   7.224  19.270  0.00  0.00    +0.000 A 
ATOM     15  C   UNL     1       1.784   7.817  20.426  0.00  0.00    +0.000 A 
ATOM     16  C   UNL     1       1.126   9.048  20.344  0.00  0.00    +0.000 A 
ATOM     17  C   UNL     1       1.011   9.710  19.120  0.00  0.00    +0.000 A 
ATOM     18  C   UNL     1       1.594   9.167  17.980  0.00  0.00    +0.000 A 
ATOM     19  C   UNL     1       2.245   7.939  18.055  0.00  0.00    +0.000 A 
ENDBRANCH  12  14
BRANCH   9  20
ATOM     20  O   UNL     1       5.158   7.140  15.107  0.00  0.00    +0.000 OA
ATOM     21  H   UNL     1       5.992   7.625  15.237  0.00  0.00    +0.000 HD
ENDBRANCH   9  20
TORSDOF 2
ENDMDL
MODEL 3
REMARK VINA RESULT:      -6.5      4.290      6.821
REMARK  Name = 
REMARK  3 active torsions:
REMARK  status: ('A' for Active; 'I' for Inactive)
REMARK    1  A    between atoms: C_1  and  N_2
REMARK    2  A    between atoms: C_9  and  O_10
REMARK    3  A    between atoms: C_13  and  C_14
REMARK                            x       y       z     vdW  Elec       q    Type
REMARK                         _______ _______ _______ _____ _____    ______ ____
ROOT
ATOM      1  C   UNL     1       8.124   8.312  17.832  0.00  0.00    +0.000 C 
ATOM      2  N   UNL     1       7.854   6.880  17.662  0.00  0.00    +0.000 NA
ATOM      3  C   UNL     1       7.312   6.343  18.927  0.00  0.00    +0.000 C 
ATOM      4  C   UNL     1       7.210   4.812  18.988  0.00  0.00    +0.000 C 
ATOM      5  C   UNL     1       5.922   4.333  18.366  0.00  0.00    +0.000 A 
ATOM      6  C   UNL     1       4.933   3.755  19.181  0.00  0.00    +0.000 A 
ATOM      7  C   UNL     1       3.705   3.379  18.644  0.00  0.00    +0.000 A 
ATOM      8 BR   UNL     1       2.385   2.631  19.778  0.00  0.00    +0.000 Br
ATOM      9  C   UNL     1       3.453   3.580  17.293  0.00  0.00    +0.000 A 
ATOM     10  C   UNL     1       4.428   4.146  16.473  0.00  0.00    +0.000 A 
ATOM     11  C   UNL     1       5.684   4.523  16.993  0.00  0.00    +0.000 A 
ATOM     12  C   UNL     1       6.781   5.145  16.111  0.00  0.00    +0.000 C 
ATOM     13  C   UNL     1       6.987   6.648  16.471  0.00  0.00    +0.000 C 
ENDROOT
BRANCH  12  14
ATOM     14  C   UNL     1       6.590   4.795  14.633  0.00  0.00    +0.000 A 
ATOM     15  C   UNL     1       5.675   3.836  14.176  0.00  0.00    +0.000 A 
ATOM     16  C   UNL     1       5.754   3.361  12.863  0.00  0.00    +0.000 A 
ATOM     17  C   UNL     1       6.726   3.853  11.989  0.00  0.00    +0.000 A 
ATOM     18  C   UNL     1       7.593   4.856  12.408  0.00  0.00    +0.000 A 
ATOM     19  C   UNL     1       7.522   5.328  13.715  0.00  0.00    +0.000 A 
ENDBRANCH  12  14
BRANCH   9  20
ATOM     20  O   UNL     1       2.265   3.245  16.710  0.00  0.00    +0.000 OA
ATOM     21  H   UNL     1       1.599   3.198  17.419  0.00  0.00    +0.000 HD
ENDBRANCH   9  20
TORSDOF 2
ENDMDL
MODEL 4
REMARK VINA RESULT:      -6.4      2.540      4.977
REMARK  Name = 
REMARK  3 active torsions:
REMARK  status: ('A' for Active; 'I' for Inactive)
REMARK    1  A    between atoms: C_1  and  N_2
REMARK    2  A    between atoms: C_9  and  O_10
REMARK    3  A    between atoms: C_13  and  C_14
REMARK                            x       y       z     vdW  Elec       q    Type
REMARK                         _______ _______ _______ _____ _____    ______ ____
ROOT
ATOM      1  C   UNL     1       1.161   9.699  17.673  0.00  0.00    +0.000 C 
ATOM      2  N   UNL     1       2.085   8.844  18.427  0.00  0.00    +0.000 NA
ATOM      3  C   UNL     1       1.365   8.263  19.579  0.00  0.00    +0.000 C 
ATOM      4  C   UNL     1       2.256   7.542  20.601  0.00  0.00    +0.000 C 
ATOM      5  C   UNL     1       2.508   6.115  20.184  0.00  0.00    +0.000 A 
ATOM      6  C   UNL     1       1.956   5.065  20.939  0.00  0.00    +0.000 A 
ATOM      7  C   UNL     1       2.106   3.743  20.530  0.00  0.00    +0.000 A 
ATOM      8 BR   UNL     1       1.322   2.358  21.556  0.00  0.00    +0.000 Br
ATOM      9  C   UNL     1       2.805   3.459  19.364  0.00  0.00    +0.000 A 
ATOM     10  C   UNL     1       3.363   4.489  18.609  0.00  0.00    +0.000 A 
ATOM     11  C   UNL     1       3.233   5.835  19.013  0.00  0.00    +0.000 A 
ATOM     12  C   UNL     1       3.844   6.994  18.203  0.00  0.00    +0.000 C 
ATOM     13  C   UNL     1       2.722   7.840  17.527  0.00  0.00    +0.000 C 
ENDROOT
BRANCH  12  14
ATOM     14  C   UNL     1       5.000   6.522  17.317  0.00  0.00    +0.000 A 
ATOM     15  C   UNL     1       4.859   6.222  15.954  0.00  0.00    +0.000 A 
ATOM     16  C   UNL     1       5.869   5.528  15.281  0.00  0.00    +0.000 A 
ATOM     17  C   UNL     1       7.035   5.150  15.949  0.00  0.00    +0.000 A 
ATOM     18  C   UNL     1       7.218   5.505  17.281  0.00  0.00    +0.000 A 
ATOM     19  C   UNL     1       6.214   6.190  17.957  0.00  0.00    +0.000 A 
ENDBRANCH  12  14
BRANCH   9  20
ATOM     20  O   UNL     1       2.975   2.185  18.903  0.00  0.00    +0.000 OA
ATOM     21  H   UNL     1       3.933   2.030  18.829  0.00  0.00    +0.000 HD
ENDBRANCH   9  20
TORSDOF 2
ENDMDL
MODEL 5
REMARK VINA RESULT:      -6.4      4.965      7.173
REMARK  Name = 
REMARK  3 active torsions:
REMARK  status: ('A' for Active; 'I' for Inactive)
REMARK    1  A    between atoms: C_1  and  N_2
REMARK    2  A    between atoms: C_9  and  O_10
REMARK    3  A    between atoms: C_13  and  C_14
REMARK                            x       y       z     vdW  Elec       q    Type
REMARK                         _______ _______ _______ _____ _____    ______ ____
ROOT
ATOM      1  C   UNL     1       2.804  14.109  18.714  0.00  0.00    +0.000 C 
ATOM      2  N   UNL     1       1.832  13.180  19.304  0.00  0.00    +0.000 NA
ATOM      3  C   UNL     1       0.515  13.845  19.367  0.00  0.00    +0.000 C 
ATOM      4  C   UNL     1      -0.549  13.095  20.182  0.00  0.00    +0.000 C 
ATOM      5  C   UNL     1      -1.242  12.056  19.336  0.00  0.00    +0.000 A 
ATOM      6  C   UNL     1      -2.595  12.228  18.999  0.00  0.00    +0.000 A 
ATOM      7  C   UNL     1      -3.235  11.325  18.154  0.00  0.00    +0.000 A 
ATOM      8 BR   UNL     1      -5.051  11.606  17.698  0.00  0.00    +0.000 Br
ATOM      9  C   UNL     1      -2.528  10.246  17.637  0.00  0.00    +0.000 A 
ATOM     10  C   UNL     1      -1.187  10.061  17.969  0.00  0.00    +0.000 A 
ATOM     11  C   UNL     1      -0.523  10.957  18.833  0.00  0.00    +0.000 A 
ATOM     12  C   UNL     1       0.955  10.774  19.222  0.00  0.00    +0.000 C 
ATOM     13  C   UNL     1       1.835  11.883  18.568  0.00  0.00    +0.000 C 
ENDROOT
BRANCH  12  14
ATOM     14  C   UNL     1       1.413   9.323  19.054  0.00  0.00    +0.000 A 
ATOM     15  C   UNL     1       1.400   8.381  20.094  0.00  0.00    +0.000 A 
ATOM     16  C   UNL     1       2.094   7.175  19.956  0.00  0.00    +0.000 A 
ATOM     17  C   UNL     1       2.783   6.885  18.777  0.00  0.00    +0.000 A 
ATOM     18  C   UNL     1       2.744   7.778  17.712  0.00  0.00    +0.000 A 
ATOM     19  C   UNL     1       2.060   8.983  17.846  0.00  0.00    +0.000 A 
ENDBRANCH  12  14
BRANCH   9  20
ATOM     20  O   UNL     1      -3.095   9.335  16.794  0.00  0.00    +0.000 OA
ATOM     21  H   UNL     1      -3.653   9.829  16.168  0.00  0.00    +0.000 HD
ENDBRANCH   9  20
TORSDOF 2
ENDMDL
MODEL 6
REMARK VINA RESULT:      -6.3      0.297      1.120
REMARK  Name = 
REMARK  3 active torsions:
REMARK  status: ('A' for Active; 'I' for Inactive)
REMARK    1  A    between atoms: C_1  and  N_2
REMARK    2  A    between atoms: C_9  and  O_10
REMARK    3  A    between atoms: C_13  and  C_14
REMARK                            x       y       z     vdW  Elec       q    Type
REMARK                         _______ _______ _______ _____ _____    ______ ____
ROOT
ATOM      1  C   UNL     1       0.867   9.469  20.791  0.00  0.00    +0.000 C 
ATOM      2  N   UNL     1       1.243   8.463  19.790  0.00  0.00    +0.000 NA
ATOM      3  C   UNL     1       2.152   9.085  18.806  0.00  0.00    +0.000 C 
ATOM      4  C   UNL     1       2.438   8.233  17.561  0.00  0.00    +0.000 C 
ATOM      5  C   UNL     1       3.566   7.265  17.820  0.00  0.00    +0.000 A 
ATOM      6  C   UNL     1       4.791   7.435  17.152  0.00  0.00    +0.000 A 
ATOM      7  C   UNL     1       5.872   6.604  17.433  0.00  0.00    +0.000 A 
ATOM      8 BR   UNL     1       7.516   6.883  16.536  0.00  0.00    +0.000 Br
ATOM      9  C   UNL     1       5.739   5.600  18.383  0.00  0.00    +0.000 A 
ATOM     10  C   UNL     1       4.528   5.416  19.047  0.00  0.00    +0.000 A 
ATOM     11  C   UNL     1       3.416   6.239  18.769  0.00  0.00    +0.000 A 
ATOM     12  C   UNL     1       2.064   6.055  19.482  0.00  0.00    +0.000 C 
ATOM     13  C   UNL     1       1.792   7.244  20.453  0.00  0.00    +0.000 C 
ENDROOT
BRANCH  12  14
ATOM     14  C   UNL     1       1.903   4.640  20.042  0.00  0.00    +0.000 A 
ATOM     15  C   UNL     1       1.164   3.633  19.403  0.00  0.00    +0.000 A 
ATOM     16  C   UNL     1       0.817   2.470  20.096  0.00  0.00    +0.000 A 
ATOM     17  C   UNL     1       1.222   2.287  21.420  0.00  0.00    +0.000 A 
ATOM     18  C   UNL     1       2.015   3.245  22.042  0.00  0.00    +0.000 A 
ATOM     19  C   UNL     1       2.359   4.407  21.358  0.00  0.00    +0.000 A 
ENDBRANCH  12  14
BRANCH   9  20
ATOM     20  O   UNL     1       6.766   4.762  18.712  0.00  0.00    +0.000 OA
ATOM     21  H   UNL     1       7.571   5.304  18.778  0.00  0.00    +0.000 HD
ENDBRANCH   9  20
TORSDOF 2
ENDMDL
MODEL 7
REMARK VINA RESULT:      -6.2      3.605      4.636
REMARK  Name = 
REMARK  3 active torsions:
REMARK  status: ('A' for Active; 'I' for Inactive)
REMARK    1  A    between atoms: C_1  and  N_2
REMARK    2  A    between atoms: C_9  and  O_10
REMARK    3  A    between atoms: C_13  and  C_14
REMARK                            x       y       z     vdW  Elec       q    Type
REMARK                         _______ _______ _______ _____ _____    ______ ____
ROOT
ATOM      1  C   UNL     1       7.870   5.193  20.664  0.00  0.00    +0.000 C 
ATOM      2  N   UNL     1       7.004   5.581  19.545  0.00  0.00    +0.000 NA
ATOM      3  C   UNL     1       7.837   6.188  18.486  0.00  0.00    +0.000 C 
ATOM      4  C   UNL     1       7.051   6.867  17.355  0.00  0.00    +0.000 C 
ATOM      5  C   UNL     1       6.646   5.865  16.304  0.00  0.00    +0.000 A 
ATOM      6  C   UNL     1       7.225   5.932  15.025  0.00  0.00    +0.000 A 
ATOM      7  C   UNL     1       6.928   4.971  14.062  0.00  0.00    +0.000 A 
ATOM      8 BR   UNL     1       7.751   5.076  12.360  0.00  0.00    +0.000 Br
ATOM      9  C   UNL     1       6.054   3.935  14.370  0.00  0.00    +0.000 A 
ATOM     10  C   UNL     1       5.468   3.862  15.632  0.00  0.00    +0.000 A 
ATOM     11  C   UNL     1       5.745   4.832  16.618  0.00  0.00    +0.000 A 
ATOM     12  C   UNL     1       5.109   4.780  18.019  0.00  0.00    +0.000 C 
ATOM     13  C   UNL     1       6.179   4.423  19.094  0.00  0.00    +0.000 C 
ENDROOT
BRANCH  12  14
ATOM     14  C   UNL     1       3.810   3.969  18.024  0.00  0.00    +0.000 A 
ATOM     15  C   UNL     1       2.553   4.519  17.731  0.00  0.00    +0.000 A 
ATOM     16  C   UNL     1       1.388   3.806  18.034  0.00  0.00    +0.000 A 
ATOM     17  C   UNL     1       1.464   2.535  18.606  0.00  0.00    +0.000 A 
ATOM     18  C   UNL     1       2.705   1.949  18.835  0.00  0.00    +0.000 A 
ATOM     19  C   UNL     1       3.867   2.657  18.541  0.00  0.00    +0.000 A 
ENDBRANCH  12  14
BRANCH   9  20
ATOM     20  O   UNL     1       5.734   2.956  13.474  0.00  0.00    +0.000 OA
ATOM     21  H   UNL     1       6.243   3.130  12.662  0.00  0.00    +0.000 HD
ENDBRANCH   9  20
TORSDOF 2
ENDMDL
MODEL 8
REMARK VINA RESULT:      -6.2      7.368     10.426
REMARK  Name = 
REMARK  3 active torsions:
REMARK  status: ('A' for Active; 'I' for Inactive)
REMARK    1  A    between atoms: C_1  and  N_2
REMARK    2  A    between atoms: C_9  and  O_10
REMARK    3  A    between atoms: C_13  and  C_14
REMARK                            x       y       z     vdW  Elec       q    Type
REMARK                         _______ _______ _______ _____ _____    ______ ____
ROOT
ATOM      1  C   UNL     1       1.057  16.044  22.294  0.00  0.00    +0.000 C 
ATOM      2  N   UNL     1       0.214  15.100  23.038  0.00  0.00    +0.000 NA
ATOM      3  C   UNL     1      -0.890  15.845  23.675  0.00  0.00    +0.000 C 
ATOM      4  C   UNL     1      -1.716  15.037  24.687  0.00  0.00    +0.000 C 
ATOM      5  C   UNL     1      -2.799  14.252  23.993  0.00  0.00    +0.000 A 
ATOM      6  C   UNL     1      -4.146  14.600  24.197  0.00  0.00    +0.000 A 
ATOM      7  C   UNL     1      -5.160  13.943  23.505  0.00  0.00    +0.000 A 
ATOM      8 BR   UNL     1      -6.960  14.460  23.783  0.00  0.00    +0.000 Br
ATOM      9  C   UNL     1      -4.838  12.936  22.604  0.00  0.00    +0.000 A 
ATOM     10  C   UNL     1      -3.508  12.576  22.397  0.00  0.00    +0.000 A 
ATOM     11  C   UNL     1      -2.466  13.221  23.097  0.00  0.00    +0.000 A 
ATOM     12  C   UNL     1      -0.987  12.841  22.894  0.00  0.00    +0.000 C 
ATOM     13  C   UNL     1      -0.225  13.982  22.153  0.00  0.00    +0.000 C 
ENDROOT
BRANCH  12  14
ATOM     14  C   UNL     1      -0.835  11.421  22.343  0.00  0.00    +0.000 A 
ATOM     15  C   UNL     1      -0.834  10.273  23.149  0.00  0.00    +0.000 A 
ATOM     16  C   UNL     1      -0.404   9.049  22.627  0.00  0.00    +0.000 A 
ATOM     17  C   UNL     1       0.003   8.952  21.295  0.00  0.00    +0.000 A 
ATOM     18  C   UNL     1      -0.061  10.066  20.465  0.00  0.00    +0.000 A 
ATOM     19  C   UNL     1      -0.482  11.288  20.982  0.00  0.00    +0.000 A 
ENDBRANCH  12  14
BRANCH   9  20
ATOM     20  O   UNL     1      -5.786  12.264  21.886  0.00  0.00    +0.000 OA
ATOM     21  H   UNL     1      -5.321  11.759  21.196  0.00  0.00    +0.000 HD
ENDBRANCH   9  20
TORSDOF 2
ENDMDL
MODEL 9
REMARK VINA RESULT:      -6.1      1.980      4.657
REMARK  Name = 
REMARK  3 active torsions:
REMARK  status: ('A' for Active; 'I' for Inactive)
REMARK    1  A    between atoms: C_1  and  N_2
REMARK    2  A    between atoms: C_9  and  O_10
REMARK    3  A    between atoms: C_13  and  C_14
REMARK                            x       y       z     vdW  Elec       q    Type
REMARK                         _______ _______ _______ _____ _____    ______ ____
ROOT
ATOM      1  C   UNL     1       1.376   2.519  20.484  0.00  0.00    +0.000 C 
ATOM      2  N   UNL     1       2.382   3.579  20.347  0.00  0.00    +0.000 NA
ATOM      3  C   UNL     1       3.641   2.981  19.861  0.00  0.00    +0.000 C 
ATOM      4  C   UNL     1       4.858   3.917  19.901  0.00  0.00    +0.000 C 
ATOM      5  C   UNL     1       4.920   4.773  18.661  0.00  0.00    +0.000 A 
ATOM      6  C   UNL     1       5.956   4.573  17.732  0.00  0.00    +0.000 A 
ATOM      7  C   UNL     1       5.989   5.295  16.543  0.00  0.00    +0.000 A 
ATOM      8 BR   UNL     1       7.383   4.977  15.302  0.00  0.00    +0.000 Br
ATOM      9  C   UNL     1       4.988   6.219  16.269  0.00  0.00    +0.000 A 
ATOM     10  C   UNL     1       3.959   6.432  17.185  0.00  0.00    +0.000 A 
ATOM     11  C   UNL     1       3.913   5.720  18.402  0.00  0.00    +0.000 A 
ATOM     12  C   UNL     1       2.792   5.938  19.435  0.00  0.00    +0.000 C 
ATOM     13  C   UNL     1       1.859   4.691  19.501  0.00  0.00    +0.000 C 
ENDROOT
BRANCH  12  14
ATOM     14  C   UNL     1       2.126   7.307  19.272  0.00  0.00    +0.000 A 
ATOM     15  C   UNL     1       2.220   8.081  18.106  0.00  0.00    +0.000 A 
ATOM     16  C   UNL     1       1.842   9.427  18.124  0.00  0.00    +0.000 A 
ATOM     17  C   UNL     1       1.345  10.006  19.294  0.00  0.00    +0.000 A 
ATOM     18  C   UNL     1       1.179   9.232  20.437  0.00  0.00    +0.000 A 
ATOM     19  C   UNL     1       1.560   7.893  20.425  0.00  0.00    +0.000 A 
ENDBRANCH  12  14
BRANCH   9  20
ATOM     20  O   UNL     1       4.958   6.947  15.115  0.00  0.00    +0.000 OA
ATOM     21  H   UNL     1       4.634   6.359  14.411  0.00  0.00    +0.000 HD
ENDBRANCH   9  20
TORSDOF 2
ENDMDL
