MODEL 1
REMARK VINA RESULT:      -7.9      0.000      0.000
REMARK  Name = 
REMARK  4 active torsions:
REMARK  status: ('A' for Active; 'I' for Inactive)
REMARK    1  A    between atoms: C_1  and  C_2
REMARK    2  A    between atoms: C_10  and  C_11
REMARK    3  A    between atoms: C_18  and  C_20
REMARK    4  A    between atoms: C_24  and  C_25
REMARK                            x       y       z     vdW  Elec       q    Type
REMARK                         _______ _______ _______ _____ _____    ______ ____
ROOT
ATOM      1  C   UNL     1       2.871   7.950  17.252  0.00  0.00    +0.000 C 
ATOM      2  C   UNL     1       2.167   8.427  18.519  0.00  0.00    +0.000 C 
ATOM      3  C   UNL     1       0.720   8.829  18.190  0.00  0.00    +0.000 C 
ATOM      4  C   UNL     1       0.081   9.559  19.334  0.00  0.00    +0.000 A 
ATOM      5  C   UNL     1       0.581   9.429  20.629  0.00  0.00    +0.000 A 
ATOM      6  N   UNL     1       0.090  10.148  21.659  0.00  0.00    +0.000 NA
ATOM      7  C   UNL     1      -0.909  10.988  21.403  0.00  0.00    +0.000 A 
ATOM      8  N   UNL     1      -1.400  11.734  22.454  0.00  0.00    +0.000 N 
ATOM      9  N   UNL     1      -1.505  11.134  20.211  0.00  0.00    +0.000 NA
ATOM     10  C   UNL     1      -1.013  10.396  19.198  0.00  0.00    +0.000 A 
ATOM     11  C   UNL     1       1.758   8.510  20.924  0.00  0.00    +0.000 C 
ATOM     12  N   UNL     1       2.145   7.648  19.781  0.00  0.00    +0.000 N 
ATOM     13  C   UNL     1       2.233   6.272  20.064  0.00  0.00    +0.000 C 
ATOM     14  O   UNL     1       2.008   5.823  21.188  0.00  0.00    +0.000 OA
ATOM     15  H   UNL     1      -1.169  11.282  23.330  0.00  0.00    +0.000 HD
ATOM     16  H   UNL     1      -2.370  11.965  22.295  0.00  0.00    +0.000 HD
ENDROOT
BRANCH  13  17
ATOM     17  C   UNL     1       2.608   5.280  19.031  0.00  0.00    +0.000 A 
ATOM     18  C   UNL     1       1.632   4.386  18.591  0.00  0.00    +0.000 A 
ATOM     19  C   UNL     1       1.859   3.590  17.473  0.00  0.00    +0.000 A 
ATOM     20  C   UNL     1       3.110   3.593  16.865  0.00  0.00    +0.000 A 
ATOM     21  C   UNL     1       4.172   4.339  17.409  0.00  0.00    +0.000 A 
ATOM     22  C   UNL     1       3.919   5.176  18.515  0.00  0.00    +0.000 A 
ATOM     23 CL   UNL     1       5.240   6.047  19.227  0.00  0.00    +0.000 Cl
BRANCH  21  24
ATOM     24  C   UNL     1       5.543   4.216  16.788  0.00  0.00    +0.000 C 
ATOM     25  F   UNL     1       5.620   3.196  15.882  0.00  0.00    +0.000 F 
ATOM     26  F   UNL     1       5.926   5.326  16.100  0.00  0.00    +0.000 F 
ATOM     27  F   UNL     1       6.520   3.960  17.698  0.00  0.00    +0.000 F 
ENDBRANCH  21  24
ENDBRANCH  13  17
BRANCH  10  28
ATOM     28  C   UNL     1      -1.746  10.578  17.949  0.00  0.00    +0.000 A 
ATOM     29  C   UNL     1      -2.623   9.783  17.233  0.00  0.00    +0.000 A 
ATOM     30  C   UNL     1      -2.957  10.523  16.087  0.00  0.00    +0.000 A 
ATOM     31  N   UNL     1      -2.366  11.717  16.070  0.00  0.00    +0.000 NA
ATOM     32  N   UNL     1      -1.674  11.743  17.227  0.00  0.00    +0.000 N 
ATOM     33  H   UNL     1      -1.148  12.576  17.467  0.00  0.00    +0.000 HD
ENDBRANCH  10  28
TORSDOF 3
ENDMDL
MODEL 2
REMARK VINA RESULT:      -7.4      2.114      2.589
REMARK  Name = 
REMARK  4 active torsions:
REMARK  status: ('A' for Active; 'I' for Inactive)
REMARK    1  A    between atoms: C_1  and  C_2
REMARK    2  A    between atoms: C_10  and  C_11
REMARK    3  A    between atoms: C_18  and  C_20
REMARK    4  A    between atoms: C_24  and  C_25
REMARK                            x       y       z     vdW  Elec       q    Type
REMARK                         _______ _______ _______ _____ _____    ______ ____
ROOT
ATOM      1  C   UNL     1       2.617   8.457  17.256  0.00  0.00    +0.000 C 
ATOM      2  C   UNL     1       1.768   9.097  18.350  0.00  0.00    +0.000 C 
ATOM      3  C   UNL     1       0.315   9.237  17.868  0.00  0.00    +0.000 C 
ATOM      4  C   UNL     1      -0.488  10.104  18.790  0.00  0.00    +0.000 A 
ATOM      5  C   UNL     1      -0.079  10.312  20.107  0.00  0.00    +0.000 A 
ATOM      6  N   UNL     1      -0.725  11.164  20.929  0.00  0.00    +0.000 NA
ATOM      7  C   UNL     1      -1.788  11.799  20.445  0.00  0.00    +0.000 A 
ATOM      8  N   UNL     1      -2.439  12.682  21.282  0.00  0.00    +0.000 N 
ATOM      9  N   UNL     1      -2.302  11.616  19.221  0.00  0.00    +0.000 NA
ATOM     10  C   UNL     1      -1.654  10.749  18.420  0.00  0.00    +0.000 A 
ATOM     11  C   UNL     1       1.168   9.630  20.656  0.00  0.00    +0.000 C 
ATOM     12  N   UNL     1       1.735   8.604  19.749  0.00  0.00    +0.000 N 
ATOM     13  C   UNL     1       1.954   7.340  20.329  0.00  0.00    +0.000 C 
ATOM     14  O   UNL     1       1.693   7.112  21.511  0.00  0.00    +0.000 OA
ATOM     15  H   UNL     1      -2.229  12.455  22.246  0.00  0.00    +0.000 HD
ATOM     16  H   UNL     1      -3.413  12.751  21.026  0.00  0.00    +0.000 HD
ENDROOT
BRANCH  13  17
ATOM     17  C   UNL     1       2.517   6.208  19.557  0.00  0.00    +0.000 A 
ATOM     18  C   UNL     1       3.621   6.451  18.742  0.00  0.00    +0.000 A 
ATOM     19  C   UNL     1       4.326   5.394  18.176  0.00  0.00    +0.000 A 
ATOM     20  C   UNL     1       3.855   4.094  18.321  0.00  0.00    +0.000 A 
ATOM     21  C   UNL     1       2.634   3.840  18.973  0.00  0.00    +0.000 A 
ATOM     22  C   UNL     1       1.952   4.914  19.581  0.00  0.00    +0.000 A 
ATOM     23 CL   UNL     1       0.415   4.615  20.331  0.00  0.00    +0.000 Cl
BRANCH  21  24
ATOM     24  C   UNL     1       2.101   2.428  19.000  0.00  0.00    +0.000 C 
ATOM     25  F   UNL     1       2.944   1.536  18.398  0.00  0.00    +0.000 F 
ATOM     26  F   UNL     1       1.917   1.942  20.258  0.00  0.00    +0.000 F 
ATOM     27  F   UNL     1       0.914   2.293  18.349  0.00  0.00    +0.000 F 
ENDBRANCH  21  24
ENDBRANCH  13  17
BRANCH  10  28
ATOM     28  C   UNL     1      -2.304  10.572  17.124  0.00  0.00    +0.000 A 
ATOM     29  C   UNL     1      -3.055   9.553  16.565  0.00  0.00    +0.000 A 
ATOM     30  C   UNL     1      -3.363   9.979  15.263  0.00  0.00    +0.000 A 
ATOM     31  N   UNL     1      -2.873  11.191  15.002  0.00  0.00    +0.000 NA
ATOM     32  N   UNL     1      -2.275  11.545  16.157  0.00  0.00    +0.000 N 
ATOM     33  H   UNL     1      -1.840  12.459  16.225  0.00  0.00    +0.000 HD
ENDBRANCH  10  28
TORSDOF 3
ENDMDL
MODEL 3
REMARK VINA RESULT:      -7.2      5.255      7.609
REMARK  Name = 
REMARK  4 active torsions:
REMARK  status: ('A' for Active; 'I' for Inactive)
REMARK    1  A    between atoms: C_1  and  C_2
REMARK    2  A    between atoms: C_10  and  C_11
REMARK    3  A    between atoms: C_18  and  C_20
REMARK    4  A    between atoms: C_24  and  C_25
REMARK                            x       y       z     vdW  Elec       q    Type
REMARK                         _______ _______ _______ _____ _____    ______ ____
ROOT
ATOM      1  C   UNL     1      -2.821  12.255  19.157  0.00  0.00    +0.000 C 
ATOM      2  C   UNL     1      -2.840  13.331  20.238  0.00  0.00    +0.000 C 
ATOM      3  C   UNL     1      -3.829  12.938  21.348  0.00  0.00    +0.000 C 
ATOM      4  C   UNL     1      -4.087  14.082  22.282  0.00  0.00    +0.000 A 
ATOM      5  C   UNL     1      -3.182  15.138  22.381  0.00  0.00    +0.000 A 
ATOM      6  N   UNL     1      -3.435  16.226  23.138  0.00  0.00    +0.000 NA
ATOM      7  C   UNL     1      -4.583  16.256  23.809  0.00  0.00    +0.000 A 
ATOM      8  N   UNL     1      -4.847  17.376  24.570  0.00  0.00    +0.000 N 
ATOM      9  N   UNL     1      -5.485  15.264  23.836  0.00  0.00    +0.000 NA
ATOM     10  C   UNL     1      -5.208  14.179  23.089  0.00  0.00    +0.000 A 
ATOM     11  C   UNL     1      -1.889  15.138  21.577  0.00  0.00    +0.000 C 
ATOM     12  N   UNL     1      -1.613  13.854  20.890  0.00  0.00    +0.000 N 
ATOM     13  C   UNL     1      -0.342  13.301  21.130  0.00  0.00    +0.000 C 
ATOM     14  O   UNL     1       0.482  13.854  21.859  0.00  0.00    +0.000 OA
ATOM     15  H   UNL     1      -3.981  17.852  24.787  0.00  0.00    +0.000 HD
ATOM     16  H   UNL     1      -5.450  17.137  25.344  0.00  0.00    +0.000 HD
ENDROOT
BRANCH  13  17
ATOM     17  C   UNL     1       0.088  12.023  20.516  0.00  0.00    +0.000 A 
ATOM     18  C   UNL     1       0.504  12.039  19.185  0.00  0.00    +0.000 A 
ATOM     19  C   UNL     1       1.127  10.927  18.629  0.00  0.00    +0.000 A 
ATOM     20  C   UNL     1       1.225   9.750  19.363  0.00  0.00    +0.000 A 
ATOM     21  C   UNL     1       0.638   9.647  20.638  0.00  0.00    +0.000 A 
ATOM     22  C   UNL     1       0.049  10.794  21.210  0.00  0.00    +0.000 A 
ATOM     23 CL   UNL     1      -0.731  10.654  22.753  0.00  0.00    +0.000 Cl
BRANCH  21  24
ATOM     24  C   UNL     1       0.663   8.315  21.347  0.00  0.00    +0.000 C 
ATOM     25  F   UNL     1       1.348   7.360  20.648  0.00  0.00    +0.000 F 
ATOM     26  F   UNL     1       1.269   8.361  22.564  0.00  0.00    +0.000 F 
ATOM     27  F   UNL     1      -0.577   7.792  21.544  0.00  0.00    +0.000 F 
ENDBRANCH  21  24
ENDBRANCH  13  17
BRANCH  10  28
ATOM     28  C   UNL     1      -6.214  13.128  23.211  0.00  0.00    +0.000 A 
ATOM     29  C   UNL     1      -7.366  12.824  22.509  0.00  0.00    +0.000 A 
ATOM     30  C   UNL     1      -7.915  11.701  23.149  0.00  0.00    +0.000 A 
ATOM     31  N   UNL     1      -7.167  11.290  24.172  0.00  0.00    +0.000 NA
ATOM     32  N   UNL     1      -6.123  12.142  24.162  0.00  0.00    +0.000 N 
ATOM     33  H   UNL     1      -5.382  12.020  24.843  0.00  0.00    +0.000 HD
ENDBRANCH  10  28
TORSDOF 3
ENDMDL
MODEL 4
REMARK VINA RESULT:      -7.1      4.709      6.951
REMARK  Name = 
REMARK  4 active torsions:
REMARK  status: ('A' for Active; 'I' for Inactive)
REMARK    1  A    between atoms: C_1  and  C_2
REMARK    2  A    between atoms: C_10  and  C_11
REMARK    3  A    between atoms: C_18  and  C_20
REMARK    4  A    between atoms: C_24  and  C_25
REMARK                            x       y       z     vdW  Elec       q    Type
REMARK                         _______ _______ _______ _____ _____    ______ ____
ROOT
ATOM      1  C   UNL     1      -2.364  11.398  19.304  0.00  0.00    +0.000 C 
ATOM      2  C   UNL     1      -2.440  12.676  20.134  0.00  0.00    +0.000 C 
ATOM      3  C   UNL     1      -3.574  12.561  21.165  0.00  0.00    +0.000 C 
ATOM      4  C   UNL     1      -3.867  13.883  21.809  0.00  0.00    +0.000 A 
ATOM      5  C   UNL     1      -2.915  14.902  21.806  0.00  0.00    +0.000 A 
ATOM      6  N   UNL     1      -3.185  16.132  22.288  0.00  0.00    +0.000 NA
ATOM      7  C   UNL     1      -4.398  16.345  22.788  0.00  0.00    +0.000 A 
ATOM      8  N   UNL     1      -4.678  17.608  23.267  0.00  0.00    +0.000 N 
ATOM      9  N   UNL     1      -5.358  15.416  22.901  0.00  0.00    +0.000 NA
ATOM     10  C   UNL     1      -5.065  14.189  22.430  0.00  0.00    +0.000 A 
ATOM     11  C   UNL     1      -1.539  14.685  21.189  0.00  0.00    +0.000 C 
ATOM     12  N   UNL     1      -1.267  13.276  20.816  0.00  0.00    +0.000 N 
ATOM     13  C   UNL     1      -0.070  12.737  21.322  0.00  0.00    +0.000 C 
ATOM     14  O   UNL     1       0.697  13.399  22.022  0.00  0.00    +0.000 OA
ATOM     15  H   UNL     1      -3.814  18.086  23.491  0.00  0.00    +0.000 HD
ATOM     16  H   UNL     1      -5.380  17.559  23.990  0.00  0.00    +0.000 HD
ENDROOT
BRANCH  13  17
ATOM     17  C   UNL     1       0.347  11.344  21.040  0.00  0.00    +0.000 A 
ATOM     18  C   UNL     1       0.254  10.407  22.068  0.00  0.00    +0.000 A 
ATOM     19  C   UNL     1       0.413   9.051  21.802  0.00  0.00    +0.000 A 
ATOM     20  C   UNL     1       0.790   8.637  20.530  0.00  0.00    +0.000 A 
ATOM     21  C   UNL     1       1.083   9.577  19.524  0.00  0.00    +0.000 A 
ATOM     22  C   UNL     1       0.874  10.945  19.792  0.00  0.00    +0.000 A 
ATOM     23 CL   UNL     1       1.294  12.111  18.576  0.00  0.00    +0.000 Cl
BRANCH  21  24
ATOM     24  C   UNL     1       1.605   9.086  18.196  0.00  0.00    +0.000 C 
ATOM     25  F   UNL     1       1.880   7.747  18.202  0.00  0.00    +0.000 F 
ATOM     26  F   UNL     1       0.728   9.259  17.171  0.00  0.00    +0.000 F 
ATOM     27  F   UNL     1       2.768   9.687  17.825  0.00  0.00    +0.000 F 
ENDBRANCH  21  24
ENDBRANCH  13  17
BRANCH  10  28
ATOM     28  C   UNL     1      -6.143  13.225  22.634  0.00  0.00    +0.000 A 
ATOM     29  C   UNL     1      -7.213  12.813  21.861  0.00  0.00    +0.000 A 
ATOM     30  C   UNL     1      -7.909  11.878  22.644  0.00  0.00    +0.000 A 
ATOM     31  N   UNL     1      -7.325  11.677  23.825  0.00  0.00    +0.000 NA
ATOM     32  N   UNL     1      -6.236  12.470  23.777  0.00  0.00    +0.000 N 
ATOM     33  H   UNL     1      -5.598  12.477  24.564  0.00  0.00    +0.000 HD
ENDBRANCH  10  28
TORSDOF 3
ENDMDL
MODEL 5
REMARK VINA RESULT:      -7.0      5.049      7.340
REMARK  Name = 
REMARK  4 active torsions:
REMARK  status: ('A' for Active; 'I' for Inactive)
REMARK    1  A    between atoms: C_1  and  C_2
REMARK    2  A    between atoms: C_10  and  C_11
REMARK    3  A    between atoms: C_18  and  C_20
REMARK    4  A    between atoms: C_24  and  C_25
REMARK                            x       y       z     vdW  Elec       q    Type
REMARK                         _______ _______ _______ _____ _____    ______ ____
ROOT
ATOM      1  C   UNL     1      -2.567  11.857  19.025  0.00  0.00    +0.000 C 
ATOM      2  C   UNL     1      -2.392  13.144  19.825  0.00  0.00    +0.000 C 
ATOM      3  C   UNL     1      -3.177  13.050  21.143  0.00  0.00    +0.000 C 
ATOM      4  C   UNL     1      -3.263  14.381  21.827  0.00  0.00    +0.000 A 
ATOM      5  C   UNL     1      -2.348  15.392  21.534  0.00  0.00    +0.000 A 
ATOM      6  N   UNL     1      -2.460  16.630  22.058  0.00  0.00    +0.000 NA
ATOM      7  C   UNL     1      -3.475  16.858  22.887  0.00  0.00    +0.000 A 
ATOM      8  N   UNL     1      -3.597  18.129  23.410  0.00  0.00    +0.000 N 
ATOM      9  N   UNL     1      -4.364  15.938  23.286  0.00  0.00    +0.000 NA
ATOM     10  C   UNL     1      -4.228  14.704  22.766  0.00  0.00    +0.000 A 
ATOM     11  C   UNL     1      -1.213  15.157  20.547  0.00  0.00    +0.000 C 
ATOM     12  N   UNL     1      -1.068  13.742  20.129  0.00  0.00    +0.000 N 
ATOM     13  C   UNL     1       0.222  13.199  20.272  0.00  0.00    +0.000 C 
ATOM     14  O   UNL     1       1.163  13.862  20.710  0.00  0.00    +0.000 OA
ATOM     15  H   UNL     1      -2.703  18.602  23.368  0.00  0.00    +0.000 HD
ATOM     16  H   UNL     1      -4.058  18.093  24.307  0.00  0.00    +0.000 HD
ENDROOT
BRANCH  13  17
ATOM     17  C   UNL     1       0.532  11.799  19.898  0.00  0.00    +0.000 A 
ATOM     18  C   UNL     1       0.965  11.546  18.597  0.00  0.00    +0.000 A 
ATOM     19  C   UNL     1       1.482  10.300  18.257  0.00  0.00    +0.000 A 
ATOM     20  C   UNL     1       1.454   9.264  19.183  0.00  0.00    +0.000 A 
ATOM     21  C   UNL     1       0.843   9.439  20.438  0.00  0.00    +0.000 A 
ATOM     22  C   UNL     1       0.362  10.717  20.789  0.00  0.00    +0.000 A 
ATOM     23 CL   UNL     1      -0.448  10.920  22.310  0.00  0.00    +0.000 Cl
BRANCH  21  24
ATOM     24  C   UNL     1       0.726   8.252  21.365  0.00  0.00    +0.000 C 
ATOM     25  F   UNL     1       1.309   7.127  20.853  0.00  0.00    +0.000 F 
ATOM     26  F   UNL     1       1.331   8.443  22.568  0.00  0.00    +0.000 F 
ATOM     27  F   UNL     1      -0.562   7.901  21.623  0.00  0.00    +0.000 F 
ENDBRANCH  21  24
ENDBRANCH  13  17
BRANCH  10  28
ATOM     28  C   UNL     1      -5.204  13.752  23.287  0.00  0.00    +0.000 A 
ATOM     29  C   UNL     1      -6.580  13.645  23.188  0.00  0.00    +0.000 A 
ATOM     30  C   UNL     1      -6.929  12.518  23.949  0.00  0.00    +0.000 A 
ATOM     31  N   UNL     1      -5.862  11.921  24.482  0.00  0.00    +0.000 NA
ATOM     32  N   UNL     1      -4.829  12.660  24.031  0.00  0.00    +0.000 N 
ATOM     33  H   UNL     1      -3.885  12.389  24.281  0.00  0.00    +0.000 HD
ENDBRANCH  10  28
TORSDOF 3
ENDMDL
MODEL 6
REMARK VINA RESULT:      -6.9      4.322      6.196
REMARK  Name = 
REMARK  4 active torsions:
REMARK  status: ('A' for Active; 'I' for Inactive)
REMARK    1  A    between atoms: C_1  and  C_2
REMARK    2  A    between atoms: C_10  and  C_11
REMARK    3  A    between atoms: C_18  and  C_20
REMARK    4  A    between atoms: C_24  and  C_25
REMARK                            x       y       z     vdW  Elec       q    Type
REMARK                         _______ _______ _______ _____ _____    ______ ____
ROOT
ATOM      1  C   UNL     1      -1.789  10.785  18.693  0.00  0.00    +0.000 C 
ATOM      2  C   UNL     1      -1.933  12.148  19.363  0.00  0.00    +0.000 C 
ATOM      3  C   UNL     1      -3.194  12.167  20.242  0.00  0.00    +0.000 C 
ATOM      4  C   UNL     1      -3.527  13.557  20.694  0.00  0.00    +0.000 A 
ATOM      5  C   UNL     1      -2.552  14.554  20.706  0.00  0.00    +0.000 A 
ATOM      6  N   UNL     1      -2.845  15.835  21.012  0.00  0.00    +0.000 NA
ATOM      7  C   UNL     1      -4.106  16.121  21.321  0.00  0.00    +0.000 A 
ATOM      8  N   UNL     1      -4.407  17.434  21.619  0.00  0.00    +0.000 N 
ATOM      9  N   UNL     1      -5.100  15.225  21.407  0.00  0.00    +0.000 NA
ATOM     10  C   UNL     1      -4.786  13.949  21.114  0.00  0.00    +0.000 A 
ATOM     11  C   UNL     1      -1.116  14.248  20.303  0.00  0.00    +0.000 C 
ATOM     12  N   UNL     1      -0.841  12.802  20.125  0.00  0.00    +0.000 N 
ATOM     13  C   UNL     1       0.264  12.305  20.840  0.00  0.00    +0.000 C 
ATOM     14  O   UNL     1       0.954  13.028  21.559  0.00  0.00    +0.000 OA
ATOM     15  H   UNL     1      -3.566  17.920  21.903  0.00  0.00    +0.000 HD
ATOM     16  H   UNL     1      -5.199  17.477  22.244  0.00  0.00    +0.000 HD
ENDROOT
BRANCH  13  17
ATOM     17  C   UNL     1       0.672  10.883  20.768  0.00  0.00    +0.000 A 
ATOM     18  C   UNL     1       0.497  10.089  21.900  0.00  0.00    +0.000 A 
ATOM     19  C   UNL     1       0.647   8.708  21.823  0.00  0.00    +0.000 A 
ATOM     20  C   UNL     1       1.096   8.127  20.642  0.00  0.00    +0.000 A 
ATOM     21  C   UNL     1       1.468   8.925  19.545  0.00  0.00    +0.000 A 
ATOM     22  C   UNL     1       1.269  10.319  19.619  0.00  0.00    +0.000 A 
ATOM     23 CL   UNL     1       1.786  11.311  18.292  0.00  0.00    +0.000 Cl
BRANCH  21  24
ATOM     24  C   UNL     1       2.065   8.260  18.328  0.00  0.00    +0.000 C 
ATOM     25  F   UNL     1       2.146   6.901  18.459  0.00  0.00    +0.000 F 
ATOM     26  F   UNL     1       1.343   8.460  17.193  0.00  0.00    +0.000 F 
ATOM     27  F   UNL     1       3.335   8.669  18.064  0.00  0.00    +0.000 F 
ENDBRANCH  21  24
ENDBRANCH  13  17
BRANCH  10  28
ATOM     28  C   UNL     1      -5.910  13.032  21.278  0.00  0.00    +0.000 A 
ATOM     29  C   UNL     1      -6.882  12.550  20.418  0.00  0.00    +0.000 A 
ATOM     30  C   UNL     1      -7.702  11.721  21.200  0.00  0.00    +0.000 A 
ATOM     31  N   UNL     1      -7.284  11.647  22.463  0.00  0.00    +0.000 NA
ATOM     32  N   UNL     1      -6.175  12.413  22.474  0.00  0.00    +0.000 N 
ATOM     33  H   UNL     1      -5.645  12.499  23.334  0.00  0.00    +0.000 HD
ENDBRANCH  10  28
TORSDOF 3
ENDMDL
MODEL 7
REMARK VINA RESULT:      -6.8      8.349     11.016
REMARK  Name = 
REMARK  4 active torsions:
REMARK  status: ('A' for Active; 'I' for Inactive)
REMARK    1  A    between atoms: C_1  and  C_2
REMARK    2  A    between atoms: C_10  and  C_11
REMARK    3  A    between atoms: C_18  and  C_20
REMARK    4  A    between atoms: C_24  and  C_25
REMARK                            x       y       z     vdW  Elec       q    Type
REMARK                         _______ _______ _______ _____ _____    ______ ____
ROOT
ATOM      1  C   UNL     1      -5.711  15.746  20.571  0.00  0.00    +0.000 C 
ATOM      2  C   UNL     1      -6.214  14.323  20.794  0.00  0.00    +0.000 C 
ATOM      3  C   UNL     1      -5.344  13.333  20.003  0.00  0.00    +0.000 C 
ATOM      4  C   UNL     1      -5.962  11.967  19.968  0.00  0.00    +0.000 A 
ATOM      5  C   UNL     1      -6.905  11.588  20.922  0.00  0.00    +0.000 A 
ATOM      6  N   UNL     1      -7.550  10.405  20.858  0.00  0.00    +0.000 NA
ATOM      7  C   UNL     1      -7.245   9.591  19.851  0.00  0.00    +0.000 A 
ATOM      8  N   UNL     1      -7.916   8.389  19.778  0.00  0.00    +0.000 N 
ATOM      9  N   UNL     1      -6.305   9.832  18.926  0.00  0.00    +0.000 NA
ATOM     10  C   UNL     1      -5.660  11.010  19.015  0.00  0.00    +0.000 A 
ATOM     11  C   UNL     1      -7.300  12.533  22.050  0.00  0.00    +0.000 C 
ATOM     12  N   UNL     1      -6.450  13.744  22.140  0.00  0.00    +0.000 N 
ATOM     13  C   UNL     1      -5.895  13.999  23.408  0.00  0.00    +0.000 C 
ATOM     14  O   UNL     1      -6.111  13.265  24.372  0.00  0.00    +0.000 OA
ATOM     15  H   UNL     1      -8.284   8.148  20.690  0.00  0.00    +0.000 HD
ATOM     16  H   UNL     1      -7.344   7.698  19.313  0.00  0.00    +0.000 HD
ENDROOT
BRANCH  13  17
ATOM     17  C   UNL     1      -5.024  15.170  23.663  0.00  0.00    +0.000 A 
ATOM     18  C   UNL     1      -5.619  16.346  24.118  0.00  0.00    +0.000 A 
ATOM     19  C   UNL     1      -4.836  17.396  24.587  0.00  0.00    +0.000 A 
ATOM     20  C   UNL     1      -3.451  17.323  24.487  0.00  0.00    +0.000 A 
ATOM     21  C   UNL     1      -2.833  16.230  23.852  0.00  0.00    +0.000 A 
ATOM     22  C   UNL     1      -3.633  15.152  23.421  0.00  0.00    +0.000 A 
ATOM     23 CL   UNL     1      -2.881  13.832  22.582  0.00  0.00    +0.000 Cl
BRANCH  21  24
ATOM     24  C   UNL     1      -1.336  16.250  23.658  0.00  0.00    +0.000 C 
ATOM     25  F   UNL     1      -0.716  15.179  24.239  0.00  0.00    +0.000 F 
ATOM     26  F   UNL     1      -0.959  16.207  22.352  0.00  0.00    +0.000 F 
ATOM     27  F   UNL     1      -0.742  17.345  24.204  0.00  0.00    +0.000 F 
ENDBRANCH  21  24
ENDBRANCH  13  17
BRANCH  10  28
ATOM     28  C   UNL     1      -4.622  11.172  18.001  0.00  0.00    +0.000 A 
ATOM     29  C   UNL     1      -4.648  11.354  16.630  0.00  0.00    +0.000 A 
ATOM     30  C   UNL     1      -3.304  11.407  16.229  0.00  0.00    +0.000 A 
ATOM     31  N   UNL     1      -2.467  11.294  17.260  0.00  0.00    +0.000 NA
ATOM     32  N   UNL     1      -3.288  11.198  18.324  0.00  0.00    +0.000 N 
ATOM     33  H   UNL     1      -2.885  11.128  19.252  0.00  0.00    +0.000 HD
ENDBRANCH  10  28
TORSDOF 3
ENDMDL
MODEL 8
REMARK VINA RESULT:      -6.8      4.521      6.421
REMARK  Name = 
REMARK  4 active torsions:
REMARK  status: ('A' for Active; 'I' for Inactive)
REMARK    1  A    between atoms: C_1  and  C_2
REMARK    2  A    between atoms: C_10  and  C_11
REMARK    3  A    between atoms: C_18  and  C_20
REMARK    4  A    between atoms: C_24  and  C_25
REMARK                            x       y       z     vdW  Elec       q    Type
REMARK                         _______ _______ _______ _____ _____    ______ ____
ROOT
ATOM      1  C   UNL     1      -1.809  10.998  18.245  0.00  0.00    +0.000 C 
ATOM      2  C   UNL     1      -1.510  12.408  18.746  0.00  0.00    +0.000 C 
ATOM      3  C   UNL     1      -2.244  12.655  20.074  0.00  0.00    +0.000 C 
ATOM      4  C   UNL     1      -2.207  14.103  20.459  0.00  0.00    +0.000 A 
ATOM      5  C   UNL     1      -1.236  14.955  19.933  0.00  0.00    +0.000 A 
ATOM      6  N   UNL     1      -1.238  16.281  20.184  0.00  0.00    +0.000 NA
ATOM      7  C   UNL     1      -2.199  16.758  20.970  0.00  0.00    +0.000 A 
ATOM      8  N   UNL     1      -2.208  18.115  21.212  0.00  0.00    +0.000 N 
ATOM      9  N   UNL     1      -3.133  16.015  21.580  0.00  0.00    +0.000 NA
ATOM     10  C   UNL     1      -3.106  14.692  21.332  0.00  0.00    +0.000 A 
ATOM     11  C   UNL     1      -0.163  14.429  18.990  0.00  0.00    +0.000 C 
ATOM     12  N   UNL     1      -0.136  12.951  18.881  0.00  0.00    +0.000 N 
ATOM     13  C   UNL     1       1.118  12.351  19.103  0.00  0.00    +0.000 C 
ATOM     14  O   UNL     1       2.120  13.017  19.365  0.00  0.00    +0.000 OA
ATOM     15  H   UNL     1      -1.286  18.498  21.047  0.00  0.00    +0.000 HD
ATOM     16  H   UNL     1      -2.633  18.306  22.108  0.00  0.00    +0.000 HD
ENDROOT
BRANCH  13  17
ATOM     17  C   UNL     1       1.312  10.885  19.029  0.00  0.00    +0.000 A 
ATOM     18  C   UNL     1       1.786  10.343  17.835  0.00  0.00    +0.000 A 
ATOM     19  C   UNL     1       2.200   9.016  17.779  0.00  0.00    +0.000 A 
ATOM     20  C   UNL     1       2.024   8.190  18.884  0.00  0.00    +0.000 A 
ATOM     21  C   UNL     1       1.368   8.661  20.036  0.00  0.00    +0.000 A 
ATOM     22  C   UNL     1       0.994  10.019  20.098  0.00  0.00    +0.000 A 
ATOM     23 CL   UNL     1       0.128  10.587  21.491  0.00  0.00    +0.000 Cl
BRANCH  21  24
ATOM     24  C   UNL     1       1.091   7.696  21.164  0.00  0.00    +0.000 C 
ATOM     25  F   UNL     1       1.618   8.113  22.354  0.00  0.00    +0.000 F 
ATOM     26  F   UNL     1      -0.235   7.519  21.411  0.00  0.00    +0.000 F 
ATOM     27  F   UNL     1       1.620   6.461  20.952  0.00  0.00    +0.000 F 
ENDBRANCH  21  24
ENDBRANCH  13  17
BRANCH  10  28
ATOM     28  C   UNL     1      -4.124  13.950  22.070  0.00  0.00    +0.000 A 
ATOM     29  C   UNL     1      -5.491  13.798  21.919  0.00  0.00    +0.000 A 
ATOM     30  C   UNL     1      -5.902  12.979  22.983  0.00  0.00    +0.000 A 
ATOM     31  N   UNL     1      -4.880  12.606  23.753  0.00  0.00    +0.000 NA
ATOM     32  N   UNL     1      -3.812  13.170  23.156  0.00  0.00    +0.000 N 
ATOM     33  H   UNL     1      -2.889  13.010  23.544  0.00  0.00    +0.000 HD
ENDBRANCH  10  28
TORSDOF 3
ENDMDL
MODEL 9
REMARK VINA RESULT:      -6.8      5.388      7.843
REMARK  Name = 
REMARK  4 active torsions:
REMARK  status: ('A' for Active; 'I' for Inactive)
REMARK    1  A    between atoms: C_1  and  C_2
REMARK    2  A    between atoms: C_10  and  C_11
REMARK    3  A    between atoms: C_18  and  C_20
REMARK    4  A    between atoms: C_24  and  C_25
REMARK                            x       y       z     vdW  Elec       q    Type
REMARK                         _______ _______ _______ _____ _____    ______ ____
ROOT
ATOM      1  C   UNL     1      -0.961  14.793  19.657  0.00  0.00    +0.000 C 
ATOM      2  C   UNL     1      -0.606  15.148  21.098  0.00  0.00    +0.000 C 
ATOM      3  C   UNL     1      -1.563  14.428  22.062  0.00  0.00    +0.000 C 
ATOM      4  C   UNL     1      -1.434  14.957  23.459  0.00  0.00    +0.000 A 
ATOM      5  C   UNL     1      -0.281  15.632  23.861  0.00  0.00    +0.000 A 
ATOM      6  N   UNL     1      -0.177  16.204  25.078  0.00  0.00    +0.000 NA
ATOM      7  C   UNL     1      -1.215  16.094  25.901  0.00  0.00    +0.000 A 
ATOM      8  N   UNL     1      -1.113  16.693  27.139  0.00  0.00    +0.000 N 
ATOM      9  N   UNL     1      -2.337  15.409  25.638  0.00  0.00    +0.000 NA
ATOM     10  C   UNL     1      -2.417  14.829  24.425  0.00  0.00    +0.000 A 
ATOM     11  C   UNL     1       0.893  15.810  22.907  0.00  0.00    +0.000 C 
ATOM     12  N   UNL     1       0.766  15.033  21.652  0.00  0.00    +0.000 N 
ATOM     13  C   UNL     1       1.867  14.216  21.332  0.00  0.00    +0.000 C 
ATOM     14  O   UNL     1       2.866  14.160  22.049  0.00  0.00    +0.000 OA
ATOM     15  H   UNL     1      -0.137  16.826  27.374  0.00  0.00    +0.000 HD
ATOM     16  H   UNL     1      -1.687  16.205  27.811  0.00  0.00    +0.000 HD
ENDROOT
BRANCH  13  17
ATOM     17  C   UNL     1       1.896  13.379  20.110  0.00  0.00    +0.000 A 
ATOM     18  C   UNL     1       2.509  13.898  18.971  0.00  0.00    +0.000 A 
ATOM     19  C   UNL     1       2.766  13.081  17.875  0.00  0.00    +0.000 A 
ATOM     20  C   UNL     1       2.299  11.772  17.865  0.00  0.00    +0.000 A 
ATOM     21  C   UNL     1       1.507  11.283  18.920  0.00  0.00    +0.000 A 
ATOM     22  C   UNL     1       1.291  12.105  20.045  0.00  0.00    +0.000 A 
ATOM     23 CL   UNL     1       0.262  11.529  21.319  0.00  0.00    +0.000 Cl
BRANCH  21  24
ATOM     24  C   UNL     1       0.919   9.896  18.810  0.00  0.00    +0.000 C 
ATOM     25  F   UNL     1       1.343   9.065  19.809  0.00  0.00    +0.000 F 
ATOM     26  F   UNL     1      -0.439   9.875  18.889  0.00  0.00    +0.000 F 
ATOM     27  F   UNL     1       1.256   9.264  17.654  0.00  0.00    +0.000 F 
ENDBRANCH  21  24
ENDBRANCH  13  17
BRANCH  10  28
ATOM     28  C   UNL     1      -3.646  14.065  24.236  0.00  0.00    +0.000 A 
ATOM     29  C   UNL     1      -4.891  14.373  23.718  0.00  0.00    +0.000 A 
ATOM     30  C   UNL     1      -5.657  13.203  23.849  0.00  0.00    +0.000 A 
ATOM     31  N   UNL     1      -4.958  12.203  24.386  0.00  0.00    +0.000 NA
ATOM     32  N   UNL     1      -3.734  12.736  24.570  0.00  0.00    +0.000 N 
ATOM     33  H   UNL     1      -2.996  12.154  24.951  0.00  0.00    +0.000 HD
ENDBRANCH  10  28
TORSDOF 3
ENDMDL
