MODEL 1
REMARK VINA RESULT:      -7.3      0.000      0.000
REMARK  Name = 
REMARK  6 active torsions:
REMARK  status: ('A' for Active; 'I' for Inactive)
REMARK    1  A    between atoms: C_2  and  O_3
REMARK    2  A    between atoms: C_2  and  C_4
REMARK    3  A    between atoms: C_4  and  S_5
REMARK    4  A    between atoms: S_5  and  C_6
REMARK    5  A    between atoms: C_8  and  C_9
REMARK    6  A    between atoms: N_16  and  C_17
REMARK                            x       y       z     vdW  Elec       q    Type
REMARK                         _______ _______ _______ _____ _____    ______ ____
ROOT
ATOM      1  C   UNL     1       3.909   6.312  17.935  0.00  0.00    +0.000 A 
ATOM      2  N   UNL     1       4.967   6.972  17.571  0.00  0.00    +0.000 NA
ATOM      3  C   UNL     1       6.202   6.477  17.954  0.00  0.00    +0.000 A 
ATOM      4  C   UNL     1       6.340   5.354  18.665  0.00  0.00    +0.000 A 
ATOM      5  C   UNL     1       5.152   4.592  19.056  0.00  0.00    +0.000 A 
ATOM      6  O   UNL     1       5.340   3.550  19.682  0.00  0.00    +0.000 OA
ATOM      7  N   UNL     1       3.934   5.118  18.651  0.00  0.00    +0.000 N 
ENDROOT
BRANCH   7   8
ATOM      8  C   UNL     1       2.773   4.342  18.961  0.00  0.00    +0.000 A 
ATOM      9  C   UNL     1       2.144   4.496  20.205  0.00  0.00    +0.000 A 
ATOM     10  C   UNL     1       1.088   3.663  20.578  0.00  0.00    +0.000 A 
ATOM     11  C   UNL     1       0.657   2.660  19.713  0.00  0.00    +0.000 A 
ATOM     12  C   UNL     1       1.266   2.504  18.468  0.00  0.00    +0.000 A 
ATOM     13  C   UNL     1       2.318   3.342  18.088  0.00  0.00    +0.000 A 
ENDBRANCH   7   8
BRANCH   3  14
ATOM     14  C   UNL     1       7.453   7.264  17.606  0.00  0.00    +0.000 C 
ATOM     15  F   UNL     1       7.986   6.881  16.417  0.00  0.00    +0.000 F 
ATOM     16  F   UNL     1       7.200   8.596  17.520  0.00  0.00    +0.000 F 
ATOM     17  F   UNL     1       8.422   7.104  18.543  0.00  0.00    +0.000 F 
ENDBRANCH   3  14
BRANCH   1  18
ATOM     18  S   UNL     1       2.350   7.071  17.617  0.00  0.00    +0.000 S 
BRANCH  18  19
ATOM     19  C   UNL     1       2.167   8.195  19.019  0.00  0.00    +0.000 C 
BRANCH  19  21
ATOM     20  O   UNL     1       0.534   9.967  19.241  0.00  0.00    +0.000 OA
ATOM     21  C   UNL     1       1.449   9.461  18.607  0.00  0.00    +0.000 C 
BRANCH  21  22
ATOM     22  O   UNL     1       1.885   9.982  17.438  0.00  0.00    +0.000 OA
ATOM     23  H   UNL     1       1.245   9.857  16.705  0.00  0.00    +0.000 HD
ENDBRANCH  21  22
ENDBRANCH  19  21
ENDBRANCH  18  19
ENDBRANCH   1  18
TORSDOF 6
ENDMDL
MODEL 2
REMARK VINA RESULT:      -7.2      0.126      1.038
REMARK  Name = 
REMARK  6 active torsions:
REMARK  status: ('A' for Active; 'I' for Inactive)
REMARK    1  A    between atoms: C_2  and  O_3
REMARK    2  A    between atoms: C_2  and  C_4
REMARK    3  A    between atoms: C_4  and  S_5
REMARK    4  A    between atoms: S_5  and  C_6
REMARK    5  A    between atoms: C_8  and  C_9
REMARK    6  A    between atoms: N_16  and  C_17
REMARK                            x       y       z     vdW  Elec       q    Type
REMARK                         _______ _______ _______ _____ _____    ______ ____
ROOT
ATOM      1  C   UNL     1       3.921   6.194  17.999  0.00  0.00    +0.000 A 
ATOM      2  N   UNL     1       4.949   6.883  17.606  0.00  0.00    +0.000 NA
ATOM      3  C   UNL     1       6.208   6.426  17.962  0.00  0.00    +0.000 A 
ATOM      4  C   UNL     1       6.397   5.313  18.676  0.00  0.00    +0.000 A 
ATOM      5  C   UNL     1       5.241   4.518  19.100  0.00  0.00    +0.000 A 
ATOM      6  O   UNL     1       5.476   3.486  19.727  0.00  0.00    +0.000 OA
ATOM      7  N   UNL     1       3.998   5.005  18.721  0.00  0.00    +0.000 N 
ENDROOT
BRANCH   7   8
ATOM      8  C   UNL     1       2.869   4.197  19.063  0.00  0.00    +0.000 A 
ATOM      9  C   UNL     1       2.374   3.265  18.140  0.00  0.00    +0.000 A 
ATOM     10  C   UNL     1       1.202   2.556  18.402  0.00  0.00    +0.000 A 
ATOM     11  C   UNL     1       0.506   2.780  19.588  0.00  0.00    +0.000 A 
ATOM     12  C   UNL     1       0.993   3.696  20.520  0.00  0.00    +0.000 A 
ATOM     13  C   UNL     1       2.172   4.401  20.265  0.00  0.00    +0.000 A 
ENDBRANCH   7   8
BRANCH   3  14
ATOM     14  C   UNL     1       7.426   7.249  17.580  0.00  0.00    +0.000 C 
ATOM     15  F   UNL     1       7.960   6.853  16.396  0.00  0.00    +0.000 F 
ATOM     16  F   UNL     1       7.124   8.567  17.462  0.00  0.00    +0.000 F 
ATOM     17  F   UNL     1       8.409   7.148  18.510  0.00  0.00    +0.000 F 
ENDBRANCH   3  14
BRANCH   1  18
ATOM     18  S   UNL     1       2.333   6.903  17.715  0.00  0.00    +0.000 S 
BRANCH  18  19
ATOM     19  C   UNL     1       2.199   8.115  19.048  0.00  0.00    +0.000 C 
BRANCH  19  21
ATOM     20  O   UNL     1       0.536   9.867  19.187  0.00  0.00    +0.000 OA
ATOM     21  C   UNL     1       1.467   9.353  18.583  0.00  0.00    +0.000 C 
BRANCH  21  22
ATOM     22  O   UNL     1       1.909   9.839  17.402  0.00  0.00    +0.000 OA
ATOM     23  H   UNL     1       1.193  10.245  16.866  0.00  0.00    +0.000 HD
ENDBRANCH  21  22
ENDBRANCH  19  21
ENDBRANCH  18  19
ENDBRANCH   1  18
TORSDOF 6
ENDMDL
MODEL 3
REMARK VINA RESULT:      -7.0      0.746      1.243
REMARK  Name = 
REMARK  6 active torsions:
REMARK  status: ('A' for Active; 'I' for Inactive)
REMARK    1  A    between atoms: C_2  and  O_3
REMARK    2  A    between atoms: C_2  and  C_4
REMARK    3  A    between atoms: C_4  and  S_5
REMARK    4  A    between atoms: S_5  and  C_6
REMARK    5  A    between atoms: C_8  and  C_9
REMARK    6  A    between atoms: N_16  and  C_17
REMARK                            x       y       z     vdW  Elec       q    Type
REMARK                         _______ _______ _______ _____ _____    ______ ____
ROOT
ATOM      1  C   UNL     1       3.845   6.139  17.979  0.00  0.00    +0.000 A 
ATOM      2  N   UNL     1       4.891   6.809  17.600  0.00  0.00    +0.000 NA
ATOM      3  C   UNL     1       6.136   6.326  17.970  0.00  0.00    +0.000 A 
ATOM      4  C   UNL     1       6.294   5.207  18.683  0.00  0.00    +0.000 A 
ATOM      5  C   UNL     1       5.118   4.435  19.091  0.00  0.00    +0.000 A 
ATOM      6  O   UNL     1       5.324   3.397  19.718  0.00  0.00    +0.000 OA
ATOM      7  N   UNL     1       3.890   4.948  18.698  0.00  0.00    +0.000 N 
ENDROOT
BRANCH   7   8
ATOM      8  C   UNL     1       2.740   4.162  19.025  0.00  0.00    +0.000 A 
ATOM      9  C   UNL     1       2.155   4.276  20.294  0.00  0.00    +0.000 A 
ATOM     10  C   UNL     1       1.113   3.431  20.678  0.00  0.00    +0.000 A 
ATOM     11  C   UNL     1       0.652   2.455  19.798  0.00  0.00    +0.000 A 
ATOM     12  C   UNL     1       1.217   2.338  18.528  0.00  0.00    +0.000 A 
ATOM     13  C   UNL     1       2.254   3.189  18.137  0.00  0.00    +0.000 A 
ENDBRANCH   7   8
BRANCH   3  14
ATOM     14  C   UNL     1       7.375   7.125  17.604  0.00  0.00    +0.000 C 
ATOM     15  F   UNL     1       8.357   7.002  18.535  0.00  0.00    +0.000 F 
ATOM     16  F   UNL     1       7.898   6.724  16.417  0.00  0.00    +0.000 F 
ATOM     17  F   UNL     1       7.102   8.449  17.492  0.00  0.00    +0.000 F 
ENDBRANCH   3  14
BRANCH   1  18
ATOM     18  S   UNL     1       2.275   6.881  17.677  0.00  0.00    +0.000 S 
BRANCH  18  19
ATOM     19  C   UNL     1       2.457   8.509  18.437  0.00  0.00    +0.000 C 
BRANCH  19  21
ATOM     20  O   UNL     1       0.781   9.427  19.923  0.00  0.00    +0.000 OA
ATOM     21  C   UNL     1       1.660   8.600  19.719  0.00  0.00    +0.000 C 
BRANCH  21  22
ATOM     22  O   UNL     1       2.026   7.698  20.657  0.00  0.00    +0.000 OA
ATOM     23  H   UNL     1       1.949   8.048  21.571  0.00  0.00    +0.000 HD
ENDBRANCH  21  22
ENDBRANCH  19  21
ENDBRANCH  18  19
ENDBRANCH   1  18
TORSDOF 6
ENDMDL
MODEL 4
REMARK VINA RESULT:      -6.9      0.764      1.630
REMARK  Name = 
REMARK  6 active torsions:
REMARK  status: ('A' for Active; 'I' for Inactive)
REMARK    1  A    between atoms: C_2  and  O_3
REMARK    2  A    between atoms: C_2  and  C_4
REMARK    3  A    between atoms: C_4  and  S_5
REMARK    4  A    between atoms: S_5  and  C_6
REMARK    5  A    between atoms: C_8  and  C_9
REMARK    6  A    between atoms: N_16  and  C_17
REMARK                            x       y       z     vdW  Elec       q    Type
REMARK                         _______ _______ _______ _____ _____    ______ ____
ROOT
ATOM      1  C   UNL     1       3.856   6.090  18.026  0.00  0.00    +0.000 A 
ATOM      2  N   UNL     1       4.877   6.786  17.624  0.00  0.00    +0.000 NA
ATOM      3  C   UNL     1       6.142   6.337  17.967  0.00  0.00    +0.000 A 
ATOM      4  C   UNL     1       6.344   5.223  18.677  0.00  0.00    +0.000 A 
ATOM      5  C   UNL     1       5.198   4.420  19.110  0.00  0.00    +0.000 A 
ATOM      6  O   UNL     1       5.444   3.388  19.732  0.00  0.00    +0.000 OA
ATOM      7  N   UNL     1       3.948   4.900  18.744  0.00  0.00    +0.000 N 
ENDROOT
BRANCH   7   8
ATOM      8  C   UNL     1       2.827   4.084  19.095  0.00  0.00    +0.000 A 
ATOM      9  C   UNL     1       2.310   3.173  18.163  0.00  0.00    +0.000 A 
ATOM     10  C   UNL     1       1.144   2.458  18.437  0.00  0.00    +0.000 A 
ATOM     11  C   UNL     1       0.476   2.655  19.644  0.00  0.00    +0.000 A 
ATOM     12  C   UNL     1       0.986   3.550  20.584  0.00  0.00    +0.000 A 
ATOM     13  C   UNL     1       2.160   4.260  20.317  0.00  0.00    +0.000 A 
ENDBRANCH   7   8
BRANCH   3  14
ATOM     14  C   UNL     1       7.351   7.168  17.576  0.00  0.00    +0.000 C 
ATOM     15  F   UNL     1       8.346   7.091  18.497  0.00  0.00    +0.000 F 
ATOM     16  F   UNL     1       7.873   6.764  16.389  0.00  0.00    +0.000 F 
ATOM     17  F   UNL     1       7.035   8.481  17.445  0.00  0.00    +0.000 F 
ENDBRANCH   3  14
BRANCH   1  18
ATOM     18  S   UNL     1       2.262   6.790  17.758  0.00  0.00    +0.000 S 
BRANCH  18  19
ATOM     19  C   UNL     1       2.426   8.434  18.488  0.00  0.00    +0.000 C 
BRANCH  19  21
ATOM     20  O   UNL     1       0.730   9.334  19.960  0.00  0.00    +0.000 OA
ATOM     21  C   UNL     1       1.638   8.537  19.775  0.00  0.00    +0.000 C 
BRANCH  21  22
ATOM     22  O   UNL     1       2.049   7.682  20.738  0.00  0.00    +0.000 OA
ATOM     23  H   UNL     1       1.359   7.028  20.985  0.00  0.00    +0.000 HD
ENDBRANCH  21  22
ENDBRANCH  19  21
ENDBRANCH  18  19
ENDBRANCH   1  18
TORSDOF 6
ENDMDL
MODEL 5
REMARK VINA RESULT:      -6.9      0.488      1.478
REMARK  Name = 
REMARK  6 active torsions:
REMARK  status: ('A' for Active; 'I' for Inactive)
REMARK    1  A    between atoms: C_2  and  O_3
REMARK    2  A    between atoms: C_2  and  C_4
REMARK    3  A    between atoms: C_4  and  S_5
REMARK    4  A    between atoms: S_5  and  C_6
REMARK    5  A    between atoms: C_8  and  C_9
REMARK    6  A    between atoms: N_16  and  C_17
REMARK                            x       y       z     vdW  Elec       q    Type
REMARK                         _______ _______ _______ _____ _____    ______ ____
ROOT
ATOM      1  C   UNL     1       3.887   6.157  18.035  0.00  0.00    +0.000 A 
ATOM      2  N   UNL     1       4.907   6.853  17.631  0.00  0.00    +0.000 NA
ATOM      3  C   UNL     1       6.172   6.397  17.960  0.00  0.00    +0.000 A 
ATOM      4  C   UNL     1       6.377   5.276  18.659  0.00  0.00    +0.000 A 
ATOM      5  C   UNL     1       5.231   4.474  19.095  0.00  0.00    +0.000 A 
ATOM      6  O   UNL     1       5.479   3.436  19.706  0.00  0.00    +0.000 OA
ATOM      7  N   UNL     1       3.980   4.962  18.743  0.00  0.00    +0.000 N 
ENDROOT
BRANCH   7   8
ATOM      8  C   UNL     1       2.860   4.147  19.097  0.00  0.00    +0.000 A 
ATOM      9  C   UNL     1       2.338   3.237  18.166  0.00  0.00    +0.000 A 
ATOM     10  C   UNL     1       1.172   2.523  18.443  0.00  0.00    +0.000 A 
ATOM     11  C   UNL     1       0.508   2.720  19.652  0.00  0.00    +0.000 A 
ATOM     12  C   UNL     1       1.022   3.614  20.591  0.00  0.00    +0.000 A 
ATOM     13  C   UNL     1       2.196   4.323  20.321  0.00  0.00    +0.000 A 
ENDBRANCH   7   8
BRANCH   3  14
ATOM     14  C   UNL     1       7.382   7.227  17.565  0.00  0.00    +0.000 C 
ATOM     15  F   UNL     1       7.078   8.543  17.432  0.00  0.00    +0.000 F 
ATOM     16  F   UNL     1       8.374   7.136  18.487  0.00  0.00    +0.000 F 
ATOM     17  F   UNL     1       7.902   6.820  16.380  0.00  0.00    +0.000 F 
ENDBRANCH   3  14
BRANCH   1  18
ATOM     18  S   UNL     1       2.293   6.865  17.786  0.00  0.00    +0.000 S 
BRANCH  18  19
ATOM     19  C   UNL     1       2.590   8.620  18.092  0.00  0.00    +0.000 C 
BRANCH  19  21
ATOM     20  O   UNL     1       0.480   9.780  17.850  0.00  0.00    +0.000 OA
ATOM     21  C   UNL     1       1.334   9.304  18.585  0.00  0.00    +0.000 C 
BRANCH  21  22
ATOM     22  O   UNL     1       1.245   9.380  19.931  0.00  0.00    +0.000 OA
ATOM     23  H   UNL     1       2.086   9.664  20.352  0.00  0.00    +0.000 HD
ENDBRANCH  21  22
ENDBRANCH  19  21
ENDBRANCH  18  19
ENDBRANCH   1  18
TORSDOF 6
ENDMDL
MODEL 6
REMARK VINA RESULT:      -6.7      3.451      4.346
REMARK  Name = 
REMARK  6 active torsions:
REMARK  status: ('A' for Active; 'I' for Inactive)
REMARK    1  A    between atoms: C_2  and  O_3
REMARK    2  A    between atoms: C_2  and  C_4
REMARK    3  A    between atoms: C_4  and  S_5
REMARK    4  A    between atoms: S_5  and  C_6
REMARK    5  A    between atoms: C_8  and  C_9
REMARK    6  A    between atoms: N_16  and  C_17
REMARK                            x       y       z     vdW  Elec       q    Type
REMARK                         _______ _______ _______ _____ _____    ______ ____
ROOT
ATOM      1  C   UNL     1       5.228   4.703  17.898  0.00  0.00    +0.000 A 
ATOM      2  N   UNL     1       5.769   4.859  16.727  0.00  0.00    +0.000 NA
ATOM      3  C   UNL     1       5.167   4.231  15.649  0.00  0.00    +0.000 A 
ATOM      4  C   UNL     1       4.061   3.492  15.769  0.00  0.00    +0.000 A 
ATOM      5  C   UNL     1       3.432   3.334  17.083  0.00  0.00    +0.000 A 
ATOM      6  O   UNL     1       2.398   2.669  17.129  0.00  0.00    +0.000 OA
ATOM      7  N   UNL     1       4.062   3.980  18.137  0.00  0.00    +0.000 N 
ENDROOT
BRANCH   7   8
ATOM      8  C   UNL     1       3.414   3.896  19.410  0.00  0.00    +0.000 A 
ATOM      9  C   UNL     1       3.568   2.744  20.196  0.00  0.00    +0.000 A 
ATOM     10  C   UNL     1       2.849   2.589  21.380  0.00  0.00    +0.000 A 
ATOM     11  C   UNL     1       1.958   3.580  21.787  0.00  0.00    +0.000 A 
ATOM     12  C   UNL     1       1.803   4.735  21.021  0.00  0.00    +0.000 A 
ATOM     13  C   UNL     1       2.531   4.899  19.838  0.00  0.00    +0.000 A 
ENDBRANCH   7   8
BRANCH   3  14
ATOM     14  C   UNL     1       5.816   4.334  14.279  0.00  0.00    +0.000 C 
ATOM     15  F   UNL     1       4.931   4.109  13.275  0.00  0.00    +0.000 F 
ATOM     16  F   UNL     1       6.354   5.564  14.071  0.00  0.00    +0.000 F 
ATOM     17  F   UNL     1       6.819   3.432  14.132  0.00  0.00    +0.000 F 
ENDBRANCH   3  14
BRANCH   1  18
ATOM     18  S   UNL     1       6.125   5.334  19.278  0.00  0.00    +0.000 S 
BRANCH  18  19
ATOM     19  C   UNL     1       7.762   5.636  18.578  0.00  0.00    +0.000 C 
BRANCH  19  21
ATOM     20  O   UNL     1       8.477   7.943  18.728  0.00  0.00    +0.000 OA
ATOM     21  C   UNL     1       7.893   7.067  18.106  0.00  0.00    +0.000 C 
BRANCH  21  22
ATOM     22  O   UNL     1       7.270   7.315  16.932  0.00  0.00    +0.000 OA
ATOM     23  H   UNL     1       6.343   7.617  17.051  0.00  0.00    +0.000 HD
ENDBRANCH  21  22
ENDBRANCH  19  21
ENDBRANCH  18  19
ENDBRANCH   1  18
TORSDOF 6
ENDMDL
MODEL 7
REMARK VINA RESULT:      -6.7      3.440      4.458
REMARK  Name = 
REMARK  6 active torsions:
REMARK  status: ('A' for Active; 'I' for Inactive)
REMARK    1  A    between atoms: C_2  and  O_3
REMARK    2  A    between atoms: C_2  and  C_4
REMARK    3  A    between atoms: C_4  and  S_5
REMARK    4  A    between atoms: S_5  and  C_6
REMARK    5  A    between atoms: C_8  and  C_9
REMARK    6  A    between atoms: N_16  and  C_17
REMARK                            x       y       z     vdW  Elec       q    Type
REMARK                         _______ _______ _______ _____ _____    ______ ____
ROOT
ATOM      1  C   UNL     1       5.259   4.676  17.863  0.00  0.00    +0.000 A 
ATOM      2  N   UNL     1       5.802   4.816  16.691  0.00  0.00    +0.000 NA
ATOM      3  C   UNL     1       5.183   4.202  15.614  0.00  0.00    +0.000 A 
ATOM      4  C   UNL     1       4.059   3.491  15.737  0.00  0.00    +0.000 A 
ATOM      5  C   UNL     1       3.428   3.352  17.052  0.00  0.00    +0.000 A 
ATOM      6  O   UNL     1       2.378   2.714  17.101  0.00  0.00    +0.000 OA
ATOM      7  N   UNL     1       4.076   3.983  18.105  0.00  0.00    +0.000 N 
ENDROOT
BRANCH   7   8
ATOM      8  C   UNL     1       3.428   3.918  19.378  0.00  0.00    +0.000 A 
ATOM      9  C   UNL     1       3.571   2.773  20.175  0.00  0.00    +0.000 A 
ATOM     10  C   UNL     1       2.850   2.636  21.362  0.00  0.00    +0.000 A 
ATOM     11  C   UNL     1       1.969   3.639  21.759  0.00  0.00    +0.000 A 
ATOM     12  C   UNL     1       1.825   4.788  20.982  0.00  0.00    +0.000 A 
ATOM     13  C   UNL     1       2.554   4.933  19.797  0.00  0.00    +0.000 A 
ENDBRANCH   7   8
BRANCH   3  14
ATOM     14  C   UNL     1       5.833   4.286  14.244  0.00  0.00    +0.000 C 
ATOM     15  F   UNL     1       6.504   5.454  14.066  0.00  0.00    +0.000 F 
ATOM     16  F   UNL     1       6.723   3.280  14.049  0.00  0.00    +0.000 F 
ATOM     17  F   UNL     1       4.914   4.203  13.249  0.00  0.00    +0.000 F 
ENDBRANCH   3  14
BRANCH   1  18
ATOM     18  S   UNL     1       6.174   5.286  19.241  0.00  0.00    +0.000 S 
BRANCH  18  19
ATOM     19  C   UNL     1       7.781   5.663  18.510  0.00  0.00    +0.000 C 
BRANCH  19  21
ATOM     20  O   UNL     1       7.348   7.653  17.203  0.00  0.00    +0.000 OA
ATOM     21  C   UNL     1       7.889   7.133  18.168  0.00  0.00    +0.000 C 
BRANCH  21  22
ATOM     22  O   UNL     1       8.677   7.834  19.013  0.00  0.00    +0.000 OA
ATOM     23  H   UNL     1       9.565   8.022  18.637  0.00  0.00    +0.000 HD
ENDBRANCH  21  22
ENDBRANCH  19  21
ENDBRANCH  18  19
ENDBRANCH   1  18
TORSDOF 6
ENDMDL
MODEL 8
REMARK VINA RESULT:      -6.7      2.257      2.665
REMARK  Name = 
REMARK  6 active torsions:
REMARK  status: ('A' for Active; 'I' for Inactive)
REMARK    1  A    between atoms: C_2  and  O_3
REMARK    2  A    between atoms: C_2  and  C_4
REMARK    3  A    between atoms: C_4  and  S_5
REMARK    4  A    between atoms: S_5  and  C_6
REMARK    5  A    between atoms: C_8  and  C_9
REMARK    6  A    between atoms: N_16  and  C_17
REMARK                            x       y       z     vdW  Elec       q    Type
REMARK                         _______ _______ _______ _____ _____    ______ ____
ROOT
ATOM      1  C   UNL     1       3.752   5.230  17.826  0.00  0.00    +0.000 A 
ATOM      2  N   UNL     1       4.424   5.515  16.751  0.00  0.00    +0.000 NA
ATOM      3  C   UNL     1       4.960   4.463  16.026  0.00  0.00    +0.000 A 
ATOM      4  C   UNL     1       4.804   3.186  16.385  0.00  0.00    +0.000 A 
ATOM      5  C   UNL     1       4.025   2.858  17.582  0.00  0.00    +0.000 A 
ATOM      6  O   UNL     1       3.886   1.664  17.846  0.00  0.00    +0.000 OA
ATOM      7  N   UNL     1       3.501   3.937  18.278  0.00  0.00    +0.000 N 
ENDROOT
BRANCH   7   8
ATOM      8  C   UNL     1       2.676   3.625  19.404  0.00  0.00    +0.000 A 
ATOM      9  C   UNL     1       3.268   3.288  20.630  0.00  0.00    +0.000 A 
ATOM     10  C   UNL     1       2.488   2.861  21.705  0.00  0.00    +0.000 A 
ATOM     11  C   UNL     1       1.107   2.755  21.561  0.00  0.00    +0.000 A 
ATOM     12  C   UNL     1       0.504   3.097  20.351  0.00  0.00    +0.000 A 
ATOM     13  C   UNL     1       1.282   3.536  19.275  0.00  0.00    +0.000 A 
ENDBRANCH   7   8
BRANCH   3  14
ATOM     14  C   UNL     1       5.812   4.767  14.806  0.00  0.00    +0.000 C 
ATOM     15  F   UNL     1       7.078   4.293  14.934  0.00  0.00    +0.000 F 
ATOM     16  F   UNL     1       5.290   4.214  13.680  0.00  0.00    +0.000 F 
ATOM     17  F   UNL     1       5.910   6.102  14.584  0.00  0.00    +0.000 F 
ENDBRANCH   3  14
BRANCH   1  18
ATOM     18  S   UNL     1       3.261   6.586  18.839  0.00  0.00    +0.000 S 
BRANCH  18  19
ATOM     19  C   UNL     1       2.913   7.877  17.625  0.00  0.00    +0.000 C 
BRANCH  19  21
ATOM     20  O   UNL     1       1.462   8.853  19.297  0.00  0.00    +0.000 OA
ATOM     21  C   UNL     1       2.023   8.948  18.215  0.00  0.00    +0.000 C 
BRANCH  21  22
ATOM     22  O   UNL     1       1.865  10.029  17.418  0.00  0.00    +0.000 OA
ATOM     23  H   UNL     1       2.662  10.222  16.878  0.00  0.00    +0.000 HD
ENDBRANCH  21  22
ENDBRANCH  19  21
ENDBRANCH  18  19
ENDBRANCH   1  18
TORSDOF 6
ENDMDL
MODEL 9
REMARK VINA RESULT:      -6.6      3.734      5.299
REMARK  Name = 
REMARK  6 active torsions:
REMARK  status: ('A' for Active; 'I' for Inactive)
REMARK    1  A    between atoms: C_2  and  O_3
REMARK    2  A    between atoms: C_2  and  C_4
REMARK    3  A    between atoms: C_4  and  S_5
REMARK    4  A    between atoms: S_5  and  C_6
REMARK    5  A    between atoms: C_8  and  C_9
REMARK    6  A    between atoms: N_16  and  C_17
REMARK                            x       y       z     vdW  Elec       q    Type
REMARK                         _______ _______ _______ _____ _____    ______ ____
ROOT
ATOM      1  C   UNL     1       3.594   5.429  18.391  0.00  0.00    +0.000 A 
ATOM      2  N   UNL     1       2.767   5.253  19.378  0.00  0.00    +0.000 NA
ATOM      3  C   UNL     1       2.423   3.953  19.710  0.00  0.00    +0.000 A 
ATOM      4  C   UNL     1       2.914   2.890  19.066  0.00  0.00    +0.000 A 
ATOM      5  C   UNL     1       3.866   3.081  17.970  0.00  0.00    +0.000 A 
ATOM      6  O   UNL     1       4.310   2.066  17.435  0.00  0.00    +0.000 OA
ATOM      7  N   UNL     1       4.189   4.397  17.669  0.00  0.00    +0.000 N 
ENDROOT
BRANCH   7   8
ATOM      8  C   UNL     1       5.175   4.591  16.653  0.00  0.00    +0.000 A 
ATOM      9  C   UNL     1       4.807   4.521  15.301  0.00  0.00    +0.000 A 
ATOM     10  C   UNL     1       5.771   4.584  14.295  0.00  0.00    +0.000 A 
ATOM     11  C   UNL     1       7.117   4.706  14.631  0.00  0.00    +0.000 A 
ATOM     12  C   UNL     1       7.497   4.789  15.971  0.00  0.00    +0.000 A 
ATOM     13  C   UNL     1       6.532   4.736  16.981  0.00  0.00    +0.000 A 
ENDBRANCH   7   8
BRANCH   3  14
ATOM     14  C   UNL     1       1.403   3.718  20.811  0.00  0.00    +0.000 C 
ATOM     15  F   UNL     1       0.436   4.671  20.824  0.00  0.00    +0.000 F 
ATOM     16  F   UNL     1       0.782   2.519  20.671  0.00  0.00    +0.000 F 
ATOM     17  F   UNL     1       1.982   3.725  22.038  0.00  0.00    +0.000 F 
ENDBRANCH   3  14
BRANCH   1  18
ATOM     18  S   UNL     1       3.852   7.088  17.855  0.00  0.00    +0.000 S 
BRANCH  18  19
ATOM     19  C   UNL     1       2.174   7.651  17.498  0.00  0.00    +0.000 C 
BRANCH  19  21
ATOM     20  O   UNL     1       1.541   9.024  19.387  0.00  0.00    +0.000 OA
ATOM     21  C   UNL     1       1.874   8.949  18.213  0.00  0.00    +0.000 C 
BRANCH  21  22
ATOM     22  O   UNL     1       1.973  10.043  17.425  0.00  0.00    +0.000 OA
ATOM     23  H   UNL     1       2.904  10.290  17.233  0.00  0.00    +0.000 HD
ENDBRANCH  21  22
ENDBRANCH  19  21
ENDBRANCH  18  19
ENDBRANCH   1  18
TORSDOF 6
ENDMDL
