MODEL 1
REMARK VINA RESULT:      -8.2      0.000      0.000
REMARK  Name = 
REMARK  10 active torsions:
REMARK  status: ('A' for Active; 'I' for Inactive)
REMARK    1  A    between atoms: C_1  and  C_2
REMARK    2  A    between atoms: C_10  and  C_11
REMARK    3  A    between atoms: C_11  and  N_13
REMARK    4  A    between atoms: N_14  and  C_15
REMARK    5  A    between atoms: C_16  and  O_17
REMARK    6  A    between atoms: N_18  and  C_19
REMARK    7  A    between atoms: C_19  and  C_20
REMARK    8  A    between atoms: C_20  and  C_21
REMARK    9  A    between atoms: C_21  and  C_22
REMARK   10  A    between atoms: C_21  and  C_23
REMARK                            x       y       z     vdW  Elec       q    Type
REMARK                         _______ _______ _______ _____ _____    ______ ____
ROOT
ATOM      1  C   UNL     1       3.709   6.601  17.947  0.00  0.00    +0.000 A 
ATOM      2  C   UNL     1       3.473   5.727  18.986  0.00  0.00    +0.000 A 
ATOM      3  N   UNL     1       4.066   4.530  18.658  0.00  0.00    +0.000 N 
ATOM      4  C   UNL     1       4.702   4.638  17.429  0.00  0.00    +0.000 A 
ATOM      5  C   UNL     1       5.473   3.716  16.701  0.00  0.00    +0.000 A 
ATOM      6  C   UNL     1       6.004   4.113  15.474  0.00  0.00    +0.000 A 
ATOM      7  C   UNL     1       5.780   5.392  14.979  0.00  0.00    +0.000 A 
ATOM      8  C   UNL     1       5.015   6.312  15.706  0.00  0.00    +0.000 A 
ATOM      9  C   UNL     1       4.471   5.937  16.952  0.00  0.00    +0.000 A 
ENDROOT
BRANCH   1  11
ATOM     10  N   UNL     1       2.150   8.115  18.344  0.00  0.00    +0.000 NA
ATOM     11  N   UNL     1       3.293   7.941  17.866  0.00  0.00    +0.000 NA
BRANCH  10  12
ATOM     12  C   UNL     1       1.738   9.424  18.257  0.00  0.00    +0.000 C 
ATOM     13  O   UNL     1       2.158  10.232  17.435  0.00  0.00    +0.000 OA
BRANCH  12  23
ATOM     14  C   UNL     1      -1.091  10.629  17.573  0.00  0.00    +0.000 C 
ATOM     15  C   UNL     1      -0.544  10.281  18.907  0.00  0.00    +0.000 A 
ATOM     16  N   UNL     1      -1.304  10.492  20.026  0.00  0.00    +0.000 NA
ATOM     17  C   UNL     1      -0.559  10.102  21.032  0.00  0.00    +0.000 A 
ATOM     18  C   UNL     1      -0.842  10.106  22.427  0.00  0.00    +0.000 A 
ATOM     19  C   UNL     1       0.073   9.646  23.300  0.00  0.00    +0.000 A 
ATOM     20  C   UNL     1       1.353   9.142  22.846  0.00  0.00    +0.000 A 
ATOM     21  C   UNL     1       1.632   9.144  21.530  0.00  0.00    +0.000 A 
ATOM     22  N   UNL     1       0.686   9.624  20.610  0.00  0.00    +0.000 N 
ATOM     23  C   UNL     1       0.703   9.746  19.222  0.00  0.00    +0.000 A 
ENDBRANCH  12  23
ENDBRANCH  10  12
ENDBRANCH   1  11
BRANCH   2  24
ATOM     24  O   UNL     1       2.827   5.892  20.138  0.00  0.00    +0.000 OA
ATOM     25  H   UNL     1       1.881   5.768  19.929  0.00  0.00    +0.000 HD
ENDBRANCH   2  24
BRANCH   3  26
ATOM     26  C   UNL     1       4.120   3.366  19.526  0.00  0.00    +0.000 C 
BRANCH  26  27
ATOM     27  C   UNL     1       3.080   2.274  19.254  0.00  0.00    +0.000 C 
BRANCH  27  28
ATOM     28  C   UNL     1       1.838   2.275  20.163  0.00  0.00    +0.000 C 
ATOM     29  C   UNL     1       2.130   2.812  21.566  0.00  0.00    +0.000 C 
ATOM     30  C   UNL     1       0.747   3.128  19.508  0.00  0.00    +0.000 C 
ENDBRANCH  27  28
ENDBRANCH  26  27
ENDBRANCH   3  26
TORSDOF 7
ENDMDL
MODEL 2
REMARK VINA RESULT:      -7.9      2.246      8.370
REMARK  Name = 
REMARK  10 active torsions:
REMARK  status: ('A' for Active; 'I' for Inactive)
REMARK    1  A    between atoms: C_1  and  C_2
REMARK    2  A    between atoms: C_10  and  C_11
REMARK    3  A    between atoms: C_11  and  N_13
REMARK    4  A    between atoms: N_14  and  C_15
REMARK    5  A    between atoms: C_16  and  O_17
REMARK    6  A    between atoms: N_18  and  C_19
REMARK    7  A    between atoms: C_19  and  C_20
REMARK    8  A    between atoms: C_20  and  C_21
REMARK    9  A    between atoms: C_21  and  C_22
REMARK   10  A    between atoms: C_21  and  C_23
REMARK                            x       y       z     vdW  Elec       q    Type
REMARK                         _______ _______ _______ _____ _____    ______ ____
ROOT
ATOM      1  C   UNL     1       1.170   8.529  20.281  0.00  0.00    +0.000 A 
ATOM      2  C   UNL     1       1.413   9.305  19.168  0.00  0.00    +0.000 A 
ATOM      3  N   UNL     1       0.868  10.546  19.406  0.00  0.00    +0.000 N 
ATOM      4  C   UNL     1       0.301  10.578  20.673  0.00  0.00    +0.000 A 
ATOM      5  C   UNL     1      -0.327  11.618  21.379  0.00  0.00    +0.000 A 
ATOM      6  C   UNL     1      -0.802  11.359  22.665  0.00  0.00    +0.000 A 
ATOM      7  C   UNL     1      -0.658  10.101  23.239  0.00  0.00    +0.000 A 
ATOM      8  C   UNL     1      -0.029   9.066  22.536  0.00  0.00    +0.000 A 
ATOM      9  C   UNL     1       0.465   9.304  21.236  0.00  0.00    +0.000 A 
ENDROOT
BRANCH   1  11
ATOM     10  N   UNL     1       2.542   6.876  19.765  0.00  0.00    +0.000 NA
ATOM     11  N   UNL     1       1.562   7.194  20.475  0.00  0.00    +0.000 NA
BRANCH  10  12
ATOM     12  C   UNL     1       2.921   5.568  19.947  0.00  0.00    +0.000 C 
ATOM     13  O   UNL     1       2.673   4.905  20.950  0.00  0.00    +0.000 OA
BRANCH  12  23
ATOM     14  C   UNL     1       1.559   4.055  17.542  0.00  0.00    +0.000 C 
ATOM     15  C   UNL     1       2.999   4.354  17.737  0.00  0.00    +0.000 A 
ATOM     16  N   UNL     1       3.909   3.943  16.800  0.00  0.00    +0.000 NA
ATOM     17  C   UNL     1       5.075   4.338  17.248  0.00  0.00    +0.000 A 
ATOM     18  C   UNL     1       6.371   4.172  16.682  0.00  0.00    +0.000 A 
ATOM     19  C   UNL     1       7.449   4.672  17.312  0.00  0.00    +0.000 A 
ATOM     20  C   UNL     1       7.319   5.383  18.568  0.00  0.00    +0.000 A 
ATOM     21  C   UNL     1       6.100   5.537  19.114  0.00  0.00    +0.000 A 
ATOM     22  N   UNL     1       4.967   5.017  18.466  0.00  0.00    +0.000 N 
ATOM     23  C   UNL     1       3.612   5.023  18.793  0.00  0.00    +0.000 A 
ENDBRANCH  12  23
ENDBRANCH  10  12
ENDBRANCH   1  11
BRANCH   2  24
ATOM     24  O   UNL     1       2.049   9.030  18.032  0.00  0.00    +0.000 OA
ATOM     25  H   UNL     1       2.415   9.882  17.723  0.00  0.00    +0.000 HD
ENDBRANCH   2  24
BRANCH   3  26
ATOM     26  C   UNL     1       0.978  11.685  18.511  0.00  0.00    +0.000 C 
BRANCH  26  27
ATOM     27  C   UNL     1       2.283  12.485  18.595  0.00  0.00    +0.000 C 
BRANCH  27  28
ATOM     28  C   UNL     1       2.245  13.757  19.460  0.00  0.00    +0.000 C 
ATOM     29  C   UNL     1       3.389  14.723  19.145  0.00  0.00    +0.000 C 
ATOM     30  C   UNL     1       0.905  14.466  19.240  0.00  0.00    +0.000 C 
ENDBRANCH  27  28
ENDBRANCH  26  27
ENDBRANCH   3  26
TORSDOF 7
ENDMDL
MODEL 3
REMARK VINA RESULT:      -7.8      2.012      3.269
REMARK  Name = 
REMARK  10 active torsions:
REMARK  status: ('A' for Active; 'I' for Inactive)
REMARK    1  A    between atoms: C_1  and  C_2
REMARK    2  A    between atoms: C_10  and  C_11
REMARK    3  A    between atoms: C_11  and  N_13
REMARK    4  A    between atoms: N_14  and  C_15
REMARK    5  A    between atoms: C_16  and  O_17
REMARK    6  A    between atoms: N_18  and  C_19
REMARK    7  A    between atoms: C_19  and  C_20
REMARK    8  A    between atoms: C_20  and  C_21
REMARK    9  A    between atoms: C_21  and  C_22
REMARK   10  A    between atoms: C_21  and  C_23
REMARK                            x       y       z     vdW  Elec       q    Type
REMARK                         _______ _______ _______ _____ _____    ______ ____
ROOT
ATOM      1  C   UNL     1       2.460   7.972  18.668  0.00  0.00    +0.000 A 
ATOM      2  C   UNL     1       1.936   7.346  19.778  0.00  0.00    +0.000 A 
ATOM      3  N   UNL     1       2.430   6.062  19.796  0.00  0.00    +0.000 N 
ATOM      4  C   UNL     1       3.287   5.869  18.721  0.00  0.00    +0.000 A 
ATOM      5  C   UNL     1       4.059   4.759  18.340  0.00  0.00    +0.000 A 
ATOM      6  C   UNL     1       4.848   4.858  17.194  0.00  0.00    +0.000 A 
ATOM      7  C   UNL     1       4.874   6.027  16.443  0.00  0.00    +0.000 A 
ATOM      8  C   UNL     1       4.106   7.134  16.825  0.00  0.00    +0.000 A 
ATOM      9  C   UNL     1       3.304   7.062  17.982  0.00  0.00    +0.000 A 
ENDROOT
BRANCH   1  11
ATOM     10  N   UNL     1       1.483   9.915  19.059  0.00  0.00    +0.000 NA
ATOM     11  N   UNL     1       2.230   9.299  18.266  0.00  0.00    +0.000 NA
BRANCH  10  12
ATOM     12  C   UNL     1       1.250  11.210  18.662  0.00  0.00    +0.000 C 
ATOM     13  O   UNL     1       2.093  11.945  18.156  0.00  0.00    +0.000 OA
BRANCH  12  23
ATOM     14  C   UNL     1       0.269  13.500  20.591  0.00  0.00    +0.000 C 
ATOM     15  C   UNL     1      -0.552  12.626  19.717  0.00  0.00    +0.000 A 
ATOM     16  N   UNL     1      -1.914  12.769  19.703  0.00  0.00    +0.000 NA
ATOM     17  C   UNL     1      -2.351  11.867  18.857  0.00  0.00    +0.000 A 
ATOM     18  C   UNL     1      -3.684  11.564  18.462  0.00  0.00    +0.000 A 
ATOM     19  C   UNL     1      -3.913  10.592  17.560  0.00  0.00    +0.000 A 
ATOM     20  C   UNL     1      -2.820   9.840  16.977  0.00  0.00    +0.000 A 
ATOM     21  C   UNL     1      -1.558  10.114  17.352  0.00  0.00    +0.000 A 
ATOM     22  N   UNL     1      -1.307  11.125  18.295  0.00  0.00    +0.000 N 
ATOM     23  C   UNL     1      -0.130  11.613  18.860  0.00  0.00    +0.000 A 
ENDBRANCH  12  23
ENDBRANCH  10  12
ENDBRANCH   1  11
BRANCH   2  24
ATOM     24  O   UNL     1       1.117   7.790  20.728  0.00  0.00    +0.000 OA
ATOM     25  H   UNL     1       0.402   7.128  20.790  0.00  0.00    +0.000 HD
ENDBRANCH   2  24
BRANCH   3  26
ATOM     26  C   UNL     1       2.185   5.095  20.852  0.00  0.00    +0.000 C 
BRANCH  26  27
ATOM     27  C   UNL     1       1.044   4.102  20.605  0.00  0.00    +0.000 C 
BRANCH  27  28
ATOM     28  C   UNL     1       1.421   2.610  20.644  0.00  0.00    +0.000 C 
ATOM     29  C   UNL     1       1.710   2.034  19.256  0.00  0.00    +0.000 C 
ATOM     30  C   UNL     1       2.653   2.434  21.536  0.00  0.00    +0.000 C 
ENDBRANCH  27  28
ENDBRANCH  26  27
ENDBRANCH   3  26
TORSDOF 7
ENDMDL
MODEL 4
REMARK VINA RESULT:      -7.8      1.490      8.090
REMARK  Name = 
REMARK  10 active torsions:
REMARK  status: ('A' for Active; 'I' for Inactive)
REMARK    1  A    between atoms: C_1  and  C_2
REMARK    2  A    between atoms: C_10  and  C_11
REMARK    3  A    between atoms: C_11  and  N_13
REMARK    4  A    between atoms: N_14  and  C_15
REMARK    5  A    between atoms: C_16  and  O_17
REMARK    6  A    between atoms: N_18  and  C_19
REMARK    7  A    between atoms: C_19  and  C_20
REMARK    8  A    between atoms: C_20  and  C_21
REMARK    9  A    between atoms: C_21  and  C_22
REMARK   10  A    between atoms: C_21  and  C_23
REMARK                            x       y       z     vdW  Elec       q    Type
REMARK                         _______ _______ _______ _____ _____    ______ ____
ROOT
ATOM      1  C   UNL     1       1.158   8.662  20.407  0.00  0.00    +0.000 A 
ATOM      2  C   UNL     1       1.106   9.343  19.210  0.00  0.00    +0.000 A 
ATOM      3  N   UNL     1       0.329  10.461  19.407  0.00  0.00    +0.000 N 
ATOM      4  C   UNL     1      -0.096  10.515  20.728  0.00  0.00    +0.000 A 
ATOM      5  C   UNL     1      -0.861  11.473  21.415  0.00  0.00    +0.000 A 
ATOM      6  C   UNL     1      -1.130  11.264  22.768  0.00  0.00    +0.000 A 
ATOM      7  C   UNL     1      -0.653  10.136  23.426  0.00  0.00    +0.000 A 
ATOM      8  C   UNL     1       0.112   9.184  22.740  0.00  0.00    +0.000 A 
ATOM      9  C   UNL     1       0.403   9.374  21.373  0.00  0.00    +0.000 A 
ENDROOT
BRANCH   1  11
ATOM     10  N   UNL     1       1.575   6.568  19.842  0.00  0.00    +0.000 NA
ATOM     11  N   UNL     1       1.853   7.469  20.664  0.00  0.00    +0.000 NA
BRANCH  10  12
ATOM     12  C   UNL     1       2.247   5.397  20.098  0.00  0.00    +0.000 C 
ATOM     13  O   UNL     1       2.388   4.905  21.214  0.00  0.00    +0.000 OA
BRANCH  12  23
ATOM     14  C   UNL     1       1.109   2.749  18.825  0.00  0.00    +0.000 C 
ATOM     15  C   UNL     1       2.229   3.590  18.337  0.00  0.00    +0.000 A 
ATOM     16  N   UNL     1       2.906   3.226  17.203  0.00  0.00    +0.000 NA
ATOM     17  C   UNL     1       3.827   4.144  17.036  0.00  0.00    +0.000 A 
ATOM     18  C   UNL     1       4.820   4.261  16.023  0.00  0.00    +0.000 A 
ATOM     19  C   UNL     1       5.672   5.302  16.034  0.00  0.00    +0.000 A 
ATOM     20  C   UNL     1       5.601   6.317  17.067  0.00  0.00    +0.000 A 
ATOM     21  C   UNL     1       4.671   6.209  18.033  0.00  0.00    +0.000 A 
ATOM     22  N   UNL     1       3.778   5.125  18.032  0.00  0.00    +0.000 N 
ATOM     23  C   UNL     1       2.740   4.762  18.889  0.00  0.00    +0.000 A 
ENDBRANCH  12  23
ENDBRANCH  10  12
ENDBRANCH   1  11
BRANCH   2  24
ATOM     24  O   UNL     1       1.666   9.083  18.031  0.00  0.00    +0.000 OA
ATOM     25  H   UNL     1       2.588   8.827  18.229  0.00  0.00    +0.000 HD
ENDBRANCH   2  24
BRANCH   3  26
ATOM     26  C   UNL     1       0.091  11.491  18.411  0.00  0.00    +0.000 C 
BRANCH  26  27
ATOM     27  C   UNL     1      -1.371  11.899  18.198  0.00  0.00    +0.000 C 
BRANCH  27  28
ATOM     28  C   UNL     1      -2.381  10.750  18.033  0.00  0.00    +0.000 C 
ATOM     29  C   UNL     1      -3.821  11.243  17.878  0.00  0.00    +0.000 C 
ATOM     30  C   UNL     1      -1.991   9.922  16.805  0.00  0.00    +0.000 C 
ENDBRANCH  27  28
ENDBRANCH  26  27
ENDBRANCH   3  26
TORSDOF 7
ENDMDL
MODEL 5
REMARK VINA RESULT:      -7.7      1.145      1.192
REMARK  Name = 
REMARK  10 active torsions:
REMARK  status: ('A' for Active; 'I' for Inactive)
REMARK    1  A    between atoms: C_1  and  C_2
REMARK    2  A    between atoms: C_10  and  C_11
REMARK    3  A    between atoms: C_11  and  N_13
REMARK    4  A    between atoms: N_14  and  C_15
REMARK    5  A    between atoms: C_16  and  O_17
REMARK    6  A    between atoms: N_18  and  C_19
REMARK    7  A    between atoms: C_19  and  C_20
REMARK    8  A    between atoms: C_20  and  C_21
REMARK    9  A    between atoms: C_21  and  C_22
REMARK   10  A    between atoms: C_21  and  C_23
REMARK                            x       y       z     vdW  Elec       q    Type
REMARK                         _______ _______ _______ _____ _____    ______ ____
ROOT
ATOM      1  C   UNL     1       3.676   6.688  17.676  0.00  0.00    +0.000 A 
ATOM      2  C   UNL     1       2.894   5.561  17.801  0.00  0.00    +0.000 A 
ATOM      3  N   UNL     1       3.738   4.474  17.801  0.00  0.00    +0.000 N 
ATOM      4  C   UNL     1       5.056   4.898  17.703  0.00  0.00    +0.000 A 
ATOM      5  C   UNL     1       6.262   4.179  17.709  0.00  0.00    +0.000 A 
ATOM      6  C   UNL     1       7.461   4.886  17.602  0.00  0.00    +0.000 A 
ATOM      7  C   UNL     1       7.465   6.271  17.493  0.00  0.00    +0.000 A 
ATOM      8  C   UNL     1       6.262   6.988  17.491  0.00  0.00    +0.000 A 
ATOM      9  C   UNL     1       5.037   6.298  17.603  0.00  0.00    +0.000 A 
ENDROOT
BRANCH   1  11
ATOM     10  N   UNL     1       2.161   8.181  18.274  0.00  0.00    +0.000 NA
ATOM     11  N   UNL     1       3.229   8.020  17.643  0.00  0.00    +0.000 NA
BRANCH  10  12
ATOM     12  C   UNL     1       1.719   9.481  18.235  0.00  0.00    +0.000 C 
ATOM     13  O   UNL     1       2.112  10.327  17.437  0.00  0.00    +0.000 OA
BRANCH  12  23
ATOM     14  C   UNL     1      -1.173  10.561  17.603  0.00  0.00    +0.000 C 
ATOM     15  C   UNL     1      -0.591  10.226  18.926  0.00  0.00    +0.000 A 
ATOM     16  N   UNL     1      -1.343  10.392  20.058  0.00  0.00    +0.000 NA
ATOM     17  C   UNL     1      -0.565  10.028  21.049  0.00  0.00    +0.000 A 
ATOM     18  C   UNL     1      -0.828  10.005  22.448  0.00  0.00    +0.000 A 
ATOM     19  C   UNL     1       0.121   9.580  23.303  0.00  0.00    +0.000 A 
ATOM     20  C   UNL     1       1.416   9.141  22.825  0.00  0.00    +0.000 A 
ATOM     21  C   UNL     1       1.675   9.167  21.506  0.00  0.00    +0.000 A 
ATOM     22  N   UNL     1       0.693   9.611  20.604  0.00  0.00    +0.000 N 
ATOM     23  C   UNL     1       0.684   9.747  19.217  0.00  0.00    +0.000 A 
ENDBRANCH  12  23
ENDBRANCH  10  12
ENDBRANCH   1  11
BRANCH   2  24
ATOM     24  O   UNL     1       1.576   5.420  17.922  0.00  0.00    +0.000 OA
ATOM     25  H   UNL     1       1.382   5.571  18.868  0.00  0.00    +0.000 HD
ENDBRANCH   2  24
BRANCH   3  26
ATOM     26  C   UNL     1       3.316   3.098  17.997  0.00  0.00    +0.000 C 
BRANCH  26  27
ATOM     27  C   UNL     1       3.206   2.626  19.451  0.00  0.00    +0.000 C 
BRANCH  27  28
ATOM     28  C   UNL     1       1.781   2.412  19.991  0.00  0.00    +0.000 C 
ATOM     29  C   UNL     1       1.300   3.566  20.873  0.00  0.00    +0.000 C 
ATOM     30  C   UNL     1       0.824   2.243  18.807  0.00  0.00    +0.000 C 
ENDBRANCH  27  28
ENDBRANCH  26  27
ENDBRANCH   3  26
TORSDOF 7
ENDMDL
MODEL 6
REMARK VINA RESULT:      -7.7      2.502      4.433
REMARK  Name = 
REMARK  10 active torsions:
REMARK  status: ('A' for Active; 'I' for Inactive)
REMARK    1  A    between atoms: C_1  and  C_2
REMARK    2  A    between atoms: C_10  and  C_11
REMARK    3  A    between atoms: C_11  and  N_13
REMARK    4  A    between atoms: N_14  and  C_15
REMARK    5  A    between atoms: C_16  and  O_17
REMARK    6  A    between atoms: N_18  and  C_19
REMARK    7  A    between atoms: C_19  and  C_20
REMARK    8  A    between atoms: C_20  and  C_21
REMARK    9  A    between atoms: C_21  and  C_22
REMARK   10  A    between atoms: C_21  and  C_23
REMARK                            x       y       z     vdW  Elec       q    Type
REMARK                         _______ _______ _______ _____ _____    ______ ____
ROOT
ATOM      1  C   UNL     1       2.297   6.970  19.670  0.00  0.00    +0.000 A 
ATOM      2  C   UNL     1       2.998   7.253  18.518  0.00  0.00    +0.000 A 
ATOM      3  N   UNL     1       3.650   6.101  18.142  0.00  0.00    +0.000 N 
ATOM      4  C   UNL     1       3.353   5.077  19.029  0.00  0.00    +0.000 A 
ATOM      5  C   UNL     1       3.734   3.725  19.044  0.00  0.00    +0.000 A 
ATOM      6  C   UNL     1       3.266   2.911  20.076  0.00  0.00    +0.000 A 
ATOM      7  C   UNL     1       2.439   3.422  21.069  0.00  0.00    +0.000 A 
ATOM      8  C   UNL     1       2.057   4.769  21.052  0.00  0.00    +0.000 A 
ATOM      9  C   UNL     1       2.512   5.612  20.017  0.00  0.00    +0.000 A 
ENDROOT
BRANCH   1  11
ATOM     10  N   UNL     1       1.147   8.856  19.722  0.00  0.00    +0.000 NA
ATOM     11  N   UNL     1       1.480   7.855  20.395  0.00  0.00    +0.000 NA
BRANCH  10  12
ATOM     12  C   UNL     1       0.356   9.726  20.432  0.00  0.00    +0.000 C 
ATOM     13  O   UNL     1      -0.062   9.519  21.568  0.00  0.00    +0.000 OA
BRANCH  12  23
ATOM     14  C   UNL     1      -1.839  10.125  18.207  0.00  0.00    +0.000 C 
ATOM     15  C   UNL     1      -0.873  11.123  18.728  0.00  0.00    +0.000 A 
ATOM     16  N   UNL     1      -0.871  12.393  18.217  0.00  0.00    +0.000 NA
ATOM     17  C   UNL     1       0.081  13.026  18.859  0.00  0.00    +0.000 A 
ATOM     18  C   UNL     1       0.529  14.370  18.726  0.00  0.00    +0.000 A 
ATOM     19  C   UNL     1       1.530  14.826  19.501  0.00  0.00    +0.000 A 
ATOM     20  C   UNL     1       2.168  13.968  20.479  0.00  0.00    +0.000 A 
ATOM     21  C   UNL     1       1.757  12.694  20.606  0.00  0.00    +0.000 A 
ATOM     22  N   UNL     1       0.715  12.207  19.799  0.00  0.00    +0.000 N 
ATOM     23  C   UNL     1       0.099  10.959  19.711  0.00  0.00    +0.000 A 
ENDBRANCH  12  23
ENDBRANCH  10  12
ENDBRANCH   1  11
BRANCH   2  24
ATOM     24  O   UNL     1       3.093   8.372  17.805  0.00  0.00    +0.000 OA
ATOM     25  H   UNL     1       3.760   8.920  18.264  0.00  0.00    +0.000 HD
ENDBRANCH   2  24
BRANCH   3  26
ATOM     26  C   UNL     1       4.435   5.953  16.928  0.00  0.00    +0.000 C 
BRANCH  26  27
ATOM     27  C   UNL     1       5.834   6.580  16.949  0.00  0.00    +0.000 C 
BRANCH  27  28
ATOM     28  C   UNL     1       6.806   6.039  18.011  0.00  0.00    +0.000 C 
ATOM     29  C   UNL     1       7.431   4.699  17.617  0.00  0.00    +0.000 C 
ATOM     30  C   UNL     1       7.915   7.070  18.238  0.00  0.00    +0.000 C 
ENDBRANCH  27  28
ENDBRANCH  26  27
ENDBRANCH   3  26
TORSDOF 7
ENDMDL
MODEL 7
REMARK VINA RESULT:      -7.7      2.322      8.074
REMARK  Name = 
REMARK  10 active torsions:
REMARK  status: ('A' for Active; 'I' for Inactive)
REMARK    1  A    between atoms: C_1  and  C_2
REMARK    2  A    between atoms: C_10  and  C_11
REMARK    3  A    between atoms: C_11  and  N_13
REMARK    4  A    between atoms: N_14  and  C_15
REMARK    5  A    between atoms: C_16  and  O_17
REMARK    6  A    between atoms: N_18  and  C_19
REMARK    7  A    between atoms: C_19  and  C_20
REMARK    8  A    between atoms: C_20  and  C_21
REMARK    9  A    between atoms: C_21  and  C_22
REMARK   10  A    between atoms: C_21  and  C_23
REMARK                            x       y       z     vdW  Elec       q    Type
REMARK                         _______ _______ _______ _____ _____    ______ ____
ROOT
ATOM      1  C   UNL     1       1.713   8.326  19.380  0.00  0.00    +0.000 A 
ATOM      2  C   UNL     1       1.823   9.319  18.432  0.00  0.00    +0.000 A 
ATOM      3  N   UNL     1       1.237  10.450  18.952  0.00  0.00    +0.000 N 
ATOM      4  C   UNL     1       0.775  10.196  20.235  0.00  0.00    +0.000 A 
ATOM      5  C   UNL     1       0.155  11.033  21.178  0.00  0.00    +0.000 A 
ATOM      6  C   UNL     1      -0.199  10.495  22.416  0.00  0.00    +0.000 A 
ATOM      7  C   UNL     1       0.056   9.162  22.715  0.00  0.00    +0.000 A 
ATOM      8  C   UNL     1       0.676   8.329  21.775  0.00  0.00    +0.000 A 
ATOM      9  C   UNL     1       1.049   8.850  20.519  0.00  0.00    +0.000 A 
ENDROOT
BRANCH   1  11
ATOM     10  N   UNL     1       2.296   6.634  18.085  0.00  0.00    +0.000 NA
ATOM     11  N   UNL     1       2.187   7.008  19.274  0.00  0.00    +0.000 NA
BRANCH  10  12
ATOM     12  C   UNL     1       2.751   5.342  17.980  0.00  0.00    +0.000 C 
ATOM     13  O   UNL     1       2.121   4.421  17.466  0.00  0.00    +0.000 OA
BRANCH  12  23
ATOM     14  C   UNL     1       3.637   3.224  20.139  0.00  0.00    +0.000 C 
ATOM     15  C   UNL     1       4.475   4.242  19.458  0.00  0.00    +0.000 A 
ATOM     16  N   UNL     1       5.806   4.337  19.764  0.00  0.00    +0.000 NA
ATOM     17  C   UNL     1       6.266   5.315  19.021  0.00  0.00    +0.000 A 
ATOM     18  C   UNL     1       7.581   5.852  18.939  0.00  0.00    +0.000 A 
ATOM     19  C   UNL     1       7.843   6.864  18.091  0.00  0.00    +0.000 A 
ATOM     20  C   UNL     1       6.803   7.425  17.253  0.00  0.00    +0.000 A 
ATOM     21  C   UNL     1       5.555   6.929  17.331  0.00  0.00    +0.000 A 
ATOM     22  N   UNL     1       5.270   5.874  18.214  0.00  0.00    +0.000 N 
ATOM     23  C   UNL     1       4.096   5.181  18.502  0.00  0.00    +0.000 A 
ENDBRANCH  12  23
ENDBRANCH  10  12
ENDBRANCH   1  11
BRANCH   2  24
ATOM     24  O   UNL     1       2.378   9.315  17.222  0.00  0.00    +0.000 OA
ATOM     25  H   UNL     1       3.328   9.490  17.368  0.00  0.00    +0.000 HD
ENDBRANCH   2  24
BRANCH   3  26
ATOM     26  C   UNL     1       1.215  11.747  18.298  0.00  0.00    +0.000 C 
BRANCH  26  27
ATOM     27  C   UNL     1       2.438  12.641  18.532  0.00  0.00    +0.000 C 
BRANCH  27  28
ATOM     28  C   UNL     1       2.198  13.921  19.353  0.00  0.00    +0.000 C 
ATOM     29  C   UNL     1       0.719  14.308  19.430  0.00  0.00    +0.000 C 
ATOM     30  C   UNL     1       2.744  13.710  20.768  0.00  0.00    +0.000 C 
ENDBRANCH  27  28
ENDBRANCH  26  27
ENDBRANCH   3  26
TORSDOF 7
ENDMDL
MODEL 8
REMARK VINA RESULT:      -7.7      1.993      8.337
REMARK  Name = 
REMARK  10 active torsions:
REMARK  status: ('A' for Active; 'I' for Inactive)
REMARK    1  A    between atoms: C_1  and  C_2
REMARK    2  A    between atoms: C_10  and  C_11
REMARK    3  A    between atoms: C_11  and  N_13
REMARK    4  A    between atoms: N_14  and  C_15
REMARK    5  A    between atoms: C_16  and  O_17
REMARK    6  A    between atoms: N_18  and  C_19
REMARK    7  A    between atoms: C_19  and  C_20
REMARK    8  A    between atoms: C_20  and  C_21
REMARK    9  A    between atoms: C_21  and  C_22
REMARK   10  A    between atoms: C_21  and  C_23
REMARK                            x       y       z     vdW  Elec       q    Type
REMARK                         _______ _______ _______ _____ _____    ______ ____
ROOT
ATOM      1  C   UNL     1       1.239   8.577  20.485  0.00  0.00    +0.000 A 
ATOM      2  C   UNL     1       1.430   9.290  19.322  0.00  0.00    +0.000 A 
ATOM      3  N   UNL     1       0.762  10.485  19.459  0.00  0.00    +0.000 N 
ATOM      4  C   UNL     1       0.166  10.554  20.710  0.00  0.00    +0.000 A 
ATOM      5  C   UNL     1      -0.576  11.575  21.327  0.00  0.00    +0.000 A 
ATOM      6  C   UNL     1      -1.053  11.364  22.622  0.00  0.00    +0.000 A 
ATOM      7  C   UNL     1      -0.801  10.171  23.289  0.00  0.00    +0.000 A 
ATOM      8  C   UNL     1      -0.058   9.155  22.675  0.00  0.00    +0.000 A 
ATOM      9  C   UNL     1       0.440   9.346  21.369  0.00  0.00    +0.000 A 
ENDROOT
BRANCH   1  11
ATOM     10  N   UNL     1       1.795   6.559  19.780  0.00  0.00    +0.000 NA
ATOM     11  N   UNL     1       1.754   7.304  20.784  0.00  0.00    +0.000 NA
BRANCH  10  12
ATOM     12  C   UNL     1       2.290   5.311  20.073  0.00  0.00    +0.000 C 
ATOM     13  O   UNL     1       2.252   4.790  21.184  0.00  0.00    +0.000 OA
BRANCH  12  23
ATOM     14  C   UNL     1       1.476   2.433  19.081  0.00  0.00    +0.000 C 
ATOM     15  C   UNL     1       2.462   3.364  18.477  0.00  0.00    +0.000 A 
ATOM     16  N   UNL     1       3.148   2.988  17.354  0.00  0.00    +0.000 NA
ATOM     17  C   UNL     1       3.935   3.998  17.071  0.00  0.00    +0.000 A 
ATOM     18  C   UNL     1       4.875   4.149  16.013  0.00  0.00    +0.000 A 
ATOM     19  C   UNL     1       5.583   5.288  15.900  0.00  0.00    +0.000 A 
ATOM     20  C   UNL     1       5.407   6.374  16.843  0.00  0.00    +0.000 A 
ATOM     21  C   UNL     1       4.527   6.236  17.851  0.00  0.00    +0.000 A 
ATOM     22  N   UNL     1       3.785   5.051  17.980  0.00  0.00    +0.000 N 
ATOM     23  C   UNL     1       2.828   4.637  18.905  0.00  0.00    +0.000 A 
ENDBRANCH  12  23
ENDBRANCH  10  12
ENDBRANCH   1  11
BRANCH   2  24
ATOM     24  O   UNL     1       2.117   8.998  18.220  0.00  0.00    +0.000 OA
ATOM     25  H   UNL     1       2.130   9.821  17.693  0.00  0.00    +0.000 HD
ENDBRANCH   2  24
BRANCH   3  26
ATOM     26  C   UNL     1       0.782  11.562  18.483  0.00  0.00    +0.000 C 
BRANCH  26  27
ATOM     27  C   UNL     1       2.050  12.423  18.455  0.00  0.00    +0.000 C 
BRANCH  27  28
ATOM     28  C   UNL     1       1.954  13.798  19.139  0.00  0.00    +0.000 C 
ATOM     29  C   UNL     1       0.533  14.366  19.133  0.00  0.00    +0.000 C 
ATOM     30  C   UNL     1       2.444  13.666  20.584  0.00  0.00    +0.000 C 
ENDBRANCH  27  28
ENDBRANCH  26  27
ENDBRANCH   3  26
TORSDOF 7
ENDMDL
MODEL 9
REMARK VINA RESULT:      -7.6      2.108      2.738
REMARK  Name = 
REMARK  10 active torsions:
REMARK  status: ('A' for Active; 'I' for Inactive)
REMARK    1  A    between atoms: C_1  and  C_2
REMARK    2  A    between atoms: C_10  and  C_11
REMARK    3  A    between atoms: C_11  and  N_13
REMARK    4  A    between atoms: N_14  and  C_15
REMARK    5  A    between atoms: C_16  and  O_17
REMARK    6  A    between atoms: N_18  and  C_19
REMARK    7  A    between atoms: C_19  and  C_20
REMARK    8  A    between atoms: C_20  and  C_21
REMARK    9  A    between atoms: C_21  and  C_22
REMARK   10  A    between atoms: C_21  and  C_23
REMARK                            x       y       z     vdW  Elec       q    Type
REMARK                         _______ _______ _______ _____ _____    ______ ____
ROOT
ATOM      1  C   UNL     1       2.863   6.830  18.207  0.00  0.00    +0.000 A 
ATOM      2  C   UNL     1       2.628   5.978  19.264  0.00  0.00    +0.000 A 
ATOM      3  N   UNL     1       3.586   4.992  19.217  0.00  0.00    +0.000 N 
ATOM      4  C   UNL     1       4.449   5.220  18.154  0.00  0.00    +0.000 A 
ATOM      5  C   UNL     1       5.595   4.528  17.727  0.00  0.00    +0.000 A 
ATOM      6  C   UNL     1       6.281   5.003  16.609  0.00  0.00    +0.000 A 
ATOM      7  C   UNL     1       5.846   6.135  15.930  0.00  0.00    +0.000 A 
ATOM      8  C   UNL     1       4.706   6.826  16.359  0.00  0.00    +0.000 A 
ATOM      9  C   UNL     1       3.996   6.370  17.489  0.00  0.00    +0.000 A 
ENDROOT
BRANCH   1  11
ATOM     10  N   UNL     1       1.650   8.546  18.890  0.00  0.00    +0.000 NA
ATOM     11  N   UNL     1       2.132   7.985  17.881  0.00  0.00    +0.000 NA
BRANCH  10  12
ATOM     12  C   UNL     1       0.926   9.669  18.571  0.00  0.00    +0.000 C 
ATOM     13  O   UNL     1       0.140   9.748  17.632  0.00  0.00    +0.000 OA
BRANCH  12  23
ATOM     14  C   UNL     1       0.005   9.724  21.583  0.00  0.00    +0.000 C 
ATOM     15  C   UNL     1       0.738  10.772  20.832  0.00  0.00    +0.000 A 
ATOM     16  N   UNL     1       1.081  11.940  21.459  0.00  0.00    +0.000 NA
ATOM     17  C   UNL     1       1.698  12.656  20.551  0.00  0.00    +0.000 A 
ATOM     18  C   UNL     1       2.260  13.960  20.650  0.00  0.00    +0.000 A 
ATOM     19  C   UNL     1       2.865  14.514  19.583  0.00  0.00    +0.000 A 
ATOM     20  C   UNL     1       2.958  13.804  18.323  0.00  0.00    +0.000 A 
ATOM     21  C   UNL     1       2.422  12.575  18.219  0.00  0.00    +0.000 A 
ATOM     22  N   UNL     1       1.785  11.988  19.326  0.00  0.00    +0.000 N 
ATOM     23  C   UNL     1       1.152  10.759  19.503  0.00  0.00    +0.000 A 
ENDBRANCH  12  23
ENDBRANCH  10  12
ENDBRANCH   1  11
BRANCH   2  24
ATOM     24  O   UNL     1       1.701   6.003  20.218  0.00  0.00    +0.000 OA
ATOM     25  H   UNL     1       2.011   5.378  20.902  0.00  0.00    +0.000 HD
ENDBRANCH   2  24
BRANCH   3  26
ATOM     26  C   UNL     1       3.740   3.938  20.206  0.00  0.00    +0.000 C 
BRANCH  26  27
ATOM     27  C   UNL     1       3.253   2.546  19.790  0.00  0.00    +0.000 C 
BRANCH  27  28
ATOM     28  C   UNL     1       1.794   2.203  20.139  0.00  0.00    +0.000 C 
ATOM     29  C   UNL     1       1.340   2.820  21.464  0.00  0.00    +0.000 C 
ATOM     30  C   UNL     1       0.886   2.697  19.009  0.00  0.00    +0.000 C 
ENDBRANCH  27  28
ENDBRANCH  26  27
ENDBRANCH   3  26
TORSDOF 7
ENDMDL
