MODEL 1
REMARK VINA RESULT:      -8.7      0.000      0.000
REMARK  Name = 
REMARK  3 active torsions:
REMARK  status: ('A' for Active; 'I' for Inactive)
REMARK    1  A    between atoms: N_3  and  C_4
REMARK    2  A    between atoms: C_15  and  C_16
REMARK    3  A    between atoms: C_29  and  O_30
REMARK                            x       y       z     vdW  Elec       q    Type
REMARK                         _______ _______ _______ _____ _____    ______ ____
ROOT
ATOM      1  C   UNL     1       2.030   6.547  19.816  0.00  0.00    +0.000 A 
ATOM      2  C   UNL     1       1.775   5.910  21.048  0.00  0.00    +0.000 A 
ATOM      3  N   UNL     1       2.320   4.699  21.135  0.00  0.00    +0.000 NA
ATOM      4  N   UNL     1       2.965   4.547  19.956  0.00  0.00    +0.000 N 
ATOM      5  C   UNL     1       3.681   3.436  19.544  0.00  0.00    +0.000 A 
ATOM      6  C   UNL     1       4.285   3.434  18.353  0.00  0.00    +0.000 A 
ATOM      7  C   UNL     1       4.213   4.707  17.547  0.00  0.00    +0.000 A 
ATOM      8  N   UNL     1       5.005   4.768  16.419  0.00  0.00    +0.000 N 
ATOM      9  C   UNL     1       4.982   3.790  15.346  0.00  0.00    +0.000 C 
ATOM     10  C   UNL     1       6.301   4.043  14.634  0.00  0.00    +0.000 C 
ATOM     11  C   UNL     1       6.436   5.562  14.698  0.00  0.00    +0.000 C 
ATOM     12  C   UNL     1       5.724   5.973  16.005  0.00  0.00    +0.000 C 
ATOM     13  N   UNL     1       3.504   5.750  17.919  0.00  0.00    +0.000 NA
ATOM     14  C   UNL     1       2.842   5.666  19.125  0.00  0.00    +0.000 A 
ENDROOT
BRANCH   1  17
ATOM     15  O   UNL     1       1.442   8.770  21.424  0.00  0.00    +0.000 OA
ATOM     16  C   UNL     1       1.282   8.812  20.203  0.00  0.00    +0.000 C 
ATOM     17  N   UNL     1       1.605   7.785  19.351  0.00  0.00    +0.000 N 
ATOM     18  N   UNL     1       0.772   9.944  19.607  0.00  0.00    +0.000 N 
ATOM     19  C   UNL     1       0.578  11.161  20.377  0.00  0.00    +0.000 C 
ATOM     20  C   UNL     1      -0.694  11.756  19.817  0.00  0.00    +0.000 C 
ATOM     21  C   UNL     1      -0.627  11.385  18.337  0.00  0.00    +0.000 C 
ATOM     22  C   UNL     1       0.090  10.024  18.323  0.00  0.00    +0.000 C 
ATOM     23  H   UNL     1       1.830   7.998  18.389  0.00  0.00    +0.000 HD
BRANCH  21  24
ATOM     24  O   UNL     1      -1.928  11.326  17.774  0.00  0.00    +0.000 OA
ATOM     25  H   UNL     1      -2.515  10.880  18.408  0.00  0.00    +0.000 HD
ENDBRANCH  21  24
ENDBRANCH   1  17
BRANCH  12  26
ATOM     26  C   UNL     1       6.689   6.438  17.083  0.00  0.00    +0.000 A 
ATOM     27  C   UNL     1       7.163   5.516  18.029  0.00  0.00    +0.000 A 
ATOM     28  C   UNL     1       8.066   5.913  19.011  0.00  0.00    +0.000 A 
ATOM     29  F   UNL     1       8.497   5.016  19.907  0.00  0.00    +0.000 F 
ATOM     30  C   UNL     1       8.522   7.222  19.083  0.00  0.00    +0.000 A 
ATOM     31  C   UNL     1       8.065   8.142  18.148  0.00  0.00    +0.000 A 
ATOM     32 CL   UNL     1       8.624   9.769  18.210  0.00  0.00    +0.000 Cl
ATOM     33  C   UNL     1       7.155   7.762  17.156  0.00  0.00    +0.000 A 
ENDBRANCH  12  26
TORSDOF 3
ENDMDL
MODEL 2
REMARK VINA RESULT:      -8.2      1.282      1.544
REMARK  Name = 
REMARK  3 active torsions:
REMARK  status: ('A' for Active; 'I' for Inactive)
REMARK    1  A    between atoms: N_3  and  C_4
REMARK    2  A    between atoms: C_15  and  C_16
REMARK    3  A    between atoms: C_29  and  O_30
REMARK                            x       y       z     vdW  Elec       q    Type
REMARK                         _______ _______ _______ _____ _____    ______ ____
ROOT
ATOM      1  C   UNL     1       2.064   6.525  19.836  0.00  0.00    +0.000 A 
ATOM      2  C   UNL     1       1.836   5.908  21.084  0.00  0.00    +0.000 A 
ATOM      3  N   UNL     1       2.396   4.705  21.184  0.00  0.00    +0.000 NA
ATOM      4  N   UNL     1       3.023   4.538  19.998  0.00  0.00    +0.000 N 
ATOM      5  C   UNL     1       3.746   3.428  19.595  0.00  0.00    +0.000 A 
ATOM      6  C   UNL     1       4.330   3.411  18.395  0.00  0.00    +0.000 A 
ATOM      7  C   UNL     1       4.232   4.668  17.567  0.00  0.00    +0.000 A 
ATOM      8  N   UNL     1       5.005   4.716  16.425  0.00  0.00    +0.000 N 
ATOM      9  C   UNL     1       4.976   3.719  15.370  0.00  0.00    +0.000 C 
ATOM     10  C   UNL     1       6.280   3.973  14.633  0.00  0.00    +0.000 C 
ATOM     11  C   UNL     1       6.399   5.495  14.667  0.00  0.00    +0.000 C 
ATOM     12  C   UNL     1       5.703   5.922  15.978  0.00  0.00    +0.000 C 
ATOM     13  N   UNL     1       3.516   5.709  17.931  0.00  0.00    +0.000 NA
ATOM     14  C   UNL     1       2.875   5.640  19.149  0.00  0.00    +0.000 A 
ENDROOT
BRANCH   1  17
ATOM     15  O   UNL     1       1.464   8.766  21.414  0.00  0.00    +0.000 OA
ATOM     16  C   UNL     1       1.290   8.785  20.194  0.00  0.00    +0.000 C 
ATOM     17  N   UNL     1       1.617   7.749  19.356  0.00  0.00    +0.000 N 
ATOM     18  N   UNL     1       0.759   9.901  19.586  0.00  0.00    +0.000 N 
ATOM     19  C   UNL     1       0.557  11.127  20.337  0.00  0.00    +0.000 C 
ATOM     20  C   UNL     1      -0.729  11.697  19.782  0.00  0.00    +0.000 C 
ATOM     21  C   UNL     1      -0.673  11.301  18.308  0.00  0.00    +0.000 C 
ATOM     22  C   UNL     1       0.061   9.950  18.308  0.00  0.00    +0.000 C 
ATOM     23  H   UNL     1       1.829   7.949  18.388  0.00  0.00    +0.000 HD
BRANCH  21  24
ATOM     24  O   UNL     1      -1.980  11.216  17.760  0.00  0.00    +0.000 OA
ATOM     25  H   UNL     1      -2.043  10.391  17.249  0.00  0.00    +0.000 HD
ENDBRANCH  21  24
ENDBRANCH   1  17
BRANCH  12  26
ATOM     26  C   UNL     1       6.680   6.417  17.031  0.00  0.00    +0.000 A 
ATOM     27  C   UNL     1       7.128   7.746  16.985  0.00  0.00    +0.000 A 
ATOM     28  C   UNL     1       8.004   8.229  17.954  0.00  0.00    +0.000 A 
ATOM     29  F   UNL     1       8.423   9.499  17.883  0.00  0.00    +0.000 F 
ATOM     30  C   UNL     1       8.456   7.418  18.985  0.00  0.00    +0.000 A 
ATOM     31  C   UNL     1       8.014   6.103  19.045  0.00  0.00    +0.000 A 
ATOM     32 CL   UNL     1       8.552   5.079  20.320  0.00  0.00    +0.000 Cl
ATOM     33  C   UNL     1       7.136   5.599  18.079  0.00  0.00    +0.000 A 
ENDBRANCH  12  26
TORSDOF 3
ENDMDL
MODEL 3
REMARK VINA RESULT:      -7.5      7.066      9.484
REMARK  Name = 
REMARK  3 active torsions:
REMARK  status: ('A' for Active; 'I' for Inactive)
REMARK    1  A    between atoms: N_3  and  C_4
REMARK    2  A    between atoms: C_15  and  C_16
REMARK    3  A    between atoms: C_29  and  O_30
REMARK                            x       y       z     vdW  Elec       q    Type
REMARK                         _______ _______ _______ _____ _____    ______ ____
ROOT
ATOM      1  C   UNL     1      -4.916  12.174  19.726  0.00  0.00    +0.000 A 
ATOM      2  C   UNL     1      -5.688  11.307  18.924  0.00  0.00    +0.000 A 
ATOM      3  N   UNL     1      -5.019  10.823  17.881  0.00  0.00    +0.000 NA
ATOM      4  N   UNL     1      -3.783  11.355  18.012  0.00  0.00    +0.000 N 
ATOM      5  C   UNL     1      -2.709  11.169  17.157  0.00  0.00    +0.000 A 
ATOM      6  C   UNL     1      -1.535  11.746  17.424  0.00  0.00    +0.000 A 
ATOM      7  C   UNL     1      -1.429  12.517  18.715  0.00  0.00    +0.000 A 
ATOM      8  N   UNL     1      -0.166  12.935  19.081  0.00  0.00    +0.000 N 
ATOM      9  C   UNL     1       0.712  13.730  18.242  0.00  0.00    +0.000 C 
ATOM     10  C   UNL     1       2.073  13.512  18.881  0.00  0.00    +0.000 C 
ATOM     11  C   UNL     1       1.750  13.487  20.372  0.00  0.00    +0.000 C 
ATOM     12  C   UNL     1       0.320  12.912  20.462  0.00  0.00    +0.000 C 
ATOM     13  N   UNL     1      -2.456  12.726  19.509  0.00  0.00    +0.000 NA
ATOM     14  C   UNL     1      -3.661  12.167  19.145  0.00  0.00    +0.000 A 
ENDROOT
BRANCH   1  17
ATOM     15  O   UNL     1      -5.990  14.766  19.745  0.00  0.00    +0.000 OA
ATOM     16  C   UNL     1      -5.743  14.175  20.798  0.00  0.00    +0.000 C 
ATOM     17  N   UNL     1      -5.274  12.887  20.863  0.00  0.00    +0.000 N 
ATOM     18  N   UNL     1      -5.955  14.795  22.009  0.00  0.00    +0.000 N 
ATOM     19  C   UNL     1      -6.630  16.080  22.074  0.00  0.00    +0.000 C 
ATOM     20  C   UNL     1      -5.922  16.817  23.188  0.00  0.00    +0.000 C 
ATOM     21  C   UNL     1      -5.573  15.702  24.172  0.00  0.00    +0.000 C 
ATOM     22  C   UNL     1      -5.312  14.478  23.278  0.00  0.00    +0.000 C 
ATOM     23  H   UNL     1      -5.465  12.336  21.689  0.00  0.00    +0.000 HD
BRANCH  21  24
ATOM     24  O   UNL     1      -4.446  16.058  24.957  0.00  0.00    +0.000 OA
ATOM     25  H   UNL     1      -4.565  16.973  25.265  0.00  0.00    +0.000 HD
ENDBRANCH  21  24
ENDBRANCH   1  17
BRANCH  12  26
ATOM     26  C   UNL     1       0.282  11.506  21.037  0.00  0.00    +0.000 A 
ATOM     27  C   UNL     1      -0.506  11.244  22.168  0.00  0.00    +0.000 A 
ATOM     28  C   UNL     1      -0.574   9.959  22.699  0.00  0.00    +0.000 A 
ATOM     29  F   UNL     1      -1.327   9.737  23.783  0.00  0.00    +0.000 F 
ATOM     30  C   UNL     1       0.128   8.906  22.128  0.00  0.00    +0.000 A 
ATOM     31  C   UNL     1       0.906   9.152  21.004  0.00  0.00    +0.000 A 
ATOM     32 CL   UNL     1       1.778   7.861  20.272  0.00  0.00    +0.000 Cl
ATOM     33  C   UNL     1       0.989  10.438  20.459  0.00  0.00    +0.000 A 
ENDBRANCH  12  26
TORSDOF 3
ENDMDL
MODEL 4
REMARK VINA RESULT:      -7.5      6.142      8.992
REMARK  Name = 
REMARK  3 active torsions:
REMARK  status: ('A' for Active; 'I' for Inactive)
REMARK    1  A    between atoms: N_3  and  C_4
REMARK    2  A    between atoms: C_15  and  C_16
REMARK    3  A    between atoms: C_29  and  O_30
REMARK                            x       y       z     vdW  Elec       q    Type
REMARK                         _______ _______ _______ _____ _____    ______ ____
ROOT
ATOM      1  C   UNL     1       0.255  15.026  21.291  0.00  0.00    +0.000 A 
ATOM      2  C   UNL     1       0.009  15.359  22.639  0.00  0.00    +0.000 A 
ATOM      3  N   UNL     1      -1.073  14.766  23.137  0.00  0.00    +0.000 NA
ATOM      4  N   UNL     1      -1.532  14.012  22.112  0.00  0.00    +0.000 N 
ATOM      5  C   UNL     1      -2.659  13.208  22.118  0.00  0.00    +0.000 A 
ATOM      6  C   UNL     1      -2.981  12.501  21.033  0.00  0.00    +0.000 A 
ATOM      7  C   UNL     1      -2.026  12.561  19.868  0.00  0.00    +0.000 A 
ATOM      8  N   UNL     1      -2.255  11.675  18.835  0.00  0.00    +0.000 N 
ATOM      9  C   UNL     1      -3.513  11.555  18.121  0.00  0.00    +0.000 C 
ATOM     10  C   UNL     1      -3.394  10.191  17.461  0.00  0.00    +0.000 C 
ATOM     11  C   UNL     1      -1.923  10.136  17.057  0.00  0.00    +0.000 C 
ATOM     12  C   UNL     1      -1.185  10.981  18.118  0.00  0.00    +0.000 C 
ATOM     13  N   UNL     1      -0.975  13.351  19.846  0.00  0.00    +0.000 NA
ATOM     14  C   UNL     1      -0.733  14.114  20.968  0.00  0.00    +0.000 A 
ENDROOT
BRANCH   1  17
ATOM     15  O   UNL     1       2.440  13.496  20.422  0.00  0.00    +0.000 OA
ATOM     16  C   UNL     1       2.326  14.679  20.097  0.00  0.00    +0.000 C 
ATOM     17  N   UNL     1       1.256  15.468  20.435  0.00  0.00    +0.000 N 
ATOM     18  N   UNL     1       3.296  15.285  19.329  0.00  0.00    +0.000 N 
ATOM     19  C   UNL     1       4.373  14.504  18.747  0.00  0.00    +0.000 C 
ATOM     20  C   UNL     1       5.578  15.413  18.829  0.00  0.00    +0.000 C 
ATOM     21  C   UNL     1       4.979  16.801  18.612  0.00  0.00    +0.000 C 
ATOM     22  C   UNL     1       3.581  16.711  19.248  0.00  0.00    +0.000 C 
ATOM     23  H   UNL     1       1.018  16.253  19.844  0.00  0.00    +0.000 HD
BRANCH  21  24
ATOM     24  O   UNL     1       5.791  17.799  19.210  0.00  0.00    +0.000 OA
ATOM     25  H   UNL     1       5.765  17.676  20.174  0.00  0.00    +0.000 HD
ENDBRANCH  21  24
ENDBRANCH   1  17
BRANCH  12  26
ATOM     26  C   UNL     1      -0.342  10.141  19.062  0.00  0.00    +0.000 A 
ATOM     27  C   UNL     1       0.769   9.445  18.561  0.00  0.00    +0.000 A 
ATOM     28  C   UNL     1       1.570   8.688  19.412  0.00  0.00    +0.000 A 
ATOM     29  F   UNL     1       2.620   8.027  18.908  0.00  0.00    +0.000 F 
ATOM     30  C   UNL     1       1.296   8.600  20.770  0.00  0.00    +0.000 A 
ATOM     31  C   UNL     1       0.203   9.290  21.278  0.00  0.00    +0.000 A 
ATOM     32 CL   UNL     1      -0.151   9.205  22.961  0.00  0.00    +0.000 Cl
ATOM     33  C   UNL     1      -0.615  10.053  20.438  0.00  0.00    +0.000 A 
ENDBRANCH  12  26
TORSDOF 3
ENDMDL
MODEL 5
REMARK VINA RESULT:      -7.4      6.376      9.089
REMARK  Name = 
REMARK  3 active torsions:
REMARK  status: ('A' for Active; 'I' for Inactive)
REMARK    1  A    between atoms: N_3  and  C_4
REMARK    2  A    between atoms: C_15  and  C_16
REMARK    3  A    between atoms: C_29  and  O_30
REMARK                            x       y       z     vdW  Elec       q    Type
REMARK                         _______ _______ _______ _____ _____    ______ ____
ROOT
ATOM      1  C   UNL     1      -0.116  15.021  21.753  0.00  0.00    +0.000 A 
ATOM      2  C   UNL     1      -0.515  15.356  23.065  0.00  0.00    +0.000 A 
ATOM      3  N   UNL     1      -1.627  14.734  23.449  0.00  0.00    +0.000 NA
ATOM      4  N   UNL     1      -1.950  13.959  22.388  0.00  0.00    +0.000 N 
ATOM      5  C   UNL     1      -3.048  13.122  22.282  0.00  0.00    +0.000 A 
ATOM      6  C   UNL     1      -3.230  12.398  21.175  0.00  0.00    +0.000 A 
ATOM      7  C   UNL     1      -2.157  12.479  20.119  0.00  0.00    +0.000 A 
ATOM      8  N   UNL     1      -2.248  11.579  19.077  0.00  0.00    +0.000 N 
ATOM      9  C   UNL     1      -3.418  11.416  18.233  0.00  0.00    +0.000 C 
ATOM     10  C   UNL     1      -3.188  10.052  17.603  0.00  0.00    +0.000 C 
ATOM     11  C   UNL     1      -1.682  10.038  17.360  0.00  0.00    +0.000 C 
ATOM     12  C   UNL     1      -1.087  10.913  18.486  0.00  0.00    +0.000 C 
ATOM     13  N   UNL     1      -1.133  13.300  20.202  0.00  0.00    +0.000 NA
ATOM     14  C   UNL     1      -1.036  14.077  21.335  0.00  0.00    +0.000 A 
ENDROOT
BRANCH   1  17
ATOM     15  O   UNL     1      -0.308  16.634  19.466  0.00  0.00    +0.000 OA
ATOM     16  C   UNL     1       0.785  16.227  19.864  0.00  0.00    +0.000 C 
ATOM     17  N   UNL     1       0.958  15.487  21.006  0.00  0.00    +0.000 N 
ATOM     18  N   UNL     1       1.934  16.528  19.167  0.00  0.00    +0.000 N 
ATOM     19  C   UNL     1       1.903  17.465  18.058  0.00  0.00    +0.000 C 
ATOM     20  C   UNL     1       2.888  16.896  17.062  0.00  0.00    +0.000 C 
ATOM     21  C   UNL     1       3.962  16.278  17.955  0.00  0.00    +0.000 C 
ATOM     22  C   UNL     1       3.189  15.787  19.190  0.00  0.00    +0.000 C 
ATOM     23  H   UNL     1       1.847  15.524  21.485  0.00  0.00    +0.000 HD
BRANCH  21  24
ATOM     24  O   UNL     1       4.637  15.229  17.278  0.00  0.00    +0.000 OA
ATOM     25  H   UNL     1       5.145  15.616  16.544  0.00  0.00    +0.000 HD
ENDBRANCH  21  24
ENDBRANCH   1  17
BRANCH  12  26
ATOM     26  C   UNL     1      -0.327  10.105  19.524  0.00  0.00    +0.000 A 
ATOM     27  C   UNL     1       0.733   9.281  19.115  0.00  0.00    +0.000 A 
ATOM     28  C   UNL     1       1.460   8.549  20.051  0.00  0.00    +0.000 A 
ATOM     29  F   UNL     1       2.462   7.765  19.635  0.00  0.00    +0.000 F 
ATOM     30  C   UNL     1       1.160   8.613  21.404  0.00  0.00    +0.000 A 
ATOM     31  C   UNL     1       0.118   9.430  21.822  0.00  0.00    +0.000 A 
ATOM     32 CL   UNL     1      -0.266   9.535  23.496  0.00  0.00    +0.000 Cl
ATOM     33  C   UNL     1      -0.626  10.171  20.895  0.00  0.00    +0.000 A 
ENDBRANCH  12  26
TORSDOF 3
ENDMDL
MODEL 6
REMARK VINA RESULT:      -7.4      6.016      8.878
REMARK  Name = 
REMARK  3 active torsions:
REMARK  status: ('A' for Active; 'I' for Inactive)
REMARK    1  A    between atoms: N_3  and  C_4
REMARK    2  A    between atoms: C_15  and  C_16
REMARK    3  A    between atoms: C_29  and  O_30
REMARK                            x       y       z     vdW  Elec       q    Type
REMARK                         _______ _______ _______ _____ _____    ______ ____
ROOT
ATOM      1  C   UNL     1       0.541  14.862  21.321  0.00  0.00    +0.000 A 
ATOM      2  C   UNL     1       0.427  15.102  22.707  0.00  0.00    +0.000 A 
ATOM      3  N   UNL     1      -0.609  14.478  23.263  0.00  0.00    +0.000 NA
ATOM      4  N   UNL     1      -1.169  13.798  22.237  0.00  0.00    +0.000 N 
ATOM      5  C   UNL     1      -2.299  12.999  22.295  0.00  0.00    +0.000 A 
ATOM      6  C   UNL     1      -2.728  12.369  21.199  0.00  0.00    +0.000 A 
ATOM      7  C   UNL     1      -1.886  12.507  19.956  0.00  0.00    +0.000 A 
ATOM      8  N   UNL     1      -2.221  11.695  18.892  0.00  0.00    +0.000 N 
ATOM      9  C   UNL     1      -3.542  11.627  18.293  0.00  0.00    +0.000 C 
ATOM     10  C   UNL     1      -3.497  10.312  17.533  0.00  0.00    +0.000 C 
ATOM     11  C   UNL     1      -2.072  10.281  16.989  0.00  0.00    +0.000 C 
ATOM     12  C   UNL     1      -1.229  11.049  18.031  0.00  0.00    +0.000 C 
ATOM     13  N   UNL     1      -0.835  13.294  19.888  0.00  0.00    +0.000 NA
ATOM     14  C   UNL     1      -0.482  13.976  21.032  0.00  0.00    +0.000 A 
ENDROOT
BRANCH   1  17
ATOM     15  O   UNL     1       2.584  13.374  20.103  0.00  0.00    +0.000 OA
ATOM     16  C   UNL     1       2.470  14.584  19.893  0.00  0.00    +0.000 C 
ATOM     17  N   UNL     1       1.461  15.359  20.407  0.00  0.00    +0.000 N 
ATOM     18  N   UNL     1       3.371  15.237  19.082  0.00  0.00    +0.000 N 
ATOM     19  C   UNL     1       4.362  14.491  18.327  0.00  0.00    +0.000 C 
ATOM     20  C   UNL     1       5.593  15.367  18.360  0.00  0.00    +0.000 C 
ATOM     21  C   UNL     1       5.011  16.779  18.325  0.00  0.00    +0.000 C 
ATOM     22  C   UNL     1       3.685  16.659  19.093  0.00  0.00    +0.000 C 
ATOM     23  H   UNL     1       1.185  16.196  19.913  0.00  0.00    +0.000 HD
BRANCH  21  24
ATOM     24  O   UNL     1       5.907  17.707  18.918  0.00  0.00    +0.000 OA
ATOM     25  H   UNL     1       6.615  17.899  18.280  0.00  0.00    +0.000 HD
ENDBRANCH  21  24
ENDBRANCH   1  17
BRANCH  12  26
ATOM     26  C   UNL     1      -0.309  10.143  18.831  0.00  0.00    +0.000 A 
ATOM     27  C   UNL     1      -0.584   9.904  20.186  0.00  0.00    +0.000 A 
ATOM     28  C   UNL     1       0.232   9.059  20.934  0.00  0.00    +0.000 A 
ATOM     29  F   UNL     1      -0.047   8.853  22.227  0.00  0.00    +0.000 F 
ATOM     30  C   UNL     1       1.332   8.432  20.365  0.00  0.00    +0.000 A 
ATOM     31  C   UNL     1       1.610   8.655  19.023  0.00  0.00    +0.000 A 
ATOM     32 CL   UNL     1       2.962   7.880  18.292  0.00  0.00    +0.000 Cl
ATOM     33  C   UNL     1       0.803   9.504  18.257  0.00  0.00    +0.000 A 
ENDBRANCH  12  26
TORSDOF 3
ENDMDL
MODEL 7
REMARK VINA RESULT:      -7.3      1.213      1.325
REMARK  Name = 
REMARK  3 active torsions:
REMARK  status: ('A' for Active; 'I' for Inactive)
REMARK    1  A    between atoms: N_3  and  C_4
REMARK    2  A    between atoms: C_15  and  C_16
REMARK    3  A    between atoms: C_29  and  O_30
REMARK                            x       y       z     vdW  Elec       q    Type
REMARK                         _______ _______ _______ _____ _____    ______ ____
ROOT
ATOM      1  C   UNL     1       2.072   5.744  19.951  0.00  0.00    +0.000 A 
ATOM      2  C   UNL     1       1.954   5.035  21.166  0.00  0.00    +0.000 A 
ATOM      3  N   UNL     1       2.632   3.890  21.172  0.00  0.00    +0.000 NA
ATOM      4  N   UNL     1       3.225   3.856  19.957  0.00  0.00    +0.000 N 
ATOM      5  C   UNL     1       4.035   2.847  19.463  0.00  0.00    +0.000 A 
ATOM      6  C   UNL     1       4.571   2.958  18.245  0.00  0.00    +0.000 A 
ATOM      7  C   UNL     1       4.319   4.245  17.500  0.00  0.00    +0.000 A 
ATOM      8  N   UNL     1       5.038   4.436  16.339  0.00  0.00    +0.000 N 
ATOM      9  C   UNL     1       5.064   3.504  15.226  0.00  0.00    +0.000 C 
ATOM     10  C   UNL     1       6.308   3.929  14.463  0.00  0.00    +0.000 C 
ATOM     11  C   UNL     1       6.280   5.450  14.586  0.00  0.00    +0.000 C 
ATOM     12  C   UNL     1       5.599   5.729  15.944  0.00  0.00    +0.000 C 
ATOM     13  N   UNL     1       3.521   5.187  17.952  0.00  0.00    +0.000 NA
ATOM     14  C   UNL     1       2.937   4.985  19.184  0.00  0.00    +0.000 A 
ENDROOT
BRANCH   1  17
ATOM     15  O   UNL     1       3.368   7.796  18.543  0.00  0.00    +0.000 OA
ATOM     16  C   UNL     1       2.203   7.926  18.924  0.00  0.00    +0.000 C 
ATOM     17  N   UNL     1       1.490   6.944  19.563  0.00  0.00    +0.000 N 
ATOM     18  N   UNL     1       1.526   9.104  18.696  0.00  0.00    +0.000 N 
ATOM     19  C   UNL     1       2.105  10.140  17.860  0.00  0.00    +0.000 C 
ATOM     20  C   UNL     1       1.684  11.432  18.523  0.00  0.00    +0.000 C 
ATOM     21  C   UNL     1       0.297  11.102  19.071  0.00  0.00    +0.000 C 
ATOM     22  C   UNL     1       0.384   9.613  19.444  0.00  0.00    +0.000 C 
ATOM     23  H   UNL     1       0.482   6.944  19.493  0.00  0.00    +0.000 HD
BRANCH  21  24
ATOM     24  O   UNL     1      -0.015  11.929  20.182  0.00  0.00    +0.000 OA
ATOM     25  H   UNL     1      -0.699  12.563  19.908  0.00  0.00    +0.000 HD
ENDBRANCH  21  24
ENDBRANCH   1  17
BRANCH  12  26
ATOM     26  C   UNL     1       6.563   6.257  16.992  0.00  0.00    +0.000 A 
ATOM     27  C   UNL     1       7.101   5.373  17.940  0.00  0.00    +0.000 A 
ATOM     28  C   UNL     1       8.006   5.829  18.897  0.00  0.00    +0.000 A 
ATOM     29  F   UNL     1       8.499   4.968  19.795  0.00  0.00    +0.000 F 
ATOM     30  C   UNL     1       8.399   7.159  18.938  0.00  0.00    +0.000 A 
ATOM     31  C   UNL     1       7.878   8.042  18.001  0.00  0.00    +0.000 A 
ATOM     32 CL   UNL     1       8.359   9.694  18.026  0.00  0.00    +0.000 Cl
ATOM     33  C   UNL     1       6.966   7.602  17.035  0.00  0.00    +0.000 A 
ENDBRANCH  12  26
TORSDOF 3
ENDMDL
MODEL 8
REMARK VINA RESULT:      -7.3      8.541     11.902
REMARK  Name = 
REMARK  3 active torsions:
REMARK  status: ('A' for Active; 'I' for Inactive)
REMARK    1  A    between atoms: N_3  and  C_4
REMARK    2  A    between atoms: C_15  and  C_16
REMARK    3  A    between atoms: C_29  and  O_30
REMARK                            x       y       z     vdW  Elec       q    Type
REMARK                         _______ _______ _______ _____ _____    ______ ____
ROOT
ATOM      1  C   UNL     1      -0.258  13.133  20.632  0.00  0.00    +0.000 A 
ATOM      2  C   UNL     1       0.588  12.050  20.950  0.00  0.00    +0.000 A 
ATOM      3  N   UNL     1       0.123  11.296  21.943  0.00  0.00    +0.000 NA
ATOM      4  N   UNL     1      -1.056  11.874  22.267  0.00  0.00    +0.000 N 
ATOM      5  C   UNL     1      -1.926  11.471  23.265  0.00  0.00    +0.000 A 
ATOM      6  C   UNL     1      -3.071  12.130  23.459  0.00  0.00    +0.000 A 
ATOM      7  C   UNL     1      -3.388  13.249  22.500  0.00  0.00    +0.000 A 
ATOM      8  N   UNL     1      -4.656  13.787  22.579  0.00  0.00    +0.000 N 
ATOM      9  C   UNL     1      -5.248  14.322  23.792  0.00  0.00    +0.000 C 
ATOM     10  C   UNL     1      -6.731  14.335  23.462  0.00  0.00    +0.000 C 
ATOM     11  C   UNL     1      -6.750  14.742  21.991  0.00  0.00    +0.000 C 
ATOM     12  C   UNL     1      -5.435  14.184  21.405  0.00  0.00    +0.000 C 
ATOM     13  N   UNL     1      -2.547  13.658  21.576  0.00  0.00    +0.000 NA
ATOM     14  C   UNL     1      -1.349  12.986  21.470  0.00  0.00    +0.000 A 
ENDROOT
BRANCH   1  17
ATOM     15  O   UNL     1       1.391  15.383  20.929  0.00  0.00    +0.000 OA
ATOM     16  C   UNL     1       0.687  15.242  19.927  0.00  0.00    +0.000 C 
ATOM     17  N   UNL     1      -0.095  14.140  19.689  0.00  0.00    +0.000 N 
ATOM     18  N   UNL     1       0.670  16.210  18.948  0.00  0.00    +0.000 N 
ATOM     19  C   UNL     1       1.601  17.324  18.992  0.00  0.00    +0.000 C 
ATOM     20  C   UNL     1       0.801  18.499  18.478  0.00  0.00    +0.000 C 
ATOM     21  C   UNL     1      -0.111  17.863  17.430  0.00  0.00    +0.000 C 
ATOM     22  C   UNL     1      -0.391  16.455  17.980  0.00  0.00    +0.000 C 
ATOM     23  H   UNL     1      -0.318  13.893  18.734  0.00  0.00    +0.000 HD
BRANCH  21  24
ATOM     24  O   UNL     1      -1.292  18.631  17.259  0.00  0.00    +0.000 OA
ATOM     25  H   UNL     1      -1.167  19.487  17.703  0.00  0.00    +0.000 HD
ENDBRANCH  21  24
ENDBRANCH   1  17
BRANCH  12  26
ATOM     26  C   UNL     1      -5.657  13.009  20.467  0.00  0.00    +0.000 A 
ATOM     27  C   UNL     1      -5.036  13.005  19.209  0.00  0.00    +0.000 A 
ATOM     28  C   UNL     1      -5.206  11.928  18.342  0.00  0.00    +0.000 A 
ATOM     29  F   UNL     1      -4.609  11.952  17.143  0.00  0.00    +0.000 F 
ATOM     30  C   UNL     1      -5.986  10.837  18.694  0.00  0.00    +0.000 A 
ATOM     31  C   UNL     1      -6.600  10.827  19.940  0.00  0.00    +0.000 A 
ATOM     32 CL   UNL     1      -7.565   9.479  20.405  0.00  0.00    +0.000 Cl
ATOM     33  C   UNL     1      -6.444  11.901  20.823  0.00  0.00    +0.000 A 
ENDBRANCH  12  26
TORSDOF 3
ENDMDL
MODEL 9
REMARK VINA RESULT:      -7.3      8.065     11.479
REMARK  Name = 
REMARK  3 active torsions:
REMARK  status: ('A' for Active; 'I' for Inactive)
REMARK    1  A    between atoms: N_3  and  C_4
REMARK    2  A    between atoms: C_15  and  C_16
REMARK    3  A    between atoms: C_29  and  O_30
REMARK                            x       y       z     vdW  Elec       q    Type
REMARK                         _______ _______ _______ _____ _____    ______ ____
ROOT
ATOM      1  C   UNL     1       0.216  12.944  20.488  0.00  0.00    +0.000 A 
ATOM      2  C   UNL     1       1.077  11.839  20.657  0.00  0.00    +0.000 A 
ATOM      3  N   UNL     1       0.664  10.992  21.597  0.00  0.00    +0.000 NA
ATOM      4  N   UNL     1      -0.496  11.531  22.034  0.00  0.00    +0.000 N 
ATOM      5  C   UNL     1      -1.314  11.030  23.034  0.00  0.00    +0.000 A 
ATOM      6  C   UNL     1      -2.447  11.663  23.348  0.00  0.00    +0.000 A 
ATOM      7  C   UNL     1      -2.812  12.867  22.518  0.00  0.00    +0.000 A 
ATOM      8  N   UNL     1      -4.074  13.390  22.712  0.00  0.00    +0.000 N 
ATOM      9  C   UNL     1      -4.603  13.804  24.000  0.00  0.00    +0.000 C 
ATOM     10  C   UNL     1      -6.101  13.842  23.750  0.00  0.00    +0.000 C 
ATOM     11  C   UNL     1      -6.196  14.387  22.327  0.00  0.00    +0.000 C 
ATOM     12  C   UNL     1      -4.913  13.893  21.623  0.00  0.00    +0.000 C 
ATOM     13  N   UNL     1      -2.020  13.366  21.594  0.00  0.00    +0.000 NA
ATOM     14  C   UNL     1      -0.829  12.713  21.363  0.00  0.00    +0.000 A 
ENDROOT
BRANCH   1  17
ATOM     15  O   UNL     1       1.701  15.264  21.020  0.00  0.00    +0.000 OA
ATOM     16  C   UNL     1       1.031  15.163  19.990  0.00  0.00    +0.000 C 
ATOM     17  N   UNL     1       0.331  14.037  19.639  0.00  0.00    +0.000 N 
ATOM     18  N   UNL     1       0.969  16.208  19.096  0.00  0.00    +0.000 N 
ATOM     19  C   UNL     1       1.821  17.373  19.260  0.00  0.00    +0.000 C 
ATOM     20  C   UNL     1       0.954  18.533  18.825  0.00  0.00    +0.000 C 
ATOM     21  C   UNL     1       0.111  17.931  17.702  0.00  0.00    +0.000 C 
ATOM     22  C   UNL     1      -0.085  16.465  18.124  0.00  0.00    +0.000 C 
ATOM     23  H   UNL     1       0.147  13.858  18.661  0.00  0.00    +0.000 HD
BRANCH  21  24
ATOM     24  O   UNL     1      -1.116  18.630  17.563  0.00  0.00    +0.000 OA
ATOM     25  H   UNL     1      -0.953  19.431  17.036  0.00  0.00    +0.000 HD
ENDBRANCH  21  24
ENDBRANCH   1  17
BRANCH  12  26
ATOM     26  C   UNL     1      -5.183  12.812  20.591  0.00  0.00    +0.000 A 
ATOM     27  C   UNL     1      -6.268  11.940  20.773  0.00  0.00    +0.000 A 
ATOM     28  C   UNL     1      -6.550  10.957  19.828  0.00  0.00    +0.000 A 
ATOM     29  F   UNL     1      -7.586  10.133  20.029  0.00  0.00    +0.000 F 
ATOM     30  C   UNL     1      -5.774  10.813  18.687  0.00  0.00    +0.000 A 
ATOM     31  C   UNL     1      -4.702  11.674  18.492  0.00  0.00    +0.000 A 
ATOM     32 CL   UNL     1      -3.731  11.521  17.079  0.00  0.00    +0.000 Cl
ATOM     33  C   UNL     1      -4.402  12.666  19.432  0.00  0.00    +0.000 A 
ENDBRANCH  12  26
TORSDOF 3
ENDMDL
