MODEL 1
REMARK VINA RESULT:      -7.9      0.000      0.000
REMARK  Name = 
REMARK  7 active torsions:
REMARK  status: ('A' for Active; 'I' for Inactive)
REMARK    1  A    between atoms: C_1  and  C_2
REMARK    2  A    between atoms: C_2  and  C_3
REMARK    3  A    between atoms: C_2  and  C_4
REMARK    4  A    between atoms: C_6  and  C_7
REMARK    5  A    between atoms: C_12  and  C_14
REMARK    6  A    between atoms: C_18  and  C_19
REMARK    7  A    between atoms: C_24  and  C_25
REMARK                            x       y       z     vdW  Elec       q    Type
REMARK                         _______ _______ _______ _____ _____    ______ ____
ROOT
ATOM      1  C   UNL     1       4.940   4.121  18.791  0.00  0.00    +0.000 A 
ATOM      2  C   UNL     1       5.618   4.773  19.822  0.00  0.00    +0.000 A 
ATOM      3  N   UNL     1       6.286   5.843  19.424  0.00  0.00    +0.000 NA
ATOM      4  N   UNL     1       6.245   5.781  18.081  0.00  0.00    +0.000 N 
ATOM      5  C   UNL     1       6.974   6.542  17.190  0.00  0.00    +0.000 A 
ATOM      6  C   UNL     1       6.945   6.234  15.878  0.00  0.00    +0.000 A 
ATOM      7  C   UNL     1       6.108   5.055  15.465  0.00  0.00    +0.000 A 
ATOM      8  N   UNL     1       5.341   4.407  16.304  0.00  0.00    +0.000 NA
ATOM      9  C   UNL     1       5.428   4.732  17.639  0.00  0.00    +0.000 A 
ENDROOT
BRANCH   1  15
ATOM     10  C   UNL     1       1.735   3.953  18.665  0.00  0.00    +0.000 C 
ATOM     11  C   UNL     1       0.449   3.313  19.213  0.00  0.00    +0.000 C 
ATOM     12  C   UNL     1       0.665   1.821  19.025  0.00  0.00    +0.000 C 
ATOM     13  C   UNL     1       2.165   1.646  19.185  0.00  0.00    +0.000 C 
ATOM     14  N   UNL     1       2.774   2.975  19.105  0.00  0.00    +0.000 N 
ATOM     15  C   UNL     1       4.159   2.912  18.875  0.00  0.00    +0.000 C 
ATOM     16  O   UNL     1       4.730   1.819  18.855  0.00  0.00    +0.000 OA
BRANCH  10  19
ATOM     17  C   UNL     1       1.964   7.656  19.194  0.00  0.00    +0.000 A 
ATOM     18  C   UNL     1       2.044   6.622  18.275  0.00  0.00    +0.000 A 
ATOM     19  C   UNL     1       1.836   5.418  19.039  0.00  0.00    +0.000 A 
ATOM     20  N   UNL     1       1.805   5.725  20.345  0.00  0.00    +0.000 NA
ATOM     21  O   UNL     1       1.855   7.093  20.434  0.00  0.00    +0.000 OA
BRANCH  17  23
ATOM     22  C   UNL     1       1.922   9.874  17.865  0.00  0.00    +0.000 C 
ATOM     23  C   UNL     1       1.906   9.163  19.218  0.00  0.00    +0.000 C 
ATOM     24  C   UNL     1       0.699   9.653  20.029  0.00  0.00    +0.000 C 
ENDBRANCH  17  23
ENDBRANCH  10  19
ENDBRANCH   1  15
BRANCH   7  25
ATOM     25  C   UNL     1       6.228   4.561  14.035  0.00  0.00    +0.000 A 
ATOM     26  C   UNL     1       7.344   4.828  13.226  0.00  0.00    +0.000 A 
ATOM     27  C   UNL     1       7.481   4.237  11.963  0.00  0.00    +0.000 A 
ATOM     28  C   UNL     1       6.504   3.383  11.477  0.00  0.00    +0.000 A 
ATOM     29  C   UNL     1       5.364   3.137  12.243  0.00  0.00    +0.000 A 
ATOM     30  C   UNL     1       5.231   3.727  13.512  0.00  0.00    +0.000 A 
ENDBRANCH   7  25
BRANCH   5  31
ATOM     31  C   UNL     1       7.825   7.626  17.743  0.00  0.00    +0.000 C 
ATOM     32  F   UNL     1       8.610   7.324  18.806  0.00  0.00    +0.000 F 
ATOM     33  F   UNL     1       8.671   8.098  16.784  0.00  0.00    +0.000 F 
ATOM     34  F   UNL     1       7.067   8.690  18.123  0.00  0.00    +0.000 F 
ENDBRANCH   5  31
TORSDOF 5
ENDMDL
MODEL 2
REMARK VINA RESULT:      -7.7      8.587     11.038
REMARK  Name = 
REMARK  7 active torsions:
REMARK  status: ('A' for Active; 'I' for Inactive)
REMARK    1  A    between atoms: C_1  and  C_2
REMARK    2  A    between atoms: C_2  and  C_3
REMARK    3  A    between atoms: C_2  and  C_4
REMARK    4  A    between atoms: C_6  and  C_7
REMARK    5  A    between atoms: C_12  and  C_14
REMARK    6  A    between atoms: C_18  and  C_19
REMARK    7  A    between atoms: C_24  and  C_25
REMARK                            x       y       z     vdW  Elec       q    Type
REMARK                         _______ _______ _______ _____ _____    ______ ____
ROOT
ATOM      1  C   UNL     1       1.563  13.685  19.571  0.00  0.00    +0.000 A 
ATOM      2  C   UNL     1       2.199  13.381  20.776  0.00  0.00    +0.000 A 
ATOM      3  N   UNL     1       1.938  12.163  21.221  0.00  0.00    +0.000 NA
ATOM      4  N   UNL     1       0.941  11.726  20.431  0.00  0.00    +0.000 N 
ATOM      5  C   UNL     1       0.163  10.601  20.617  0.00  0.00    +0.000 A 
ATOM      6  C   UNL     1      -0.909  10.399  19.827  0.00  0.00    +0.000 A 
ATOM      7  C   UNL     1      -1.197  11.438  18.778  0.00  0.00    +0.000 A 
ATOM      8  N   UNL     1      -0.395  12.445  18.543  0.00  0.00    +0.000 NA
ATOM      9  C   UNL     1       0.670  12.632  19.396  0.00  0.00    +0.000 A 
ENDROOT
BRANCH   1  15
ATOM     10  C   UNL     1      -0.137  16.319  20.272  0.00  0.00    +0.000 C 
ATOM     11  C   UNL     1      -0.962  17.505  19.749  0.00  0.00    +0.000 C 
ATOM     12  C   UNL     1      -0.031  18.206  18.775  0.00  0.00    +0.000 C 
ATOM     13  C   UNL     1       0.812  17.082  18.200  0.00  0.00    +0.000 C 
ATOM     14  N   UNL     1       0.615  15.906  19.050  0.00  0.00    +0.000 N 
ATOM     15  C   UNL     1       1.602  14.928  18.842  0.00  0.00    +0.000 C 
ATOM     16  O   UNL     1       2.445  15.084  17.955  0.00  0.00    +0.000 OA
BRANCH  10  19
ATOM     17  C   UNL     1      -2.472  13.819  21.802  0.00  0.00    +0.000 A 
ATOM     18  C   UNL     1      -2.242  14.666  20.731  0.00  0.00    +0.000 A 
ATOM     19  C   UNL     1      -0.997  15.327  21.029  0.00  0.00    +0.000 A 
ATOM     20  N   UNL     1      -0.616  15.005  22.275  0.00  0.00    +0.000 NA
ATOM     21  O   UNL     1      -1.504  14.064  22.733  0.00  0.00    +0.000 OA
BRANCH  17  23
ATOM     22  C   UNL     1      -3.366  12.255  23.658  0.00  0.00    +0.000 C 
ATOM     23  C   UNL     1      -3.412  12.707  22.200  0.00  0.00    +0.000 C 
ATOM     24  C   UNL     1      -4.859  13.052  21.826  0.00  0.00    +0.000 C 
ENDBRANCH  17  23
ENDBRANCH  10  19
ENDBRANCH   1  15
BRANCH   7  25
ATOM     25  C   UNL     1      -2.511  11.344  18.023  0.00  0.00    +0.000 A 
ATOM     26  C   UNL     1      -3.735  11.770  18.565  0.00  0.00    +0.000 A 
ATOM     27  C   UNL     1      -4.899  11.799  17.787  0.00  0.00    +0.000 A 
ATOM     28  C   UNL     1      -4.871  11.390  16.463  0.00  0.00    +0.000 A 
ATOM     29  C   UNL     1      -3.677  10.921  15.915  0.00  0.00    +0.000 A 
ATOM     30  C   UNL     1      -2.508  10.898  16.696  0.00  0.00    +0.000 A 
ENDBRANCH   7  25
BRANCH   5  31
ATOM     31  C   UNL     1       0.512   9.701  21.746  0.00  0.00    +0.000 C 
ATOM     32  F   UNL     1       1.820   9.388  21.914  0.00  0.00    +0.000 F 
ATOM     33  F   UNL     1       0.110  10.248  22.927  0.00  0.00    +0.000 F 
ATOM     34  F   UNL     1      -0.151   8.517  21.643  0.00  0.00    +0.000 F 
ENDBRANCH   5  31
TORSDOF 5
ENDMDL
MODEL 3
REMARK VINA RESULT:      -7.6      8.595     11.052
REMARK  Name = 
REMARK  7 active torsions:
REMARK  status: ('A' for Active; 'I' for Inactive)
REMARK    1  A    between atoms: C_1  and  C_2
REMARK    2  A    between atoms: C_2  and  C_3
REMARK    3  A    between atoms: C_2  and  C_4
REMARK    4  A    between atoms: C_6  and  C_7
REMARK    5  A    between atoms: C_12  and  C_14
REMARK    6  A    between atoms: C_18  and  C_19
REMARK    7  A    between atoms: C_24  and  C_25
REMARK                            x       y       z     vdW  Elec       q    Type
REMARK                         _______ _______ _______ _____ _____    ______ ____
ROOT
ATOM      1  C   UNL     1       1.648  13.666  19.573  0.00  0.00    +0.000 A 
ATOM      2  C   UNL     1       2.255  13.314  20.780  0.00  0.00    +0.000 A 
ATOM      3  N   UNL     1       1.937  12.101  21.199  0.00  0.00    +0.000 NA
ATOM      4  N   UNL     1       0.933  11.721  20.389  0.00  0.00    +0.000 N 
ATOM      5  C   UNL     1       0.106  10.627  20.545  0.00  0.00    +0.000 A 
ATOM      6  C   UNL     1      -0.965  10.485  19.738  0.00  0.00    +0.000 A 
ATOM      7  C   UNL     1      -1.194  11.554  18.705  0.00  0.00    +0.000 A 
ATOM      8  N   UNL     1      -0.348  12.530  18.499  0.00  0.00    +0.000 NA
ATOM      9  C   UNL     1       0.713  12.656  19.368  0.00  0.00    +0.000 A 
ENDROOT
BRANCH   1  15
ATOM     10  C   UNL     1       0.058  16.360  20.309  0.00  0.00    +0.000 C 
ATOM     11  C   UNL     1      -0.709  17.590  19.800  0.00  0.00    +0.000 C 
ATOM     12  C   UNL     1       0.262  18.268  18.848  0.00  0.00    +0.000 C 
ATOM     13  C   UNL     1       1.060  17.118  18.260  0.00  0.00    +0.000 C 
ATOM     14  N   UNL     1       0.803  15.937  19.085  0.00  0.00    +0.000 N 
ATOM     15  C   UNL     1       1.749  14.920  18.868  0.00  0.00    +0.000 C 
ATOM     16  O   UNL     1       2.606  15.055  17.992  0.00  0.00    +0.000 OA
BRANCH  10  19
ATOM     17  C   UNL     1      -2.374  13.906  21.760  0.00  0.00    +0.000 A 
ATOM     18  C   UNL     1      -2.067  14.709  20.674  0.00  0.00    +0.000 A 
ATOM     19  C   UNL     1      -0.852  15.393  21.039  0.00  0.00    +0.000 A 
ATOM     20  N   UNL     1      -0.567  15.127  22.323  0.00  0.00    +0.000 NA
ATOM     21  O   UNL     1      -1.482  14.199  22.751  0.00  0.00    +0.000 OA
BRANCH  17  23
ATOM     22  C   UNL     1      -3.197  12.212  23.533  0.00  0.00    +0.000 C 
ATOM     23  C   UNL     1      -3.335  12.803  22.131  0.00  0.00    +0.000 C 
ATOM     24  C   UNL     1      -4.788  13.245  21.912  0.00  0.00    +0.000 C 
ENDBRANCH  17  23
ENDBRANCH  10  19
ENDBRANCH   1  15
BRANCH   7  25
ATOM     25  C   UNL     1      -2.501  11.530  17.934  0.00  0.00    +0.000 A 
ATOM     26  C   UNL     1      -2.591  11.115  16.595  0.00  0.00    +0.000 A 
ATOM     27  C   UNL     1      -3.832  10.972  15.963  0.00  0.00    +0.000 A 
ATOM     28  C   UNL     1      -5.005  11.255  16.645  0.00  0.00    +0.000 A 
ATOM     29  C   UNL     1      -4.941  11.712  17.962  0.00  0.00    +0.000 A 
ATOM     30  C   UNL     1      -3.694  11.850  18.596  0.00  0.00    +0.000 A 
ENDBRANCH   7  25
BRANCH   5  31
ATOM     31  C   UNL     1       0.402   9.692  21.661  0.00  0.00    +0.000 C 
ATOM     32  F   UNL     1       0.288  10.170  22.923  0.00  0.00    +0.000 F 
ATOM     33  F   UNL     1      -0.426   8.610  21.601  0.00  0.00    +0.000 F 
ATOM     34  F   UNL     1       1.665   9.197  21.554  0.00  0.00    +0.000 F 
ENDBRANCH   5  31
TORSDOF 5
ENDMDL
MODEL 4
REMARK VINA RESULT:      -7.4      7.797     10.627
REMARK  Name = 
REMARK  7 active torsions:
REMARK  status: ('A' for Active; 'I' for Inactive)
REMARK    1  A    between atoms: C_1  and  C_2
REMARK    2  A    between atoms: C_2  and  C_3
REMARK    3  A    between atoms: C_2  and  C_4
REMARK    4  A    between atoms: C_6  and  C_7
REMARK    5  A    between atoms: C_12  and  C_14
REMARK    6  A    between atoms: C_18  and  C_19
REMARK    7  A    between atoms: C_24  and  C_25
REMARK                            x       y       z     vdW  Elec       q    Type
REMARK                         _______ _______ _______ _____ _____    ______ ____
ROOT
ATOM      1  C   UNL     1      -1.852  11.980  22.500  0.00  0.00    +0.000 A 
ATOM      2  C   UNL     1      -1.119  11.212  23.405  0.00  0.00    +0.000 A 
ATOM      3  N   UNL     1      -0.202  10.449  22.832  0.00  0.00    +0.000 NA
ATOM      4  N   UNL     1      -0.474  10.532  21.518  0.00  0.00    +0.000 N 
ATOM      5  C   UNL     1       0.053   9.752  20.508  0.00  0.00    +0.000 A 
ATOM      6  C   UNL     1      -0.455   9.848  19.263  0.00  0.00    +0.000 A 
ATOM      7  C   UNL     1      -1.590  10.812  19.056  0.00  0.00    +0.000 A 
ATOM      8  N   UNL     1      -2.012  11.619  19.995  0.00  0.00    +0.000 NA
ATOM      9  C   UNL     1      -1.489  11.464  21.259  0.00  0.00    +0.000 A 
ENDROOT
BRANCH   1  15
ATOM     10  C   UNL     1      -1.969  15.092  21.713  0.00  0.00    +0.000 C 
ATOM     11  C   UNL     1      -2.356  16.520  22.130  0.00  0.00    +0.000 C 
ATOM     12  C   UNL     1      -3.830  16.420  22.482  0.00  0.00    +0.000 C 
ATOM     13  C   UNL     1      -3.981  15.010  23.024  0.00  0.00    +0.000 C 
ATOM     14  N   UNL     1      -2.771  14.268  22.664  0.00  0.00    +0.000 N 
ATOM     15  C   UNL     1      -2.943  12.878  22.786  0.00  0.00    +0.000 C 
ATOM     16  O   UNL     1      -3.995  12.427  23.245  0.00  0.00    +0.000 OA
BRANCH  10  19
ATOM     17  C   UNL     1       1.704  14.719  21.065  0.00  0.00    +0.000 A 
ATOM     18  C   UNL     1       0.436  14.725  20.506  0.00  0.00    +0.000 A 
ATOM     19  C   UNL     1      -0.466  14.924  21.612  0.00  0.00    +0.000 A 
ATOM     20  N   UNL     1       0.226  14.869  22.760  0.00  0.00    +0.000 NA
ATOM     21  O   UNL     1       1.553  14.772  22.421  0.00  0.00    +0.000 OA
BRANCH  17  23
ATOM     22  C   UNL     1       3.442  14.217  19.218  0.00  0.00    +0.000 C 
ATOM     23  C   UNL     1       3.147  14.730  20.626  0.00  0.00    +0.000 C 
ATOM     24  C   UNL     1       3.760  16.128  20.791  0.00  0.00    +0.000 C 
ENDBRANCH  17  23
ENDBRANCH  10  19
ENDBRANCH   1  15
BRANCH   7  25
ATOM     25  C   UNL     1      -2.316  10.781  17.723  0.00  0.00    +0.000 A 
ATOM     26  C   UNL     1      -1.928   9.950  16.660  0.00  0.00    +0.000 A 
ATOM     27  C   UNL     1      -2.707   9.846  15.501  0.00  0.00    +0.000 A 
ATOM     28  C   UNL     1      -3.875  10.579  15.370  0.00  0.00    +0.000 A 
ATOM     29  C   UNL     1      -4.259  11.447  16.393  0.00  0.00    +0.000 A 
ATOM     30  C   UNL     1      -3.479  11.546  17.559  0.00  0.00    +0.000 A 
ENDBRANCH   7  25
BRANCH   5  31
ATOM     31  C   UNL     1       1.117   8.781  20.870  0.00  0.00    +0.000 C 
ATOM     32  F   UNL     1       1.995   9.147  21.835  0.00  0.00    +0.000 F 
ATOM     33  F   UNL     1       0.561   7.614  21.303  0.00  0.00    +0.000 F 
ATOM     34  F   UNL     1       1.864   8.452  19.782  0.00  0.00    +0.000 F 
ENDBRANCH   5  31
TORSDOF 5
ENDMDL
MODEL 5
REMARK VINA RESULT:      -7.4      8.722     11.864
REMARK  Name = 
REMARK  7 active torsions:
REMARK  status: ('A' for Active; 'I' for Inactive)
REMARK    1  A    between atoms: C_1  and  C_2
REMARK    2  A    between atoms: C_2  and  C_3
REMARK    3  A    between atoms: C_2  and  C_4
REMARK    4  A    between atoms: C_6  and  C_7
REMARK    5  A    between atoms: C_12  and  C_14
REMARK    6  A    between atoms: C_18  and  C_19
REMARK    7  A    between atoms: C_24  and  C_25
REMARK                            x       y       z     vdW  Elec       q    Type
REMARK                         _______ _______ _______ _____ _____    ______ ____
ROOT
ATOM      1  C   UNL     1      -1.146  13.366  23.032  0.00  0.00    +0.000 A 
ATOM      2  C   UNL     1      -1.583  12.041  23.072  0.00  0.00    +0.000 A 
ATOM      3  N   UNL     1      -1.062  11.282  22.123  0.00  0.00    +0.000 NA
ATOM      4  N   UNL     1      -0.449  12.151  21.300  0.00  0.00    +0.000 N 
ATOM      5  C   UNL     1       0.061  11.891  20.044  0.00  0.00    +0.000 A 
ATOM      6  C   UNL     1       0.488  12.913  19.277  0.00  0.00    +0.000 A 
ATOM      7  C   UNL     1       0.372  14.299  19.851  0.00  0.00    +0.000 A 
ATOM      8  N   UNL     1      -0.016  14.524  21.080  0.00  0.00    +0.000 NA
ATOM      9  C   UNL     1      -0.475  13.454  21.815  0.00  0.00    +0.000 A 
ENDROOT
BRANCH   1  15
ATOM     10  C   UNL     1      -4.169  14.321  23.552  0.00  0.00    +0.000 C 
ATOM     11  C   UNL     1      -5.143  15.496  23.734  0.00  0.00    +0.000 C 
ATOM     12  C   UNL     1      -4.554  16.294  24.884  0.00  0.00    +0.000 C 
ATOM     13  C   UNL     1      -3.057  16.085  24.746  0.00  0.00    +0.000 C 
ATOM     14  N   UNL     1      -2.852  14.972  23.818  0.00  0.00    +0.000 N 
ATOM     15  C   UNL     1      -1.548  14.453  23.889  0.00  0.00    +0.000 C 
ATOM     16  O   UNL     1      -0.708  14.998  24.609  0.00  0.00    +0.000 OA
BRANCH  10  19
ATOM     17  C   UNL     1      -4.556  12.753  20.170  0.00  0.00    +0.000 A 
ATOM     18  C   UNL     1      -4.138  13.871  20.874  0.00  0.00    +0.000 A 
ATOM     19  C   UNL     1      -4.423  13.577  22.256  0.00  0.00    +0.000 A 
ATOM     20  N   UNL     1      -5.114  12.430  22.329  0.00  0.00    +0.000 NA
ATOM     21  O   UNL     1      -5.170  11.916  21.057  0.00  0.00    +0.000 OA
BRANCH  17  23
ATOM     22  C   UNL     1      -3.121  11.662  18.316  0.00  0.00    +0.000 C 
ATOM     23  C   UNL     1      -4.480  12.188  18.773  0.00  0.00    +0.000 C 
ATOM     24  C   UNL     1      -5.538  11.095  18.565  0.00  0.00    +0.000 C 
ENDBRANCH  17  23
ENDBRANCH  10  19
ENDBRANCH   1  15
BRANCH   7  25
ATOM     25  C   UNL     1       0.644  15.476  18.932  0.00  0.00    +0.000 A 
ATOM     26  C   UNL     1      -0.365  16.339  18.477  0.00  0.00    +0.000 A 
ATOM     27  C   UNL     1      -0.056  17.494  17.747  0.00  0.00    +0.000 A 
ATOM     28  C   UNL     1       1.261  17.802  17.443  0.00  0.00    +0.000 A 
ATOM     29  C   UNL     1       2.279  16.937  17.846  0.00  0.00    +0.000 A 
ATOM     30  C   UNL     1       1.966  15.781  18.582  0.00  0.00    +0.000 A 
ENDBRANCH   7  25
BRANCH   5  31
ATOM     31  C   UNL     1       0.039  10.483  19.568  0.00  0.00    +0.000 C 
ATOM     32  F   UNL     1      -1.114   9.789  19.725  0.00  0.00    +0.000 F 
ATOM     33  F   UNL     1       0.321  10.432  18.236  0.00  0.00    +0.000 F 
ATOM     34  F   UNL     1       1.009   9.751  20.180  0.00  0.00    +0.000 F 
ENDBRANCH   5  31
TORSDOF 5
ENDMDL
MODEL 6
REMARK VINA RESULT:      -7.3      8.669     11.134
REMARK  Name = 
REMARK  7 active torsions:
REMARK  status: ('A' for Active; 'I' for Inactive)
REMARK    1  A    between atoms: C_1  and  C_2
REMARK    2  A    between atoms: C_2  and  C_3
REMARK    3  A    between atoms: C_2  and  C_4
REMARK    4  A    between atoms: C_6  and  C_7
REMARK    5  A    between atoms: C_12  and  C_14
REMARK    6  A    between atoms: C_18  and  C_19
REMARK    7  A    between atoms: C_24  and  C_25
REMARK                            x       y       z     vdW  Elec       q    Type
REMARK                         _______ _______ _______ _____ _____    ______ ____
ROOT
ATOM      1  C   UNL     1       1.690  13.701  19.547  0.00  0.00    +0.000 A 
ATOM      2  C   UNL     1       2.298  13.372  20.760  0.00  0.00    +0.000 A 
ATOM      3  N   UNL     1       1.969  12.173  21.210  0.00  0.00    +0.000 NA
ATOM      4  N   UNL     1       0.958  11.784  20.414  0.00  0.00    +0.000 N 
ATOM      5  C   UNL     1       0.120  10.703  20.601  0.00  0.00    +0.000 A 
ATOM      6  C   UNL     1      -0.956  10.553  19.803  0.00  0.00    +0.000 A 
ATOM      7  C   UNL     1      -1.179  11.598  18.745  0.00  0.00    +0.000 A 
ATOM      8  N   UNL     1      -0.323  12.560  18.510  0.00  0.00    +0.000 NA
ATOM      9  C   UNL     1       0.743  12.696  19.371  0.00  0.00    +0.000 A 
ENDROOT
BRANCH   1  15
ATOM     10  C   UNL     1       0.215  16.458  20.284  0.00  0.00    +0.000 C 
ATOM     11  C   UNL     1      -0.533  17.701  19.778  0.00  0.00    +0.000 C 
ATOM     12  C   UNL     1       0.418  18.327  18.773  0.00  0.00    +0.000 C 
ATOM     13  C   UNL     1       1.156  17.140  18.180  0.00  0.00    +0.000 C 
ATOM     14  N   UNL     1       0.896  15.986  19.042  0.00  0.00    +0.000 N 
ATOM     15  C   UNL     1       1.801  14.935  18.811  0.00  0.00    +0.000 C 
ATOM     16  O   UNL     1       2.627  15.024  17.899  0.00  0.00    +0.000 OA
BRANCH  10  19
ATOM     17  C   UNL     1      -1.807  14.266  22.553  0.00  0.00    +0.000 A 
ATOM     18  C   UNL     1      -0.626  14.973  22.395  0.00  0.00    +0.000 A 
ATOM     19  C   UNL     1      -0.695  15.537  21.071  0.00  0.00    +0.000 A 
ATOM     20  N   UNL     1      -1.773  15.048  20.440  0.00  0.00    +0.000 NA
ATOM     21  O   UNL     1      -2.464  14.296  21.357  0.00  0.00    +0.000 OA
BRANCH  17  23
ATOM     22  C   UNL     1      -3.900  14.178  24.070  0.00  0.00    +0.000 C 
ATOM     23  C   UNL     1      -2.576  13.552  23.637  0.00  0.00    +0.000 C 
ATOM     24  C   UNL     1      -2.813  12.082  23.264  0.00  0.00    +0.000 C 
ENDBRANCH  17  23
ENDBRANCH  10  19
ENDBRANCH   1  15
BRANCH   7  25
ATOM     25  C   UNL     1      -2.489  11.569  17.980  0.00  0.00    +0.000 A 
ATOM     26  C   UNL     1      -2.590  11.121  16.653  0.00  0.00    +0.000 A 
ATOM     27  C   UNL     1      -3.836  10.976  16.029  0.00  0.00    +0.000 A 
ATOM     28  C   UNL     1      -5.002  11.290  16.709  0.00  0.00    +0.000 A 
ATOM     29  C   UNL     1      -4.927  11.780  18.014  0.00  0.00    +0.000 A 
ATOM     30  C   UNL     1      -3.675  11.920  18.638  0.00  0.00    +0.000 A 
ENDBRANCH   7  25
BRANCH   5  31
ATOM     31  C   UNL     1       0.411   9.793  21.738  0.00  0.00    +0.000 C 
ATOM     32  F   UNL     1       1.687   9.359  21.881  0.00  0.00    +0.000 F 
ATOM     33  F   UNL     1       0.094  10.398  22.918  0.00  0.00    +0.000 F 
ATOM     34  F   UNL     1      -0.365   8.677  21.676  0.00  0.00    +0.000 F 
ENDBRANCH   5  31
TORSDOF 5
ENDMDL
MODEL 7
REMARK VINA RESULT:      -7.3      8.602     11.084
REMARK  Name = 
REMARK  7 active torsions:
REMARK  status: ('A' for Active; 'I' for Inactive)
REMARK    1  A    between atoms: C_1  and  C_2
REMARK    2  A    between atoms: C_2  and  C_3
REMARK    3  A    between atoms: C_2  and  C_4
REMARK    4  A    between atoms: C_6  and  C_7
REMARK    5  A    between atoms: C_12  and  C_14
REMARK    6  A    between atoms: C_18  and  C_19
REMARK    7  A    between atoms: C_24  and  C_25
REMARK                            x       y       z     vdW  Elec       q    Type
REMARK                         _______ _______ _______ _____ _____    ______ ____
ROOT
ATOM      1  C   UNL     1       0.922  13.973  19.851  0.00  0.00    +0.000 A 
ATOM      2  C   UNL     1       1.342  13.786  21.169  0.00  0.00    +0.000 A 
ATOM      3  N   UNL     1       1.232  12.537  21.589  0.00  0.00    +0.000 NA
ATOM      4  N   UNL     1       0.520  11.924  20.628  0.00  0.00    +0.000 N 
ATOM      5  C   UNL     1      -0.051  10.669  20.686  0.00  0.00    +0.000 A 
ATOM      6  C   UNL     1      -0.880  10.271  19.701  0.00  0.00    +0.000 A 
ATOM      7  C   UNL     1      -1.138  11.244  18.584  0.00  0.00    +0.000 A 
ATOM      8  N   UNL     1      -0.511  12.389  18.486  0.00  0.00    +0.000 NA
ATOM      9  C   UNL     1       0.300  12.769  19.531  0.00  0.00    +0.000 A 
ENDROOT
BRANCH   1  15
ATOM     10  C   UNL     1      -1.241  16.314  20.252  0.00  0.00    +0.000 C 
ATOM     11  C   UNL     1      -2.155  17.359  19.593  0.00  0.00    +0.000 C 
ATOM     12  C   UNL     1      -1.215  18.195  18.741  0.00  0.00    +0.000 C 
ATOM     13  C   UNL     1      -0.138  17.213  18.314  0.00  0.00    +0.000 C 
ATOM     14  N   UNL     1      -0.271  16.021  19.154  0.00  0.00    +0.000 N 
ATOM     15  C   UNL     1       0.873  15.207  19.107  0.00  0.00    +0.000 C 
ATOM     16  O   UNL     1       1.798  15.490  18.343  0.00  0.00    +0.000 OA
BRANCH  10  19
ATOM     17  C   UNL     1      -3.083  13.712  22.220  0.00  0.00    +0.000 A 
ATOM     18  C   UNL     1      -2.106  14.693  22.251  0.00  0.00    +0.000 A 
ATOM     19  C   UNL     1      -2.037  15.203  20.904  0.00  0.00    +0.000 A 
ATOM     20  N   UNL     1      -2.809  14.447  20.108  0.00  0.00    +0.000 NA
ATOM     21  O   UNL     1      -3.466  13.556  20.919  0.00  0.00    +0.000 OA
BRANCH  17  23
ATOM     22  C   UNL     1      -3.752  13.183  24.662  0.00  0.00    +0.000 C 
ATOM     23  C   UNL     1      -3.858  12.840  23.177  0.00  0.00    +0.000 C 
ATOM     24  C   UNL     1      -5.339  12.773  22.781  0.00  0.00    +0.000 C 
ENDBRANCH  17  23
ENDBRANCH  10  19
ENDBRANCH   1  15
BRANCH   7  25
ATOM     25  C   UNL     1      -2.227  10.907  17.582  0.00  0.00    +0.000 A 
ATOM     26  C   UNL     1      -3.472  11.556  17.558  0.00  0.00    +0.000 A 
ATOM     27  C   UNL     1      -4.394  11.316  16.532  0.00  0.00    +0.000 A 
ATOM     28  C   UNL     1      -4.102  10.415  15.520  0.00  0.00    +0.000 A 
ATOM     29  C   UNL     1      -2.890   9.723  15.545  0.00  0.00    +0.000 A 
ATOM     30  C   UNL     1      -1.963   9.970  16.574  0.00  0.00    +0.000 A 
ENDBRANCH   7  25
BRANCH   5  31
ATOM     31  C   UNL     1       0.223   9.842  21.890  0.00  0.00    +0.000 C 
ATOM     32  F   UNL     1       1.518   9.557  22.170  0.00  0.00    +0.000 F 
ATOM     33  F   UNL     1      -0.268  10.455  23.004  0.00  0.00    +0.000 F 
ATOM     34  F   UNL     1      -0.421   8.646  21.812  0.00  0.00    +0.000 F 
ENDBRANCH   5  31
TORSDOF 5
ENDMDL
MODEL 8
REMARK VINA RESULT:      -7.2      8.577     11.313
REMARK  Name = 
REMARK  7 active torsions:
REMARK  status: ('A' for Active; 'I' for Inactive)
REMARK    1  A    between atoms: C_1  and  C_2
REMARK    2  A    between atoms: C_2  and  C_3
REMARK    3  A    between atoms: C_2  and  C_4
REMARK    4  A    between atoms: C_6  and  C_7
REMARK    5  A    between atoms: C_12  and  C_14
REMARK    6  A    between atoms: C_18  and  C_19
REMARK    7  A    between atoms: C_24  and  C_25
REMARK                            x       y       z     vdW  Elec       q    Type
REMARK                         _______ _______ _______ _____ _____    ______ ____
ROOT
ATOM      1  C   UNL     1       1.438  13.715  19.724  0.00  0.00    +0.000 A 
ATOM      2  C   UNL     1       2.223  13.261  20.785  0.00  0.00    +0.000 A 
ATOM      3  N   UNL     1       1.960  12.016  21.145  0.00  0.00    +0.000 NA
ATOM      4  N   UNL     1       0.836  11.706  20.475  0.00  0.00    +0.000 N 
ATOM      5  C   UNL     1       0.031  10.601  20.666  0.00  0.00    +0.000 A 
ATOM      6  C   UNL     1      -1.155  10.528  20.030  0.00  0.00    +0.000 A 
ATOM      7  C   UNL     1      -1.532  11.682  19.141  0.00  0.00    +0.000 A 
ATOM      8  N   UNL     1      -0.716  12.673  18.887  0.00  0.00    +0.000 NA
ATOM      9  C   UNL     1       0.470  12.725  19.585  0.00  0.00    +0.000 A 
ENDROOT
BRANCH   1  15
ATOM     10  C   UNL     1       0.090  16.352  20.969  0.00  0.00    +0.000 C 
ATOM     11  C   UNL     1      -0.722  17.632  20.719  0.00  0.00    +0.000 C 
ATOM     12  C   UNL     1       0.073  18.379  19.663  0.00  0.00    +0.000 C 
ATOM     13  C   UNL     1       0.715  17.276  18.841  0.00  0.00    +0.000 C 
ATOM     14  N   UNL     1       0.582  16.030  19.597  0.00  0.00    +0.000 N 
ATOM     15  C   UNL     1       1.442  15.025  19.121  0.00  0.00    +0.000 C 
ATOM     16  O   UNL     1       2.125  15.226  18.114  0.00  0.00    +0.000 OA
BRANCH  10  19
ATOM     17  C   UNL     1      -2.106  13.820  22.644  0.00  0.00    +0.000 A 
ATOM     18  C   UNL     1      -1.991  14.728  21.604  0.00  0.00    +0.000 A 
ATOM     19  C   UNL     1      -0.695  15.336  21.773  0.00  0.00    +0.000 A 
ATOM     20  N   UNL     1      -0.165  14.926  22.935  0.00  0.00    +0.000 NA
ATOM     21  O   UNL     1      -1.016  13.980  23.450  0.00  0.00    +0.000 OA
BRANCH  17  23
ATOM     22  C   UNL     1      -2.369  11.365  23.416  0.00  0.00    +0.000 C 
ATOM     23  C   UNL     1      -3.022  12.709  23.096  0.00  0.00    +0.000 C 
ATOM     24  C   UNL     1      -3.874  13.152  24.293  0.00  0.00    +0.000 C 
ENDBRANCH  17  23
ENDBRANCH  10  19
ENDBRANCH   1  15
BRANCH   7  25
ATOM     25  C   UNL     1      -2.944  11.722  18.587  0.00  0.00    +0.000 A 
ATOM     26  C   UNL     1      -4.041  12.197  19.325  0.00  0.00    +0.000 A 
ATOM     27  C   UNL     1      -5.300  12.352  18.732  0.00  0.00    +0.000 A 
ATOM     28  C   UNL     1      -5.496  12.021  17.400  0.00  0.00    +0.000 A 
ATOM     29  C   UNL     1      -4.433  11.505  16.657  0.00  0.00    +0.000 A 
ATOM     30  C   UNL     1      -3.168  11.356  17.254  0.00  0.00    +0.000 A 
ENDBRANCH   7  25
BRANCH   5  31
ATOM     31  C   UNL     1       0.488   9.575  21.637  0.00  0.00    +0.000 C 
ATOM     32  F   UNL     1       0.617   9.953  22.932  0.00  0.00    +0.000 F 
ATOM     33  F   UNL     1      -0.374   8.518  21.647  0.00  0.00    +0.000 F 
ATOM     34  F   UNL     1       1.694   9.063  21.269  0.00  0.00    +0.000 F 
ENDBRANCH   5  31
TORSDOF 5
ENDMDL
MODEL 9
REMARK VINA RESULT:      -7.2      8.529     10.960
REMARK  Name = 
REMARK  7 active torsions:
REMARK  status: ('A' for Active; 'I' for Inactive)
REMARK    1  A    between atoms: C_1  and  C_2
REMARK    2  A    between atoms: C_2  and  C_3
REMARK    3  A    between atoms: C_2  and  C_4
REMARK    4  A    between atoms: C_6  and  C_7
REMARK    5  A    between atoms: C_12  and  C_14
REMARK    6  A    between atoms: C_18  and  C_19
REMARK    7  A    between atoms: C_24  and  C_25
REMARK                            x       y       z     vdW  Elec       q    Type
REMARK                         _______ _______ _______ _____ _____    ______ ____
ROOT
ATOM      1  C   UNL     1       1.669  13.520  19.597  0.00  0.00    +0.000 A 
ATOM      2  C   UNL     1       2.222  13.245  20.848  0.00  0.00    +0.000 A 
ATOM      3  N   UNL     1       1.903  12.050  21.317  0.00  0.00    +0.000 NA
ATOM      4  N   UNL     1       0.945  11.609  20.483  0.00  0.00    +0.000 N 
ATOM      5  C   UNL     1       0.128  10.511  20.659  0.00  0.00    +0.000 A 
ATOM      6  C   UNL     1      -0.900  10.307  19.811  0.00  0.00    +0.000 A 
ATOM      7  C   UNL     1      -1.095  11.314  18.712  0.00  0.00    +0.000 A 
ATOM      8  N   UNL     1      -0.254  12.292  18.493  0.00  0.00    +0.000 NA
ATOM      9  C   UNL     1       0.761  12.484  19.403  0.00  0.00    +0.000 A 
ENDROOT
BRANCH   1  15
ATOM     10  C   UNL     1       0.165  16.286  20.234  0.00  0.00    +0.000 C 
ATOM     11  C   UNL     1      -0.582  17.511  19.683  0.00  0.00    +0.000 C 
ATOM     12  C   UNL     1       0.383  18.116  18.678  0.00  0.00    +0.000 C 
ATOM     13  C   UNL     1       1.138  16.919  18.130  0.00  0.00    +0.000 C 
ATOM     14  N   UNL     1       0.871  15.786  19.017  0.00  0.00    +0.000 N 
ATOM     15  C   UNL     1       1.785  14.735  18.829  0.00  0.00    +0.000 C 
ATOM     16  O   UNL     1       2.626  14.805  17.929  0.00  0.00    +0.000 OA
BRANCH  10  19
ATOM     17  C   UNL     1      -1.888  14.150  22.529  0.00  0.00    +0.000 A 
ATOM     18  C   UNL     1      -0.715  14.874  22.379  0.00  0.00    +0.000 A 
ATOM     19  C   UNL     1      -0.752  15.380  21.031  0.00  0.00    +0.000 A 
ATOM     20  N   UNL     1      -1.800  14.844  20.388  0.00  0.00    +0.000 NA
ATOM     21  O   UNL     1      -2.506  14.117  21.312  0.00  0.00    +0.000 OA
BRANCH  17  23
ATOM     22  C   UNL     1      -4.072  14.018  23.908  0.00  0.00    +0.000 C 
ATOM     23  C   UNL     1      -2.677  13.466  23.618  0.00  0.00    +0.000 C 
ATOM     24  C   UNL     1      -2.778  11.957  23.356  0.00  0.00    +0.000 C 
ENDBRANCH  17  23
ENDBRANCH  10  19
ENDBRANCH   1  15
BRANCH   7  25
ATOM     25  C   UNL     1      -2.363  11.225  17.881  0.00  0.00    +0.000 A 
ATOM     26  C   UNL     1      -3.610  11.680  18.339  0.00  0.00    +0.000 A 
ATOM     27  C   UNL     1      -4.725  11.711  17.492  0.00  0.00    +0.000 A 
ATOM     28  C   UNL     1      -4.624  11.275  16.181  0.00  0.00    +0.000 A 
ATOM     29  C   UNL     1      -3.407  10.776  15.714  0.00  0.00    +0.000 A 
ATOM     30  C   UNL     1      -2.287  10.751  16.565  0.00  0.00    +0.000 A 
ENDBRANCH   7  25
BRANCH   5  31
ATOM     31  C   UNL     1       0.384   9.643  21.837  0.00  0.00    +0.000 C 
ATOM     32  F   UNL     1       0.209  10.189  23.065  0.00  0.00    +0.000 F 
ATOM     33  F   UNL     1      -0.429   8.549  21.802  0.00  0.00    +0.000 F 
ATOM     34  F   UNL     1       1.655   9.159  21.815  0.00  0.00    +0.000 F 
ENDBRANCH   5  31
TORSDOF 5
ENDMDL
