MODEL 1
REMARK VINA RESULT:      -8.8      0.000      0.000
REMARK  Name = 
REMARK  3 active torsions:
REMARK  status: ('A' for Active; 'I' for Inactive)
REMARK    1  A    between atoms: S_2  and  C_4
REMARK    2  A    between atoms: S_2  and  C_11
REMARK    3  A    between atoms: C_19  and  C_20
REMARK                            x       y       z     vdW  Elec       q    Type
REMARK                         _______ _______ _______ _____ _____    ______ ____
ROOT
ATOM      1  C   UNL     1       4.403   5.283  18.710  0.00  0.00    +0.000 A 
ATOM      2  S   UNL     1       4.868   3.702  19.178  0.00  0.00    +0.000 S 
ATOM      3  C   UNL     1       3.447   3.441  20.043  0.00  0.00    +0.000 A 
ATOM      4  N   UNL     1       3.266   2.278  20.702  0.00  0.00    +0.000 NA
ATOM      5  C   UNL     1       2.089   2.181  21.345  0.00  0.00    +0.000 A 
ATOM      6  C   UNL     1       1.102   3.146  21.343  0.00  0.00    +0.000 A 
ATOM      7  C   UNL     1       1.328   4.325  20.635  0.00  0.00    +0.000 A 
ATOM      8  C   UNL     1       2.566   4.513  19.971  0.00  0.00    +0.000 A 
ATOM      9  C   UNL     1       3.144   5.626  19.216  0.00  0.00    +0.000 A 
ENDROOT
BRANCH   9  10
ATOM     10  C   UNL     1       2.514   6.956  19.052  0.00  0.00    +0.000 A 
ATOM     11  C   UNL     1       2.047   7.653  20.182  0.00  0.00    +0.000 A 
ATOM     12  C   UNL     1       1.379   8.878  20.064  0.00  0.00    +0.000 A 
ATOM     13  C   UNL     1       1.227   9.464  18.815  0.00  0.00    +0.000 A 
ATOM     14 CL   UNL     1       0.437  10.984  18.668  0.00  0.00    +0.000 Cl
ATOM     15  C   UNL     1       1.706   8.815  17.685  0.00  0.00    +0.000 A 
ATOM     16  C   UNL     1       2.313   7.557  17.803  0.00  0.00    +0.000 A 
ENDBRANCH   9  10
BRANCH   1  18
ATOM     17  O   UNL     1       6.847   6.064  18.522  0.00  0.00    +0.000 OA
ATOM     18  S   UNL     1       5.634   6.134  17.732  0.00  0.00    +0.000 S 
ATOM     19  O   UNL     1       5.031   7.408  17.384  0.00  0.00    +0.000 OA
BRANCH  18  20
ATOM     20  C   UNL     1       5.940   5.295  16.188  0.00  0.00    +0.000 A 
ATOM     21  C   UNL     1       7.182   5.423  15.549  0.00  0.00    +0.000 A 
ATOM     22  C   UNL     1       7.376   4.821  14.303  0.00  0.00    +0.000 A 
ATOM     23  C   UNL     1       6.337   4.113  13.697  0.00  0.00    +0.000 A 
ATOM     24 CL   UNL     1       6.573   3.404  12.148  0.00  0.00    +0.000 Cl
ATOM     25  C   UNL     1       5.098   3.993  14.329  0.00  0.00    +0.000 A 
ATOM     26  C   UNL     1       4.896   4.589  15.575  0.00  0.00    +0.000 A 
ENDBRANCH  18  20
ENDBRANCH   1  18
TORSDOF 3
ENDMDL
MODEL 2
REMARK VINA RESULT:      -8.4      0.105      1.343
REMARK  Name = 
REMARK  3 active torsions:
REMARK  status: ('A' for Active; 'I' for Inactive)
REMARK    1  A    between atoms: S_2  and  C_4
REMARK    2  A    between atoms: S_2  and  C_11
REMARK    3  A    between atoms: C_19  and  C_20
REMARK                            x       y       z     vdW  Elec       q    Type
REMARK                         _______ _______ _______ _____ _____    ______ ____
ROOT
ATOM      1  C   UNL     1       4.380   5.306  18.755  0.00  0.00    +0.000 A 
ATOM      2  S   UNL     1       4.882   3.727  19.194  0.00  0.00    +0.000 S 
ATOM      3  C   UNL     1       3.469   3.420  20.058  0.00  0.00    +0.000 A 
ATOM      4  N   UNL     1       3.316   2.242  20.697  0.00  0.00    +0.000 NA
ATOM      5  C   UNL     1       2.143   2.107  21.340  0.00  0.00    +0.000 A 
ATOM      6  C   UNL     1       1.135   3.050  21.359  0.00  0.00    +0.000 A 
ATOM      7  C   UNL     1       1.333   4.246  20.672  0.00  0.00    +0.000 A 
ATOM      8  C   UNL     1       2.564   4.473  20.008  0.00  0.00    +0.000 A 
ATOM      9  C   UNL     1       3.115   5.612  19.272  0.00  0.00    +0.000 A 
ENDROOT
BRANCH   9  10
ATOM     10  C   UNL     1       2.455   6.930  19.133  0.00  0.00    +0.000 A 
ATOM     11  C   UNL     1       2.289   7.497  17.855  0.00  0.00    +0.000 A 
ATOM     12  C   UNL     1       1.738   8.774  17.685  0.00  0.00    +0.000 A 
ATOM     13  C   UNL     1       1.278   9.480  18.788  0.00  0.00    +0.000 A 
ATOM     14 CL   UNL     1       0.571  11.034  18.583  0.00  0.00    +0.000 Cl
ATOM     15  C   UNL     1       1.400   8.932  20.059  0.00  0.00    +0.000 A 
ATOM     16  C   UNL     1       2.014   7.683  20.228  0.00  0.00    +0.000 A 
ENDBRANCH   9  10
BRANCH   1  18
ATOM     17  O   UNL     1       6.827   6.071  18.533  0.00  0.00    +0.000 OA
ATOM     18  S   UNL     1       5.589   6.202  17.790  0.00  0.00    +0.000 S 
ATOM     19  O   UNL     1       4.990   7.501  17.540  0.00  0.00    +0.000 OA
BRANCH  18  20
ATOM     20  C   UNL     1       5.833   5.455  16.189  0.00  0.00    +0.000 A 
ATOM     21  C   UNL     1       4.798   4.723  15.587  0.00  0.00    +0.000 A 
ATOM     22  C   UNL     1       5.034   4.081  14.368  0.00  0.00    +0.000 A 
ATOM     23  C   UNL     1       6.291   4.158  13.766  0.00  0.00    +0.000 A 
ATOM     24 CL   UNL     1       6.582   3.338  12.283  0.00  0.00    +0.000 Cl
ATOM     25  C   UNL     1       7.322   4.880  14.369  0.00  0.00    +0.000 A 
ATOM     26  C   UNL     1       7.095   5.527  15.585  0.00  0.00    +0.000 A 
ENDBRANCH  18  20
ENDBRANCH   1  18
TORSDOF 3
ENDMDL
MODEL 3
REMARK VINA RESULT:      -8.3      3.215      6.797
REMARK  Name = 
REMARK  3 active torsions:
REMARK  status: ('A' for Active; 'I' for Inactive)
REMARK    1  A    between atoms: S_2  and  C_4
REMARK    2  A    between atoms: S_2  and  C_11
REMARK    3  A    between atoms: C_19  and  C_20
REMARK                            x       y       z     vdW  Elec       q    Type
REMARK                         _______ _______ _______ _____ _____    ______ ____
ROOT
ATOM      1  C   UNL     1       5.424   4.362  16.741  0.00  0.00    +0.000 A 
ATOM      2  S   UNL     1       4.855   3.323  15.504  0.00  0.00    +0.000 S 
ATOM      3  C   UNL     1       5.934   3.938  14.365  0.00  0.00    +0.000 A 
ATOM      4  N   UNL     1       5.912   3.472  13.099  0.00  0.00    +0.000 NA
ATOM      5  C   UNL     1       6.827   4.028  12.287  0.00  0.00    +0.000 A 
ATOM      6  C   UNL     1       7.751   4.980  12.667  0.00  0.00    +0.000 A 
ATOM      7  C   UNL     1       7.745   5.420  13.989  0.00  0.00    +0.000 A 
ATOM      8  C   UNL     1       6.778   4.907  14.890  0.00  0.00    +0.000 A 
ATOM      9  C   UNL     1       6.454   5.195  16.288  0.00  0.00    +0.000 A 
ENDROOT
BRANCH   9  10
ATOM     10  C   UNL     1       7.087   6.256  17.104  0.00  0.00    +0.000 A 
ATOM     11  C   UNL     1       6.988   7.601  16.700  0.00  0.00    +0.000 A 
ATOM     12  C   UNL     1       7.634   8.627  17.401  0.00  0.00    +0.000 A 
ATOM     13  C   UNL     1       8.335   8.335  18.562  0.00  0.00    +0.000 A 
ATOM     14 CL   UNL     1       9.102   9.595  19.445  0.00  0.00    +0.000 Cl
ATOM     15  C   UNL     1       8.423   7.021  19.004  0.00  0.00    +0.000 A 
ATOM     16  C   UNL     1       7.832   5.990  18.260  0.00  0.00    +0.000 A 
ENDBRANCH   9  10
BRANCH   1  18
ATOM     17  O   UNL     1       5.597   4.014  19.285  0.00  0.00    +0.000 OA
ATOM     18  S   UNL     1       4.554   4.176  18.292  0.00  0.00    +0.000 S 
ATOM     19  O   UNL     1       3.569   3.137  18.054  0.00  0.00    +0.000 OA
BRANCH  18  20
ATOM     20  C   UNL     1       3.631   5.645  18.706  0.00  0.00    +0.000 A 
ATOM     21  C   UNL     1       2.907   5.709  19.906  0.00  0.00    +0.000 A 
ATOM     22  C   UNL     1       2.129   6.837  20.176  0.00  0.00    +0.000 A 
ATOM     23  C   UNL     1       2.064   7.883  19.252  0.00  0.00    +0.000 A 
ATOM     24 CL   UNL     1       1.078   9.253  19.578  0.00  0.00    +0.000 Cl
ATOM     25  C   UNL     1       2.778   7.815  18.055  0.00  0.00    +0.000 A 
ATOM     26  C   UNL     1       3.561   6.693  17.778  0.00  0.00    +0.000 A 
ENDBRANCH  18  20
ENDBRANCH   1  18
TORSDOF 3
ENDMDL
MODEL 4
REMARK VINA RESULT:      -8.1      7.192      9.830
REMARK  Name = 
REMARK  3 active torsions:
REMARK  status: ('A' for Active; 'I' for Inactive)
REMARK    1  A    between atoms: S_2  and  C_4
REMARK    2  A    between atoms: S_2  and  C_11
REMARK    3  A    between atoms: C_19  and  C_20
REMARK                            x       y       z     vdW  Elec       q    Type
REMARK                         _______ _______ _______ _____ _____    ______ ____
ROOT
ATOM      1  C   UNL     1      -2.912  12.509  20.080  0.00  0.00    +0.000 A 
ATOM      2  S   UNL     1      -3.556  13.132  21.540  0.00  0.00    +0.000 S 
ATOM      3  C   UNL     1      -5.116  12.603  21.184  0.00  0.00    +0.000 A 
ATOM      4  N   UNL     1      -6.125  12.866  22.039  0.00  0.00    +0.000 NA
ATOM      5  C   UNL     1      -7.319  12.383  21.655  0.00  0.00    +0.000 A 
ATOM      6  C   UNL     1      -7.546  11.651  20.506  0.00  0.00    +0.000 A 
ATOM      7  C   UNL     1      -6.469  11.391  19.662  0.00  0.00    +0.000 A 
ATOM      8  C   UNL     1      -5.190  11.908  19.984  0.00  0.00    +0.000 A 
ATOM      9  C   UNL     1      -3.894  11.884  19.302  0.00  0.00    +0.000 A 
ENDROOT
BRANCH   9  10
ATOM     10  C   UNL     1      -3.658  11.326  17.951  0.00  0.00    +0.000 A 
ATOM     11  C   UNL     1      -2.683  10.328  17.768  0.00  0.00    +0.000 A 
ATOM     12  C   UNL     1      -2.375   9.827  16.497  0.00  0.00    +0.000 A 
ATOM     13  C   UNL     1      -3.089  10.266  15.390  0.00  0.00    +0.000 A 
ATOM     14 CL   UNL     1      -2.738   9.631  13.832  0.00  0.00    +0.000 Cl
ATOM     15  C   UNL     1      -4.079  11.228  15.544  0.00  0.00    +0.000 A 
ATOM     16  C   UNL     1      -4.335  11.775  16.810  0.00  0.00    +0.000 A 
ENDBRANCH   9  10
BRANCH   1  18
ATOM     17  O   UNL     1      -0.805  13.667  20.997  0.00  0.00    +0.000 OA
ATOM     18  S   UNL     1      -1.166  12.833  19.869  0.00  0.00    +0.000 S 
ATOM     19  O   UNL     1      -1.029  13.307  18.503  0.00  0.00    +0.000 OA
BRANCH  18  20
ATOM     20  C   UNL     1      -0.205  11.334  19.969  0.00  0.00    +0.000 A 
ATOM     21  C   UNL     1       0.631  10.959  18.906  0.00  0.00    +0.000 A 
ATOM     22  C   UNL     1       1.316   9.743  18.970  0.00  0.00    +0.000 A 
ATOM     23  C   UNL     1       1.158   8.907  20.077  0.00  0.00    +0.000 A 
ATOM     24 CL   UNL     1       1.980   7.397  20.133  0.00  0.00    +0.000 Cl
ATOM     25  C   UNL     1       0.321   9.276  21.131  0.00  0.00    +0.000 A 
ATOM     26  C   UNL     1      -0.366  10.491  21.076  0.00  0.00    +0.000 A 
ENDBRANCH  18  20
ENDBRANCH   1  18
TORSDOF 3
ENDMDL
MODEL 5
REMARK VINA RESULT:      -8.0      6.919      9.686
REMARK  Name = 
REMARK  3 active torsions:
REMARK  status: ('A' for Active; 'I' for Inactive)
REMARK    1  A    between atoms: S_2  and  C_4
REMARK    2  A    between atoms: S_2  and  C_11
REMARK    3  A    between atoms: C_19  and  C_20
REMARK                            x       y       z     vdW  Elec       q    Type
REMARK                         _______ _______ _______ _____ _____    ______ ____
ROOT
ATOM      1  C   UNL     1      -2.803  12.293  19.696  0.00  0.00    +0.000 A 
ATOM      2  S   UNL     1      -3.496  12.933  21.126  0.00  0.00    +0.000 S 
ATOM      3  C   UNL     1      -5.058  12.486  20.678  0.00  0.00    +0.000 A 
ATOM      4  N   UNL     1      -6.099  12.791  21.480  0.00  0.00    +0.000 NA
ATOM      5  C   UNL     1      -7.292  12.373  21.024  0.00  0.00    +0.000 A 
ATOM      6  C   UNL     1      -7.492  11.665  19.855  0.00  0.00    +0.000 A 
ATOM      7  C   UNL     1      -6.383  11.360  19.068  0.00  0.00    +0.000 A 
ATOM      8  C   UNL     1      -5.099  11.809  19.466  0.00  0.00    +0.000 A 
ATOM      9  C   UNL     1      -3.771  11.727  18.857  0.00  0.00    +0.000 A 
ENDROOT
BRANCH   9  10
ATOM     10  C   UNL     1      -3.488  11.172  17.514  0.00  0.00    +0.000 A 
ATOM     11  C   UNL     1      -4.172  11.676  16.391  0.00  0.00    +0.000 A 
ATOM     12  C   UNL     1      -3.989  11.129  15.114  0.00  0.00    +0.000 A 
ATOM     13  C   UNL     1      -3.063  10.112  14.925  0.00  0.00    +0.000 A 
ATOM     14 CL   UNL     1      -2.809   9.460  13.355  0.00  0.00    +0.000 Cl
ATOM     15  C   UNL     1      -2.349   9.618  16.009  0.00  0.00    +0.000 A 
ATOM     16  C   UNL     1      -2.587  10.122  17.295  0.00  0.00    +0.000 A 
ENDBRANCH   9  10
BRANCH   1  18
ATOM     17  O   UNL     1      -0.689  13.292  20.770  0.00  0.00    +0.000 OA
ATOM     18  S   UNL     1      -1.035  12.531  19.586  0.00  0.00    +0.000 S 
ATOM     19  O   UNL     1      -0.804  13.060  18.253  0.00  0.00    +0.000 OA
BRANCH  18  20
ATOM     20  C   UNL     1      -0.159  10.980  19.659  0.00  0.00    +0.000 A 
ATOM     21  C   UNL     1      -0.241  10.177  20.807  0.00  0.00    +0.000 A 
ATOM     22  C   UNL     1       0.514   9.003  20.876  0.00  0.00    +0.000 A 
ATOM     23  C   UNL     1       1.349   8.642  19.817  0.00  0.00    +0.000 A 
ATOM     24 CL   UNL     1       2.299   7.213  19.923  0.00  0.00    +0.000 Cl
ATOM     25  C   UNL     1       1.436   9.446  18.678  0.00  0.00    +0.000 A 
ATOM     26  C   UNL     1       0.684  10.619  18.600  0.00  0.00    +0.000 A 
ENDBRANCH  18  20
ENDBRANCH   1  18
TORSDOF 3
ENDMDL
MODEL 6
REMARK VINA RESULT:      -7.9      3.147      6.647
REMARK  Name = 
REMARK  3 active torsions:
REMARK  status: ('A' for Active; 'I' for Inactive)
REMARK    1  A    between atoms: S_2  and  C_4
REMARK    2  A    between atoms: S_2  and  C_11
REMARK    3  A    between atoms: C_19  and  C_20
REMARK                            x       y       z     vdW  Elec       q    Type
REMARK                         _______ _______ _______ _____ _____    ______ ____
ROOT
ATOM      1  C   UNL     1       5.227   4.860  17.193  0.00  0.00    +0.000 A 
ATOM      2  S   UNL     1       4.551   3.710  16.118  0.00  0.00    +0.000 S 
ATOM      3  C   UNL     1       5.650   4.073  14.893  0.00  0.00    +0.000 A 
ATOM      4  N   UNL     1       5.564   3.440  13.705  0.00  0.00    +0.000 NA
ATOM      5  C   UNL     1       6.502   3.804  12.813  0.00  0.00    +0.000 A 
ATOM      6  C   UNL     1       7.507   4.721  13.047  0.00  0.00    +0.000 A 
ATOM      7  C   UNL     1       7.564   5.337  14.296  0.00  0.00    +0.000 A 
ATOM      8  C   UNL     1       6.580   5.034  15.269  0.00  0.00    +0.000 A 
ATOM      9  C   UNL     1       6.310   5.536  16.617  0.00  0.00    +0.000 A 
ENDROOT
BRANCH   9  10
ATOM     10  C   UNL     1       7.042   6.645  17.271  0.00  0.00    +0.000 A 
ATOM     11  C   UNL     1       7.871   6.378  18.377  0.00  0.00    +0.000 A 
ATOM     12  C   UNL     1       8.523   7.407  19.070  0.00  0.00    +0.000 A 
ATOM     13  C   UNL     1       8.412   8.717  18.626  0.00  0.00    +0.000 A 
ATOM     14 CL   UNL     1       9.235   9.979  19.453  0.00  0.00    +0.000 Cl
ATOM     15  C   UNL     1       7.626   9.006  17.517  0.00  0.00    +0.000 A 
ATOM     16  C   UNL     1       6.923   7.981  16.870  0.00  0.00    +0.000 A 
ENDBRANCH   9  10
BRANCH   1  18
ATOM     17  O   UNL     1       5.432   5.151  19.741  0.00  0.00    +0.000 OA
ATOM     18  S   UNL     1       4.380   4.960  18.764  0.00  0.00    +0.000 S 
ATOM     19  O   UNL     1       3.513   3.796  18.804  0.00  0.00    +0.000 OA
BRANCH  18  20
ATOM     20  C   UNL     1       3.303   6.379  18.837  0.00  0.00    +0.000 A 
ATOM     21  C   UNL     1       3.296   7.315  17.792  0.00  0.00    +0.000 A 
ATOM     22  C   UNL     1       2.503   8.460  17.903  0.00  0.00    +0.000 A 
ATOM     23  C   UNL     1       1.736   8.674  19.051  0.00  0.00    +0.000 A 
ATOM     24 CL   UNL     1       0.789  10.101  19.194  0.00  0.00    +0.000 Cl
ATOM     25  C   UNL     1       1.750   7.746  20.094  0.00  0.00    +0.000 A 
ATOM     26  C   UNL     1       2.537   6.598  19.990  0.00  0.00    +0.000 A 
ENDBRANCH  18  20
ENDBRANCH   1  18
TORSDOF 3
ENDMDL
MODEL 7
REMARK VINA RESULT:      -7.8      0.998      1.384
REMARK  Name = 
REMARK  3 active torsions:
REMARK  status: ('A' for Active; 'I' for Inactive)
REMARK    1  A    between atoms: S_2  and  C_4
REMARK    2  A    between atoms: S_2  and  C_11
REMARK    3  A    between atoms: C_19  and  C_20
REMARK                            x       y       z     vdW  Elec       q    Type
REMARK                         _______ _______ _______ _____ _____    ______ ____
ROOT
ATOM      1  C   UNL     1       4.052   5.240  17.643  0.00  0.00    +0.000 A 
ATOM      2  S   UNL     1       4.404   3.564  17.686  0.00  0.00    +0.000 S 
ATOM      3  C   UNL     1       3.068   3.215  18.651  0.00  0.00    +0.000 A 
ATOM      4  N   UNL     1       2.845   1.947  19.055  0.00  0.00    +0.000 NA
ATOM      5  C   UNL     1       1.743   1.790  19.808  0.00  0.00    +0.000 A 
ATOM      6  C   UNL     1       0.864   2.799  20.149  0.00  0.00    +0.000 A 
ATOM      7  C   UNL     1       1.129   4.090  19.696  0.00  0.00    +0.000 A 
ATOM      8  C   UNL     1       2.298   4.335  18.933  0.00  0.00    +0.000 A 
ATOM      9  C   UNL     1       2.897   5.547  18.374  0.00  0.00    +0.000 A 
ENDROOT
BRANCH   9  10
ATOM     10  C   UNL     1       2.390   6.922  18.591  0.00  0.00    +0.000 A 
ATOM     11  C   UNL     1       2.171   7.387  19.901  0.00  0.00    +0.000 A 
ATOM     12  C   UNL     1       1.623   8.652  20.148  0.00  0.00    +0.000 A 
ATOM     13  C   UNL     1       1.348   9.505  19.088  0.00  0.00    +0.000 A 
ATOM     14 CL   UNL     1       0.705  11.071  19.386  0.00  0.00    +0.000 Cl
ATOM     15  C   UNL     1       1.584   9.085  17.785  0.00  0.00    +0.000 A 
ATOM     16  C   UNL     1       2.069   7.792  17.542  0.00  0.00    +0.000 A 
ENDBRANCH   9  10
BRANCH   1  18
ATOM     17  O   UNL     1       6.398   6.296  17.601  0.00  0.00    +0.000 OA
ATOM     18  S   UNL     1       5.247   6.202  16.725  0.00  0.00    +0.000 S 
ATOM     19  O   UNL     1       4.528   7.387  16.291  0.00  0.00    +0.000 OA
BRANCH  18  20
ATOM     20  C   UNL     1       5.760   5.363  15.238  0.00  0.00    +0.000 A 
ATOM     21  C   UNL     1       4.864   4.527  14.554  0.00  0.00    +0.000 A 
ATOM     22  C   UNL     1       5.308   3.818  13.435  0.00  0.00    +0.000 A 
ATOM     23  C   UNL     1       6.634   3.933  13.012  0.00  0.00    +0.000 A 
ATOM     24 CL   UNL     1       7.180   3.032  11.654  0.00  0.00    +0.000 Cl
ATOM     25  C   UNL     1       7.527   4.759  13.698  0.00  0.00    +0.000 A 
ATOM     26  C   UNL     1       7.091   5.473  14.815  0.00  0.00    +0.000 A 
ENDBRANCH  18  20
ENDBRANCH   1  18
TORSDOF 3
ENDMDL
MODEL 8
REMARK VINA RESULT:      -7.7      6.024     10.474
REMARK  Name = 
REMARK  3 active torsions:
REMARK  status: ('A' for Active; 'I' for Inactive)
REMARK    1  A    between atoms: S_2  and  C_4
REMARK    2  A    between atoms: S_2  and  C_11
REMARK    3  A    between atoms: C_19  and  C_20
REMARK                            x       y       z     vdW  Elec       q    Type
REMARK                         _______ _______ _______ _____ _____    ______ ____
ROOT
ATOM      1  C   UNL     1      -0.844  11.299  20.066  0.00  0.00    +0.000 A 
ATOM      2  S   UNL     1      -2.222  12.269  19.757  0.00  0.00    +0.000 S 
ATOM      3  C   UNL     1      -2.588  11.456  18.328  0.00  0.00    +0.000 A 
ATOM      4  N   UNL     1      -3.644  11.846  17.586  0.00  0.00    +0.000 NA
ATOM      5  C   UNL     1      -3.844  11.114  16.476  0.00  0.00    +0.000 A 
ATOM      6  C   UNL     1      -3.082  10.028  16.094  0.00  0.00    +0.000 A 
ATOM      7  C   UNL     1      -2.010   9.653  16.902  0.00  0.00    +0.000 A 
ATOM      8  C   UNL     1      -1.715  10.408  18.064  0.00  0.00    +0.000 A 
ATOM      9  C   UNL     1      -0.652  10.336  19.068  0.00  0.00    +0.000 A 
ENDROOT
BRANCH   9  10
ATOM     10  C   UNL     1       0.501   9.409  19.015  0.00  0.00    +0.000 A 
ATOM     11  C   UNL     1       1.301   9.353  17.859  0.00  0.00    +0.000 A 
ATOM     12  C   UNL     1       2.356   8.439  17.738  0.00  0.00    +0.000 A 
ATOM     13  C   UNL     1       2.674   7.609  18.804  0.00  0.00    +0.000 A 
ATOM     14 CL   UNL     1       3.988   6.508  18.675  0.00  0.00    +0.000 Cl
ATOM     15  C   UNL     1       1.923   7.664  19.971  0.00  0.00    +0.000 A 
ATOM     16  C   UNL     1       0.826   8.533  20.059  0.00  0.00    +0.000 A 
ENDBRANCH   9  10
BRANCH   1  18
ATOM     17  O   UNL     1       1.175  12.536  21.073  0.00  0.00    +0.000 OA
ATOM     18  S   UNL     1       0.044  11.763  21.546  0.00  0.00    +0.000 S 
ATOM     19  O   UNL     1       0.230  10.525  22.282  0.00  0.00    +0.000 OA
BRANCH  18  20
ATOM     20  C   UNL     1      -0.937  12.817  22.596  0.00  0.00    +0.000 A 
ATOM     21  C   UNL     1      -2.127  12.338  23.164  0.00  0.00    +0.000 A 
ATOM     22  C   UNL     1      -2.922  13.203  23.921  0.00  0.00    +0.000 A 
ATOM     23  C   UNL     1      -2.539  14.534  24.096  0.00  0.00    +0.000 A 
ATOM     24 CL   UNL     1      -3.540  15.600  25.001  0.00  0.00    +0.000 Cl
ATOM     25  C   UNL     1      -1.359  15.013  23.524  0.00  0.00    +0.000 A 
ATOM     26  C   UNL     1      -0.558  14.155  22.770  0.00  0.00    +0.000 A 
ENDBRANCH  18  20
ENDBRANCH   1  18
TORSDOF 3
ENDMDL
MODEL 9
REMARK VINA RESULT:      -7.7      5.811      8.769
REMARK  Name = 
REMARK  3 active torsions:
REMARK  status: ('A' for Active; 'I' for Inactive)
REMARK    1  A    between atoms: S_2  and  C_4
REMARK    2  A    between atoms: S_2  and  C_11
REMARK    3  A    between atoms: C_19  and  C_20
REMARK                            x       y       z     vdW  Elec       q    Type
REMARK                         _______ _______ _______ _____ _____    ______ ____
ROOT
ATOM      1  C   UNL     1      -0.569  11.687  20.010  0.00  0.00    +0.000 A 
ATOM      2  S   UNL     1      -1.955  12.688  19.895  0.00  0.00    +0.000 S 
ATOM      3  C   UNL     1      -2.682  11.703  18.738  0.00  0.00    +0.000 A 
ATOM      4  N   UNL     1      -3.878  12.049  18.219  0.00  0.00    +0.000 NA
ATOM      5  C   UNL     1      -4.364  11.179  17.316  0.00  0.00    +0.000 A 
ATOM      6  C   UNL     1      -3.748  10.004  16.934  0.00  0.00    +0.000 A 
ATOM      7  C   UNL     1      -2.521   9.682  17.510  0.00  0.00    +0.000 A 
ATOM      8  C   UNL     1      -1.929  10.576  18.437  0.00  0.00    +0.000 A 
ATOM      9  C   UNL     1      -0.654  10.580  19.157  0.00  0.00    +0.000 A 
ENDROOT
BRANCH   9  10
ATOM     10  C   UNL     1       0.427   9.585  18.973  0.00  0.00    +0.000 A 
ATOM     11  C   UNL     1       0.753   8.706  20.023  0.00  0.00    +0.000 A 
ATOM     12  C   UNL     1       1.817   7.800  19.918  0.00  0.00    +0.000 A 
ATOM     13  C   UNL     1       2.531   7.709  18.731  0.00  0.00    +0.000 A 
ATOM     14 CL   UNL     1       3.816   6.577  18.585  0.00  0.00    +0.000 Cl
ATOM     15  C   UNL     1       2.211   8.541  17.667  0.00  0.00    +0.000 A 
ATOM     16  C   UNL     1       1.189   9.492  17.802  0.00  0.00    +0.000 A 
ENDBRANCH   9  10
BRANCH   1  18
ATOM     17  O   UNL     1       1.215  11.115  21.773  0.00  0.00    +0.000 OA
ATOM     18  S   UNL     1       0.668  12.301  21.145  0.00  0.00    +0.000 S 
ATOM     19  O   UNL     1      -0.004  13.327  21.923  0.00  0.00    +0.000 OA
BRANCH  18  20
ATOM     20  C   UNL     1       1.995  13.125  20.285  0.00  0.00    +0.000 A 
ATOM     21  C   UNL     1       2.821  14.033  20.966  0.00  0.00    +0.000 A 
ATOM     22  C   UNL     1       3.806  14.726  20.257  0.00  0.00    +0.000 A 
ATOM     23  C   UNL     1       3.955  14.524  18.883  0.00  0.00    +0.000 A 
ATOM     24 CL   UNL     1       5.148  15.405  18.013  0.00  0.00    +0.000 Cl
ATOM     25  C   UNL     1       3.128  13.626  18.205  0.00  0.00    +0.000 A 
ATOM     26  C   UNL     1       2.144  12.928  18.906  0.00  0.00    +0.000 A 
ENDBRANCH  18  20
ENDBRANCH   1  18
TORSDOF 3
ENDMDL
