MODEL 1
REMARK VINA RESULT:      -8.9      0.000      0.000
REMARK  Name = 
REMARK  3 active torsions:
REMARK  status: ('A' for Active; 'I' for Inactive)
REMARK    1  A    between atoms: C_1  and  N_2
REMARK    2  A    between atoms: C_14  and  C_15
REMARK    3  A    between atoms: N_20  and  C_21
REMARK                            x       y       z     vdW  Elec       q    Type
REMARK                         _______ _______ _______ _____ _____    ______ ____
ROOT
ATOM      1  C   UNL     1       2.393   4.161  21.146  0.00  0.00    +0.000 C 
ATOM      2  N   UNL     1       2.791   4.710  19.857  0.00  0.00    +0.000 N 
ATOM      3  C   UNL     1       3.683   3.982  19.083  0.00  0.00    +0.000 C 
ATOM      4  O   UNL     1       4.197   2.934  19.486  0.00  0.00    +0.000 OA
ATOM      5  C   UNL     1       3.881   4.469  17.640  0.00  0.00    +0.000 C 
ATOM      6  C   UNL     1       5.199   3.903  17.106  0.00  0.00    +0.000 C 
ATOM      7  C   UNL     1       5.370   4.255  15.645  0.00  0.00    +0.000 C 
ATOM      8  C   UNL     1       5.272   5.749  15.396  0.00  0.00    +0.000 C 
ATOM      9  C   UNL     1       4.731   6.606  16.541  0.00  0.00    +0.000 C 
ATOM     10  N   UNL     1       3.811   5.930  17.460  0.00  0.00    +0.000 N 
ATOM     11  C   UNL     1       3.031   6.660  18.360  0.00  0.00    +0.000 A 
ATOM     12  C   UNL     1       2.766   8.033  18.167  0.00  0.00    +0.000 A 
ATOM     13  C   UNL     1       2.010   8.786  19.071  0.00  0.00    +0.000 A 
ATOM     14  C   UNL     1       1.465   8.176  20.192  0.00  0.00    +0.000 A 
ATOM     15  C   UNL     1       1.631   6.802  20.359  0.00  0.00    +0.000 A 
ATOM     16  C   UNL     1       2.456   6.053  19.506  0.00  0.00    +0.000 A 
ENDROOT
BRANCH  14  17
ATOM     17  C   UNL     1       0.644   8.977  21.132  0.00  0.00    +0.000 C 
ATOM     18  O   UNL     1       0.586   8.587  22.297  0.00  0.00    +0.000 OA
ATOM     19  N   UNL     1       0.017  10.140  20.701  0.00  0.00    +0.000 N 
ATOM     20  C   UNL     1      -0.529  11.055  21.709  0.00  0.00    +0.000 C 
ATOM     21  C   UNL     1      -0.009  12.489  21.480  0.00  0.00    +0.000 C 
ATOM     22  N   UNL     1      -0.299  12.899  20.092  0.00  0.00    +0.000 N 
ATOM     23  C   UNL     1       0.232  11.991  19.058  0.00  0.00    +0.000 C 
ATOM     24  C   UNL     1      -0.281  10.557  19.318  0.00  0.00    +0.000 C 
BRANCH  22  25
ATOM     25  C   UNL     1      -0.636  14.202  19.780  0.00  0.00    +0.000 A 
ATOM     26  C   UNL     1      -0.027  14.913  18.735  0.00  0.00    +0.000 A 
ATOM     27  C   UNL     1      -0.318  16.261  18.494  0.00  0.00    +0.000 A 
ATOM     28  C   UNL     1      -1.231  16.926  19.303  0.00  0.00    +0.000 A 
ATOM     29 CL   UNL     1      -1.564  18.592  19.038  0.00  0.00    +0.000 Cl
ATOM     30  C   UNL     1      -1.864  16.248  20.336  0.00  0.00    +0.000 A 
ATOM     31  C   UNL     1      -1.567  14.900  20.565  0.00  0.00    +0.000 A 
ENDBRANCH  22  25
ENDBRANCH  14  17
TORSDOF 2
ENDMDL
MODEL 2
REMARK VINA RESULT:      -8.7      1.030      1.364
REMARK  Name = 
REMARK  3 active torsions:
REMARK  status: ('A' for Active; 'I' for Inactive)
REMARK    1  A    between atoms: C_1  and  N_2
REMARK    2  A    between atoms: C_14  and  C_15
REMARK    3  A    between atoms: N_20  and  C_21
REMARK                            x       y       z     vdW  Elec       q    Type
REMARK                         _______ _______ _______ _____ _____    ______ ____
ROOT
ATOM      1  C   UNL     1       2.720   3.956  20.695  0.00  0.00    +0.000 C 
ATOM      2  N   UNL     1       3.174   4.449  19.402  0.00  0.00    +0.000 N 
ATOM      3  C   UNL     1       4.083   3.679  18.690  0.00  0.00    +0.000 C 
ATOM      4  O   UNL     1       4.565   2.641  19.152  0.00  0.00    +0.000 OA
ATOM      5  C   UNL     1       4.342   4.108  17.238  0.00  0.00    +0.000 C 
ATOM      6  C   UNL     1       5.669   3.504  16.776  0.00  0.00    +0.000 C 
ATOM      7  C   UNL     1       5.900   3.797  15.311  0.00  0.00    +0.000 C 
ATOM      8  C   UNL     1       5.834   5.281  15.002  0.00  0.00    +0.000 C 
ATOM      9  C   UNL     1       5.264   6.190  16.092  0.00  0.00    +0.000 C 
ATOM     10  N   UNL     1       4.300   5.562  17.000  0.00  0.00    +0.000 N 
ATOM     11  C   UNL     1       3.499   6.336  17.843  0.00  0.00    +0.000 A 
ATOM     12  C   UNL     1       3.262   7.704  17.588  0.00  0.00    +0.000 A 
ATOM     13  C   UNL     1       2.485   8.502  18.434  0.00  0.00    +0.000 A 
ATOM     14  C   UNL     1       1.890   7.943  19.556  0.00  0.00    +0.000 A 
ATOM     15  C   UNL     1       2.028   6.575  19.780  0.00  0.00    +0.000 A 
ATOM     16  C   UNL     1       2.872   5.782  18.988  0.00  0.00    +0.000 A 
ENDROOT
BRANCH  14  17
ATOM     17  C   UNL     1       1.047   8.792  20.433  0.00  0.00    +0.000 C 
ATOM     18  O   UNL     1       0.755   8.338  21.539  0.00  0.00    +0.000 OA
ATOM     19  N   UNL     1       0.655  10.059  20.018  0.00  0.00    +0.000 N 
ATOM     20  C   UNL     1       0.085  10.975  21.013  0.00  0.00    +0.000 C 
ATOM     21  C   UNL     1       0.822  12.330  20.987  0.00  0.00    +0.000 C 
ATOM     22  N   UNL     1       0.809  12.869  19.613  0.00  0.00    +0.000 N 
ATOM     23  C   UNL     1       1.368  11.963  18.592  0.00  0.00    +0.000 C 
ATOM     24  C   UNL     1       0.634  10.605  18.648  0.00  0.00    +0.000 C 
BRANCH  22  25
ATOM     25  C   UNL     1       0.702  14.224  19.370  0.00  0.00    +0.000 A 
ATOM     26  C   UNL     1      -0.530  14.892  19.324  0.00  0.00    +0.000 A 
ATOM     27  C   UNL     1      -0.621  16.248  18.986  0.00  0.00    +0.000 A 
ATOM     28  C   UNL     1       0.532  16.964  18.686  0.00  0.00    +0.000 A 
ATOM     29 CL   UNL     1       0.424  18.619  18.231  0.00  0.00    +0.000 Cl
ATOM     30  C   UNL     1       1.769  16.337  18.737  0.00  0.00    +0.000 A 
ATOM     31  C   UNL     1       1.847  14.984  19.079  0.00  0.00    +0.000 A 
ENDBRANCH  22  25
ENDBRANCH  14  17
TORSDOF 2
ENDMDL
MODEL 3
REMARK VINA RESULT:      -8.5      2.484      3.927
REMARK  Name = 
REMARK  3 active torsions:
REMARK  status: ('A' for Active; 'I' for Inactive)
REMARK    1  A    between atoms: C_1  and  N_2
REMARK    2  A    between atoms: C_14  and  C_15
REMARK    3  A    between atoms: N_20  and  C_21
REMARK                            x       y       z     vdW  Elec       q    Type
REMARK                         _______ _______ _______ _____ _____    ______ ____
ROOT
ATOM      1  C   UNL     1       4.789   6.444  16.282  0.00  0.00    +0.000 C 
ATOM      2  N   UNL     1       4.367   5.846  17.541  0.00  0.00    +0.000 N 
ATOM      3  C   UNL     1       4.659   4.508  17.760  0.00  0.00    +0.000 C 
ATOM      4  O   UNL     1       5.192   3.804  16.897  0.00  0.00    +0.000 OA
ATOM      5  C   UNL     1       4.422   3.988  19.186  0.00  0.00    +0.000 C 
ATOM      6  C   UNL     1       4.313   2.462  19.141  0.00  0.00    +0.000 C 
ATOM      7  C   UNL     1       4.205   1.901  20.541  0.00  0.00    +0.000 C 
ATOM      8  C   UNL     1       3.056   2.512  21.321  0.00  0.00    +0.000 C 
ATOM      9  C   UNL     1       2.405   3.761  20.728  0.00  0.00    +0.000 C 
ATOM     10  N   UNL     1       3.272   4.589  19.885  0.00  0.00    +0.000 N 
ATOM     11  C   UNL     1       2.897   5.886  19.525  0.00  0.00    +0.000 A 
ATOM     12  C   UNL     1       1.925   6.604  20.253  0.00  0.00    +0.000 A 
ATOM     13  C   UNL     1       1.517   7.893  19.892  0.00  0.00    +0.000 A 
ATOM     14  C   UNL     1       2.097   8.520  18.799  0.00  0.00    +0.000 A 
ATOM     15  C   UNL     1       3.126   7.872  18.119  0.00  0.00    +0.000 A 
ATOM     16  C   UNL     1       3.485   6.549  18.418  0.00  0.00    +0.000 A 
ENDROOT
BRANCH  14  17
ATOM     17  C   UNL     1       1.676   9.896  18.439  0.00  0.00    +0.000 C 
ATOM     18  O   UNL     1       1.937  10.281  17.301  0.00  0.00    +0.000 OA
ATOM     19  N   UNL     1       0.977  10.678  19.351  0.00  0.00    +0.000 N 
ATOM     20  C   UNL     1       0.323  11.899  18.869  0.00  0.00    +0.000 C 
ATOM     21  C   UNL     1      -1.162  11.922  19.290  0.00  0.00    +0.000 C 
ATOM     22  N   UNL     1      -1.259  11.739  20.751  0.00  0.00    +0.000 N 
ATOM     23  C   UNL     1      -0.601  10.522  21.263  0.00  0.00    +0.000 C 
ATOM     24  C   UNL     1       0.876  10.505  20.813  0.00  0.00    +0.000 C 
BRANCH  22  25
ATOM     25  C   UNL     1      -2.226  12.384  21.496  0.00  0.00    +0.000 A 
ATOM     26  C   UNL     1      -2.436  12.120  22.858  0.00  0.00    +0.000 A 
ATOM     27  C   UNL     1      -3.481  12.719  23.572  0.00  0.00    +0.000 A 
ATOM     28  C   UNL     1      -4.343  13.599  22.927  0.00  0.00    +0.000 A 
ATOM     29 CL   UNL     1      -5.652  14.307  23.787  0.00  0.00    +0.000 Cl
ATOM     30  C   UNL     1      -4.154  13.894  21.584  0.00  0.00    +0.000 A 
ATOM     31  C   UNL     1      -3.104  13.293  20.883  0.00  0.00    +0.000 A 
ENDBRANCH  22  25
ENDBRANCH  14  17
TORSDOF 2
ENDMDL
MODEL 4
REMARK VINA RESULT:      -8.2      2.744      3.065
REMARK  Name = 
REMARK  3 active torsions:
REMARK  status: ('A' for Active; 'I' for Inactive)
REMARK    1  A    between atoms: C_1  and  N_2
REMARK    2  A    between atoms: C_14  and  C_15
REMARK    3  A    between atoms: N_20  and  C_21
REMARK                            x       y       z     vdW  Elec       q    Type
REMARK                         _______ _______ _______ _____ _____    ______ ____
ROOT
ATOM      1  C   UNL     1       2.481   4.726  21.073  0.00  0.00    +0.000 C 
ATOM      2  N   UNL     1       2.875   5.153  19.738  0.00  0.00    +0.000 N 
ATOM      3  C   UNL     1       3.727   4.332  19.013  0.00  0.00    +0.000 C 
ATOM      4  O   UNL     1       4.211   3.302  19.494  0.00  0.00    +0.000 OA
ATOM      5  C   UNL     1       3.916   4.691  17.531  0.00  0.00    +0.000 C 
ATOM      6  C   UNL     1       5.203   4.036  17.027  0.00  0.00    +0.000 C 
ATOM      7  C   UNL     1       5.361   4.261  15.540  0.00  0.00    +0.000 C 
ATOM      8  C   UNL     1       5.310   5.731  15.170  0.00  0.00    +0.000 C 
ATOM      9  C   UNL     1       4.821   6.699  16.248  0.00  0.00    +0.000 C 
ATOM     10  N   UNL     1       3.894   6.134  17.233  0.00  0.00    +0.000 N 
ATOM     11  C   UNL     1       3.156   6.963  18.081  0.00  0.00    +0.000 A 
ATOM     12  C   UNL     1       2.936   8.325  17.779  0.00  0.00    +0.000 A 
ATOM     13  C   UNL     1       2.223   9.176  18.630  0.00  0.00    +0.000 A 
ATOM     14  C   UNL     1       1.678   8.680  19.805  0.00  0.00    +0.000 A 
ATOM     15  C   UNL     1       1.798   7.320  20.082  0.00  0.00    +0.000 A 
ATOM     16  C   UNL     1       2.581   6.474  19.282  0.00  0.00    +0.000 A 
ENDROOT
BRANCH  14  17
ATOM     17  C   UNL     1       0.902   9.586  20.688  0.00  0.00    +0.000 C 
ATOM     18  O   UNL     1       1.488  10.055  21.663  0.00  0.00    +0.000 OA
ATOM     19  N   UNL     1      -0.413   9.910  20.380  0.00  0.00    +0.000 N 
ATOM     20  C   UNL     1      -1.045  11.025  21.094  0.00  0.00    +0.000 C 
ATOM     21  C   UNL     1      -1.657  12.032  20.097  0.00  0.00    +0.000 C 
ATOM     22  N   UNL     1      -2.574  11.321  19.185  0.00  0.00    +0.000 N 
ATOM     23  C   UNL     1      -1.966  10.189  18.460  0.00  0.00    +0.000 C 
ATOM     24  C   UNL     1      -1.339   9.205  19.472  0.00  0.00    +0.000 C 
BRANCH  22  25
ATOM     25  C   UNL     1      -3.734  11.912  18.723  0.00  0.00    +0.000 A 
ATOM     26  C   UNL     1      -4.549  12.717  19.532  0.00  0.00    +0.000 A 
ATOM     27  C   UNL     1      -5.767  13.231  19.070  0.00  0.00    +0.000 A 
ATOM     28  C   UNL     1      -6.192  12.944  17.778  0.00  0.00    +0.000 A 
ATOM     29 CL   UNL     1      -7.705  13.539  17.217  0.00  0.00    +0.000 Cl
ATOM     30  C   UNL     1      -5.402  12.163  16.946  0.00  0.00    +0.000 A 
ATOM     31  C   UNL     1      -4.186  11.659  17.418  0.00  0.00    +0.000 A 
ENDBRANCH  22  25
ENDBRANCH  14  17
TORSDOF 2
ENDMDL
MODEL 5
REMARK VINA RESULT:      -8.2      3.781      9.757
REMARK  Name = 
REMARK  3 active torsions:
REMARK  status: ('A' for Active; 'I' for Inactive)
REMARK    1  A    between atoms: C_1  and  N_2
REMARK    2  A    between atoms: C_14  and  C_15
REMARK    3  A    between atoms: N_20  and  C_21
REMARK                            x       y       z     vdW  Elec       q    Type
REMARK                         _______ _______ _______ _____ _____    ______ ____
ROOT
ATOM      1  C   UNL     1       0.014   9.333  23.353  0.00  0.00    +0.000 C 
ATOM      2  N   UNL     1       0.180  10.204  22.198  0.00  0.00    +0.000 N 
ATOM      3  C   UNL     1      -0.488  11.419  22.192  0.00  0.00    +0.000 C 
ATOM      4  O   UNL     1      -1.267  11.743  23.094  0.00  0.00    +0.000 OA
ATOM      5  C   UNL     1      -0.092  12.405  21.083  0.00  0.00    +0.000 C 
ATOM      6  C   UNL     1      -1.212  13.434  20.916  0.00  0.00    +0.000 C 
ATOM      7  C   UNL     1      -0.807  14.497  19.920  0.00  0.00    +0.000 C 
ATOM      8  C   UNL     1      -0.396  13.910  18.583  0.00  0.00    +0.000 C 
ATOM      9  C   UNL     1      -0.161  12.399  18.534  0.00  0.00    +0.000 C 
ATOM     10  N   UNL     1       0.264  11.783  19.795  0.00  0.00    +0.000 N 
ATOM     11  C   UNL     1       0.785  10.487  19.819  0.00  0.00    +0.000 A 
ATOM     12  C   UNL     1       1.311   9.878  18.660  0.00  0.00    +0.000 A 
ATOM     13  C   UNL     1       1.812   8.573  18.660  0.00  0.00    +0.000 A 
ATOM     14  C   UNL     1       1.831   7.839  19.837  0.00  0.00    +0.000 A 
ATOM     15  C   UNL     1       1.405   8.448  21.016  0.00  0.00    +0.000 A 
ATOM     16  C   UNL     1       0.822   9.725  21.015  0.00  0.00    +0.000 A 
ENDROOT
BRANCH  14  17
ATOM     17  C   UNL     1       2.387   6.464  19.832  0.00  0.00    +0.000 C 
ATOM     18  O   UNL     1       1.885   5.654  20.609  0.00  0.00    +0.000 OA
ATOM     19  N   UNL     1       3.401   6.120  18.946  0.00  0.00    +0.000 N 
ATOM     20  C   UNL     1       3.715   4.699  18.760  0.00  0.00    +0.000 C 
ATOM     21  C   UNL     1       3.700   4.331  17.262  0.00  0.00    +0.000 C 
ATOM     22  N   UNL     1       4.604   5.236  16.526  0.00  0.00    +0.000 N 
ATOM     23  C   UNL     1       4.315   6.672  16.702  0.00  0.00    +0.000 C 
ATOM     24  C   UNL     1       4.311   7.016  18.208  0.00  0.00    +0.000 C 
BRANCH  22  25
ATOM     25  C   UNL     1       5.347   4.794  15.449  0.00  0.00    +0.000 A 
ATOM     26  C   UNL     1       6.689   5.155  15.255  0.00  0.00    +0.000 A 
ATOM     27  C   UNL     1       7.396   4.770  14.109  0.00  0.00    +0.000 A 
ATOM     28  C   UNL     1       6.766   4.012  13.130  0.00  0.00    +0.000 A 
ATOM     29 CL   UNL     1       7.616   3.569  11.702  0.00  0.00    +0.000 Cl
ATOM     30  C   UNL     1       5.444   3.624  13.298  0.00  0.00    +0.000 A 
ATOM     31  C   UNL     1       4.749   4.012  14.448  0.00  0.00    +0.000 A 
ENDBRANCH  22  25
ENDBRANCH  14  17
TORSDOF 2
ENDMDL
MODEL 6
REMARK VINA RESULT:      -8.0      2.474      3.881
REMARK  Name = 
REMARK  3 active torsions:
REMARK  status: ('A' for Active; 'I' for Inactive)
REMARK    1  A    between atoms: C_1  and  N_2
REMARK    2  A    between atoms: C_14  and  C_15
REMARK    3  A    between atoms: N_20  and  C_21
REMARK                            x       y       z     vdW  Elec       q    Type
REMARK                         _______ _______ _______ _____ _____    ______ ____
ROOT
ATOM      1  C   UNL     1       4.772   6.555  16.414  0.00  0.00    +0.000 C 
ATOM      2  N   UNL     1       4.348   5.913  17.650  0.00  0.00    +0.000 N 
ATOM      3  C   UNL     1       4.696   4.586  17.851  0.00  0.00    +0.000 C 
ATOM      4  O   UNL     1       5.282   3.924  16.988  0.00  0.00    +0.000 OA
ATOM      5  C   UNL     1       4.448   4.026  19.260  0.00  0.00    +0.000 C 
ATOM      6  C   UNL     1       4.410   2.499  19.184  0.00  0.00    +0.000 C 
ATOM      7  C   UNL     1       4.294   1.905  20.569  0.00  0.00    +0.000 C 
ATOM      8  C   UNL     1       3.099   2.447  21.331  0.00  0.00    +0.000 C 
ATOM      9  C   UNL     1       2.405   3.677  20.745  0.00  0.00    +0.000 C 
ATOM     10  N   UNL     1       3.255   4.561  19.941  0.00  0.00    +0.000 N 
ATOM     11  C   UNL     1       2.829   5.846  19.596  0.00  0.00    +0.000 A 
ATOM     12  C   UNL     1       1.807   6.505  20.313  0.00  0.00    +0.000 A 
ATOM     13  C   UNL     1       1.350   7.780  19.966  0.00  0.00    +0.000 A 
ATOM     14  C   UNL     1       1.927   8.455  18.900  0.00  0.00    +0.000 A 
ATOM     15  C   UNL     1       3.001   7.868  18.234  0.00  0.00    +0.000 A 
ATOM     16  C   UNL     1       3.413   6.557  18.517  0.00  0.00    +0.000 A 
ENDROOT
BRANCH  14  17
ATOM     17  C   UNL     1       1.452   9.817  18.556  0.00  0.00    +0.000 C 
ATOM     18  O   UNL     1       1.389  10.103  17.361  0.00  0.00    +0.000 OA
ATOM     19  N   UNL     1       1.057  10.697  19.556  0.00  0.00    +0.000 N 
ATOM     20  C   UNL     1       0.321  11.907  19.173  0.00  0.00    +0.000 C 
ATOM     21  C   UNL     1      -0.983  12.030  19.989  0.00  0.00    +0.000 C 
ATOM     22  N   UNL     1      -0.668  11.963  21.429  0.00  0.00    +0.000 N 
ATOM     23  C   UNL     1       0.081  10.760  21.840  0.00  0.00    +0.000 C 
ATOM     24  C   UNL     1       1.369  10.641  20.997  0.00  0.00    +0.000 C 
BRANCH  22  25
ATOM     25  C   UNL     1      -1.370  12.706  22.357  0.00  0.00    +0.000 A 
ATOM     26  C   UNL     1      -2.656  12.354  22.795  0.00  0.00    +0.000 A 
ATOM     27  C   UNL     1      -3.386  13.170  23.668  0.00  0.00    +0.000 A 
ATOM     28  C   UNL     1      -2.836  14.364  24.120  0.00  0.00    +0.000 A 
ATOM     29 CL   UNL     1      -3.743  15.390  25.159  0.00  0.00    +0.000 Cl
ATOM     30  C   UNL     1      -1.560  14.735  23.718  0.00  0.00    +0.000 A 
ATOM     31  C   UNL     1      -0.840  13.910  22.849  0.00  0.00    +0.000 A 
ENDBRANCH  22  25
ENDBRANCH  14  17
TORSDOF 2
ENDMDL
MODEL 7
REMARK VINA RESULT:      -7.8      4.652     10.756
REMARK  Name = 
REMARK  3 active torsions:
REMARK  status: ('A' for Active; 'I' for Inactive)
REMARK    1  A    between atoms: C_1  and  N_2
REMARK    2  A    between atoms: C_14  and  C_15
REMARK    3  A    between atoms: N_20  and  C_21
REMARK                            x       y       z     vdW  Elec       q    Type
REMARK                         _______ _______ _______ _____ _____    ______ ____
ROOT
ATOM      1  C   UNL     1      -5.716  11.639  18.772  0.00  0.00    +0.000 C 
ATOM      2  N   UNL     1      -5.847  13.031  19.177  0.00  0.00    +0.000 N 
ATOM      3  C   UNL     1      -6.583  13.883  18.367  0.00  0.00    +0.000 C 
ATOM      4  O   UNL     1      -7.059  13.513  17.289  0.00  0.00    +0.000 OA
ATOM      5  C   UNL     1      -6.902  15.267  18.952  0.00  0.00    +0.000 C 
ATOM      6  C   UNL     1      -7.259  16.215  17.805  0.00  0.00    +0.000 C 
ATOM      7  C   UNL     1      -7.703  17.555  18.349  0.00  0.00    +0.000 C 
ATOM      8  C   UNL     1      -6.671  18.173  19.273  0.00  0.00    +0.000 C 
ATOM      9  C   UNL     1      -5.534  17.266  19.746  0.00  0.00    +0.000 C 
ATOM     10  N   UNL     1      -5.851  15.837  19.813  0.00  0.00    +0.000 N 
ATOM     11  C   UNL     1      -5.014  14.949  20.494  0.00  0.00    +0.000 A 
ATOM     12  C   UNL     1      -4.096  15.395  21.469  0.00  0.00    +0.000 A 
ATOM     13  C   UNL     1      -3.232  14.524  22.140  0.00  0.00    +0.000 A 
ATOM     14  C   UNL     1      -3.281  13.162  21.877  0.00  0.00    +0.000 A 
ATOM     15  C   UNL     1      -4.242  12.683  20.989  0.00  0.00    +0.000 A 
ATOM     16  C   UNL     1      -5.056  13.552  20.247  0.00  0.00    +0.000 A 
ENDROOT
BRANCH  14  17
ATOM     17  C   UNL     1      -2.378  12.244  22.613  0.00  0.00    +0.000 C 
ATOM     18  O   UNL     1      -2.668  11.992  23.782  0.00  0.00    +0.000 OA
ATOM     19  N   UNL     1      -1.286  11.671  21.973  0.00  0.00    +0.000 N 
ATOM     20  C   UNL     1      -0.599  10.552  22.628  0.00  0.00    +0.000 C 
ATOM     21  C   UNL     1      -0.475   9.352  21.666  0.00  0.00    +0.000 C 
ATOM     22  N   UNL     1       0.175   9.792  20.416  0.00  0.00    +0.000 N 
ATOM     23  C   UNL     1      -0.492  10.922  19.741  0.00  0.00    +0.000 C 
ATOM     24  C   UNL     1      -0.628  12.104  20.726  0.00  0.00    +0.000 C 
BRANCH  22  25
ATOM     25  C   UNL     1       1.038   8.967  19.723  0.00  0.00    +0.000 A 
ATOM     26  C   UNL     1       1.608   7.817  20.289  0.00  0.00    +0.000 A 
ATOM     27  C   UNL     1       2.550   7.046  19.598  0.00  0.00    +0.000 A 
ATOM     28  C   UNL     1       2.942   7.417  18.317  0.00  0.00    +0.000 A 
ATOM     29 CL   UNL     1       4.129   6.498  17.479  0.00  0.00    +0.000 Cl
ATOM     30  C   UNL     1       2.386   8.541  17.722  0.00  0.00    +0.000 A 
ATOM     31  C   UNL     1       1.443   9.301  18.420  0.00  0.00    +0.000 A 
ENDBRANCH  22  25
ENDBRANCH  14  17
TORSDOF 2
ENDMDL
MODEL 8
REMARK VINA RESULT:      -7.8      2.566      3.825
REMARK  Name = 
REMARK  3 active torsions:
REMARK  status: ('A' for Active; 'I' for Inactive)
REMARK    1  A    between atoms: C_1  and  N_2
REMARK    2  A    between atoms: C_14  and  C_15
REMARK    3  A    between atoms: N_20  and  C_21
REMARK                            x       y       z     vdW  Elec       q    Type
REMARK                         _______ _______ _______ _____ _____    ______ ____
ROOT
ATOM      1  C   UNL     1       5.133   6.632  15.961  0.00  0.00    +0.000 C 
ATOM      2  N   UNL     1       4.458   5.842  16.980  0.00  0.00    +0.000 N 
ATOM      3  C   UNL     1       4.584   4.462  16.929  0.00  0.00    +0.000 C 
ATOM      4  O   UNL     1       5.182   3.892  16.011  0.00  0.00    +0.000 OA
ATOM      5  C   UNL     1       4.070   3.689  18.153  0.00  0.00    +0.000 C 
ATOM      6  C   UNL     1       3.827   2.233  17.750  0.00  0.00    +0.000 C 
ATOM      7  C   UNL     1       3.441   1.409  18.957  0.00  0.00    +0.000 C 
ATOM      8  C   UNL     1       2.243   1.984  19.689  0.00  0.00    +0.000 C 
ATOM      9  C   UNL     1       1.816   3.403  19.309  0.00  0.00    +0.000 C 
ATOM     10  N   UNL     1       2.883   4.271  18.805  0.00  0.00    +0.000 N 
ATOM     11  C   UNL     1       2.695   5.652  18.699  0.00  0.00    +0.000 A 
ATOM     12  C   UNL     1       1.688   6.319  19.429  0.00  0.00    +0.000 A 
ATOM     13  C   UNL     1       1.467   7.696  19.317  0.00  0.00    +0.000 A 
ATOM     14  C   UNL     1       2.274   8.459  18.485  0.00  0.00    +0.000 A 
ATOM     15  C   UNL     1       3.335   7.843  17.825  0.00  0.00    +0.000 A 
ATOM     16  C   UNL     1       3.515   6.452  17.863  0.00  0.00    +0.000 A 
ENDROOT
BRANCH  14  17
ATOM     17  C   UNL     1       2.047   9.922  18.391  0.00  0.00    +0.000 C 
ATOM     18  O   UNL     1       2.535  10.503  17.423  0.00  0.00    +0.000 OA
ATOM     19  N   UNL     1       1.276  10.576  19.344  0.00  0.00    +0.000 N 
ATOM     20  C   UNL     1       0.828  11.945  19.063  0.00  0.00    +0.000 C 
ATOM     21  C   UNL     1      -0.698  12.067  19.254  0.00  0.00    +0.000 C 
ATOM     22  N   UNL     1      -1.062  11.593  20.603  0.00  0.00    +0.000 N 
ATOM     23  C   UNL     1      -0.616  10.222  20.915  0.00  0.00    +0.000 C 
ATOM     24  C   UNL     1       0.909  10.113  20.696  0.00  0.00    +0.000 C 
BRANCH  22  25
ATOM     25  C   UNL     1      -2.081  12.183  21.325  0.00  0.00    +0.000 A 
ATOM     26  C   UNL     1      -3.088  12.953  20.726  0.00  0.00    +0.000 A 
ATOM     27  C   UNL     1      -4.059  13.617  21.486  0.00  0.00    +0.000 A 
ATOM     28  C   UNL     1      -4.036  13.521  22.872  0.00  0.00    +0.000 A 
ATOM     29 CL   UNL     1      -5.200  14.366  23.814  0.00  0.00    +0.000 Cl
ATOM     30  C   UNL     1      -3.062  12.754  23.497  0.00  0.00    +0.000 A 
ATOM     31  C   UNL     1      -2.100  12.093  22.727  0.00  0.00    +0.000 A 
ENDBRANCH  22  25
ENDBRANCH  14  17
TORSDOF 2
ENDMDL
MODEL 9
REMARK VINA RESULT:      -7.7      2.818      4.068
REMARK  Name = 
REMARK  3 active torsions:
REMARK  status: ('A' for Active; 'I' for Inactive)
REMARK    1  A    between atoms: C_1  and  N_2
REMARK    2  A    between atoms: C_14  and  C_15
REMARK    3  A    between atoms: N_20  and  C_21
REMARK                            x       y       z     vdW  Elec       q    Type
REMARK                         _______ _______ _______ _____ _____    ______ ____
ROOT
ATOM      1  C   UNL     1       4.761   6.633  16.091  0.00  0.00    +0.000 C 
ATOM      2  N   UNL     1       4.321   6.052  17.351  0.00  0.00    +0.000 N 
ATOM      3  C   UNL     1       4.554   4.701  17.566  0.00  0.00    +0.000 C 
ATOM      4  O   UNL     1       5.049   3.975  16.698  0.00  0.00    +0.000 OA
ATOM      5  C   UNL     1       4.304   4.189  18.992  0.00  0.00    +0.000 C 
ATOM      6  C   UNL     1       4.126   2.670  18.946  0.00  0.00    +0.000 C 
ATOM      7  C   UNL     1       4.003   2.111  20.345  0.00  0.00    +0.000 C 
ATOM      8  C   UNL     1       2.888   2.771  21.135  0.00  0.00    +0.000 C 
ATOM      9  C   UNL     1       2.289   4.050  20.548  0.00  0.00    +0.000 C 
ATOM     10  N   UNL     1       3.187   4.840  19.701  0.00  0.00    +0.000 N 
ATOM     11  C   UNL     1       2.868   6.153  19.346  0.00  0.00    +0.000 A 
ATOM     12  C   UNL     1       1.934   6.913  20.083  0.00  0.00    +0.000 A 
ATOM     13  C   UNL     1       1.583   8.219  19.727  0.00  0.00    +0.000 A 
ATOM     14  C   UNL     1       2.183   8.822  18.631  0.00  0.00    +0.000 A 
ATOM     15  C   UNL     1       3.177   8.130  17.942  0.00  0.00    +0.000 A 
ATOM     16  C   UNL     1       3.478   6.791  18.236  0.00  0.00    +0.000 A 
ENDROOT
BRANCH  14  17
ATOM     17  C   UNL     1       1.821  10.216  18.277  0.00  0.00    +0.000 C 
ATOM     18  O   UNL     1       2.581  10.815  17.516  0.00  0.00    +0.000 OA
ATOM     19  N   UNL     1       0.647  10.782  18.759  0.00  0.00    +0.000 N 
ATOM     20  C   UNL     1       0.176  12.034  18.158  0.00  0.00    +0.000 C 
ATOM     21  C   UNL     1      -1.296  11.903  17.713  0.00  0.00    +0.000 C 
ATOM     22  N   UNL     1      -2.114  11.453  18.856  0.00  0.00    +0.000 N 
ATOM     23  C   UNL     1      -1.656  10.199  19.484  0.00  0.00    +0.000 C 
ATOM     24  C   UNL     1      -0.176  10.341  19.901  0.00  0.00    +0.000 C 
BRANCH  22  25
ATOM     25  C   UNL     1      -3.408  11.900  19.038  0.00  0.00    +0.000 A 
ATOM     26  C   UNL     1      -4.430  11.664  18.106  0.00  0.00    +0.000 A 
ATOM     27  C   UNL     1      -5.712  12.204  18.267  0.00  0.00    +0.000 A 
ATOM     28  C   UNL     1      -5.994  12.997  19.373  0.00  0.00    +0.000 A 
ATOM     29 CL   UNL     1      -7.554  13.696  19.557  0.00  0.00    +0.000 Cl
ATOM     30  C   UNL     1      -5.010  13.237  20.322  0.00  0.00    +0.000 A 
ATOM     31  C   UNL     1      -3.735  12.689  20.152  0.00  0.00    +0.000 A 
ENDBRANCH  22  25
ENDBRANCH  14  17
TORSDOF 2
ENDMDL
