MODEL 1
REMARK VINA RESULT:      -8.3      0.000      0.000
REMARK  Name = 
REMARK  9 active torsions:
REMARK  status: ('A' for Active; 'I' for Inactive)
REMARK    1  A    between atoms: C_1  and  C_2
REMARK    2  A    between atoms: C_6  and  N_7
REMARK    3  A    between atoms: N_7  and  C_8
REMARK    4  A    between atoms: N_7  and  S_9
REMARK    5  A    between atoms: S_9  and  C_12
REMARK    6  A    between atoms: C_17  and  C_19
REMARK    7  A    between atoms: C_19  and  C_20
REMARK    8  A    between atoms: C_19  and  O_21
REMARK    9  A    between atoms: O_21  and  C_22
REMARK                            x       y       z     vdW  Elec       q    Type
REMARK                         _______ _______ _______ _____ _____    ______ ____
ROOT
ATOM      1  C   UNL     1       1.202   9.781  19.254  0.00  0.00    +0.000 A 
ATOM      2  N   UNL     1       1.554  10.023  18.006  0.00  0.00    +0.000 NA
ATOM      3  N   UNL     1       2.219   8.936  17.457  0.00  0.00    +0.000 NA
ATOM      4  C   UNL     1       2.343   7.938  18.310  0.00  0.00    +0.000 A 
ATOM      5  N   UNL     1       2.961   6.753  17.970  0.00  0.00    +0.000 N 
ATOM      6  C   UNL     1       3.212   5.681  18.799  0.00  0.00    +0.000 C 
ATOM      7  O   UNL     1       2.997   5.654  20.011  0.00  0.00    +0.000 OA
ATOM      8  S   UNL     1       1.629   8.229  19.831  0.00  0.00    +0.000 S 
ATOM      9  H   UNL     1       3.301   6.738  17.018  0.00  0.00    +0.000 HD
ENDROOT
BRANCH   1  10
ATOM     10  S   UNL     1       0.297  10.844  20.340  0.00  0.00    +0.000 S 
ATOM     11  O   UNL     1       1.308  11.562  21.091  0.00  0.00    +0.000 OA
ATOM     12  O   UNL     1      -0.634   9.956  21.015  0.00  0.00    +0.000 OA
BRANCH  10  13
ATOM     13  N   UNL     1      -0.621  11.956  19.450  0.00  0.00    +0.000 N 
ATOM     14  C   UNL     1      -0.150  13.332  19.310  0.00  0.00    +0.000 C 
BRANCH  13  20
ATOM     15  C   UNL     1      -5.574  12.478  19.318  0.00  0.00    +0.000 C 
ATOM     16  C   UNL     1      -4.308  11.826  18.841  0.00  0.00    +0.000 A 
ATOM     17  C   UNL     1      -4.354  10.827  17.861  0.00  0.00    +0.000 A 
ATOM     18  C   UNL     1      -3.180  10.215  17.418  0.00  0.00    +0.000 A 
ATOM     19  C   UNL     1      -1.953  10.594  17.957  0.00  0.00    +0.000 A 
ATOM     20  C   UNL     1      -1.897  11.581  18.944  0.00  0.00    +0.000 A 
ATOM     21  C   UNL     1      -3.067  12.204  19.379  0.00  0.00    +0.000 A 
ENDBRANCH  13  20
ENDBRANCH  10  13
ENDBRANCH   1  10
BRANCH   6  22
ATOM     22  C   UNL     1       3.842   4.443  18.112  0.00  0.00    +0.000 C 
ATOM     23  C   UNL     1       2.820   3.594  17.357  0.00  0.00    +0.000 C 
BRANCH  22  24
ATOM     24  O   UNL     1       4.859   4.882  17.211  0.00  0.00    +0.000 OA
BRANCH  24  25
ATOM     25  C   UNL     1       5.966   5.510  17.720  0.00  0.00    +0.000 A 
ATOM     26  C   UNL     1       6.343   6.676  17.046  0.00  0.00    +0.000 A 
ATOM     27  C   UNL     1       7.451   7.420  17.463  0.00  0.00    +0.000 A 
ATOM     28  C   UNL     1       8.186   7.014  18.572  0.00  0.00    +0.000 A 
ATOM     29  C   UNL     1       7.807   5.866  19.264  0.00  0.00    +0.000 A 
ATOM     30  C   UNL     1       6.700   5.117  18.843  0.00  0.00    +0.000 A 
ENDBRANCH  24  25
ENDBRANCH  22  24
ENDBRANCH   6  22
TORSDOF 6
ENDMDL
MODEL 2
REMARK VINA RESULT:      -8.3      1.590      1.904
REMARK  Name = 
REMARK  9 active torsions:
REMARK  status: ('A' for Active; 'I' for Inactive)
REMARK    1  A    between atoms: C_1  and  C_2
REMARK    2  A    between atoms: C_6  and  N_7
REMARK    3  A    between atoms: N_7  and  C_8
REMARK    4  A    between atoms: N_7  and  S_9
REMARK    5  A    between atoms: S_9  and  C_12
REMARK    6  A    between atoms: C_17  and  C_19
REMARK    7  A    between atoms: C_19  and  C_20
REMARK    8  A    between atoms: C_19  and  O_21
REMARK    9  A    between atoms: O_21  and  C_22
REMARK                            x       y       z     vdW  Elec       q    Type
REMARK                         _______ _______ _______ _____ _____    ______ ____
ROOT
ATOM      1  C   UNL     1       0.474  10.151  21.077  0.00  0.00    +0.000 A 
ATOM      2  N   UNL     1       0.516   9.409  22.166  0.00  0.00    +0.000 NA
ATOM      3  N   UNL     1       1.127   8.189  21.915  0.00  0.00    +0.000 NA
ATOM      4  C   UNL     1       1.506   8.065  20.657  0.00  0.00    +0.000 A 
ATOM      5  N   UNL     1       2.144   6.936  20.190  0.00  0.00    +0.000 N 
ATOM      6  C   UNL     1       2.514   6.670  18.889  0.00  0.00    +0.000 C 
ATOM      7  O   UNL     1       2.244   7.375  17.916  0.00  0.00    +0.000 OA
ATOM      8  S   UNL     1       1.183   9.435  19.695  0.00  0.00    +0.000 S 
ATOM      9  H   UNL     1       2.284   6.231  20.902  0.00  0.00    +0.000 HD
ENDROOT
BRANCH   1  10
ATOM     10  S   UNL     1      -0.163  11.792  20.919  0.00  0.00    +0.000 S 
ATOM     11  O   UNL     1       0.929  12.659  21.316  0.00  0.00    +0.000 OA
ATOM     12  O   UNL     1      -1.403  11.770  21.677  0.00  0.00    +0.000 OA
BRANCH  10  13
ATOM     13  N   UNL     1      -0.566  12.117  19.306  0.00  0.00    +0.000 N 
ATOM     14  C   UNL     1       0.242  13.061  18.536  0.00  0.00    +0.000 C 
BRANCH  13  20
ATOM     15  C   UNL     1      -5.520  12.068  18.777  0.00  0.00    +0.000 C 
ATOM     16  C   UNL     1      -4.158  11.529  18.447  0.00  0.00    +0.000 A 
ATOM     17  C   UNL     1      -4.019  10.460  17.553  0.00  0.00    +0.000 A 
ATOM     18  C   UNL     1      -2.755   9.953  17.247  0.00  0.00    +0.000 A 
ATOM     19  C   UNL     1      -1.622  10.507  17.839  0.00  0.00    +0.000 A 
ATOM     20  C   UNL     1      -1.751  11.564  18.742  0.00  0.00    +0.000 A 
ATOM     21  C   UNL     1      -3.011  12.083  19.040  0.00  0.00    +0.000 A 
ENDBRANCH  13  20
ENDBRANCH  10  13
ENDBRANCH   1  10
BRANCH   6  22
ATOM     22  C   UNL     1       3.303   5.354  18.677  0.00  0.00    +0.000 C 
ATOM     23  C   UNL     1       2.400   4.154  18.395  0.00  0.00    +0.000 C 
BRANCH  22  24
ATOM     24  O   UNL     1       4.216   5.531  17.593  0.00  0.00    +0.000 OA
BRANCH  24  25
ATOM     25  C   UNL     1       5.479   5.989  17.862  0.00  0.00    +0.000 A 
ATOM     26  C   UNL     1       6.125   5.346  18.922  0.00  0.00    +0.000 A 
ATOM     27  C   UNL     1       7.422   5.709  19.301  0.00  0.00    +0.000 A 
ATOM     28  C   UNL     1       8.093   6.712  18.609  0.00  0.00    +0.000 A 
ATOM     29  C   UNL     1       7.468   7.345  17.537  0.00  0.00    +0.000 A 
ATOM     30  C   UNL     1       6.167   6.984  17.162  0.00  0.00    +0.000 A 
ENDBRANCH  24  25
ENDBRANCH  22  24
ENDBRANCH   6  22
TORSDOF 6
ENDMDL
MODEL 3
REMARK VINA RESULT:      -8.1      2.135      9.366
REMARK  Name = 
REMARK  9 active torsions:
REMARK  status: ('A' for Active; 'I' for Inactive)
REMARK    1  A    between atoms: C_1  and  C_2
REMARK    2  A    between atoms: C_6  and  N_7
REMARK    3  A    between atoms: N_7  and  C_8
REMARK    4  A    between atoms: N_7  and  S_9
REMARK    5  A    between atoms: S_9  and  C_12
REMARK    6  A    between atoms: C_17  and  C_19
REMARK    7  A    between atoms: C_19  and  C_20
REMARK    8  A    between atoms: C_19  and  O_21
REMARK    9  A    between atoms: O_21  and  C_22
REMARK                            x       y       z     vdW  Elec       q    Type
REMARK                         _______ _______ _______ _____ _____    ______ ____
ROOT
ATOM      1  C   UNL     1       3.304   5.225  18.729  0.00  0.00    +0.000 A 
ATOM      2  N   UNL     1       3.157   5.139  20.037  0.00  0.00    +0.000 NA
ATOM      3  N   UNL     1       2.515   6.262  20.540  0.00  0.00    +0.000 NA
ATOM      4  C   UNL     1       2.219   7.137  19.599  0.00  0.00    +0.000 A 
ATOM      5  N   UNL     1       1.567   8.320  19.875  0.00  0.00    +0.000 N 
ATOM      6  C   UNL     1       1.277   9.334  18.987  0.00  0.00    +0.000 C 
ATOM      7  O   UNL     1       1.641   9.375  17.812  0.00  0.00    +0.000 OA
ATOM      8  S   UNL     1       2.663   6.646  18.027  0.00  0.00    +0.000 S 
ATOM      9  H   UNL     1       1.350   8.439  20.856  0.00  0.00    +0.000 HD
ENDROOT
BRANCH   1  10
ATOM     10  S   UNL     1       4.018   4.022  17.648  0.00  0.00    +0.000 S 
ATOM     11  O   UNL     1       2.956   3.667  16.727  0.00  0.00    +0.000 OA
ATOM     12  O   UNL     1       4.583   3.026  18.543  0.00  0.00    +0.000 OA
BRANCH  10  13
ATOM     13  N   UNL     1       5.301   4.700  16.774  0.00  0.00    +0.000 N 
ATOM     14  C   UNL     1       5.434   4.413  15.347  0.00  0.00    +0.000 C 
BRANCH  13  20
ATOM     15  C   UNL     1       7.768   8.956  17.561  0.00  0.00    +0.000 C 
ATOM     16  C   UNL     1       7.511   7.510  17.871  0.00  0.00    +0.000 A 
ATOM     17  C   UNL     1       8.259   6.855  18.858  0.00  0.00    +0.000 A 
ATOM     18  C   UNL     1       8.026   5.510  19.146  0.00  0.00    +0.000 A 
ATOM     19  C   UNL     1       7.049   4.808  18.445  0.00  0.00    +0.000 A 
ATOM     20  C   UNL     1       6.306   5.448  17.450  0.00  0.00    +0.000 A 
ATOM     21  C   UNL     1       6.527   6.796  17.168  0.00  0.00    +0.000 A 
ENDBRANCH  13  20
ENDBRANCH  10  13
ENDBRANCH   1  10
BRANCH   6  22
ATOM     22  C   UNL     1       0.450  10.509  19.566  0.00  0.00    +0.000 C 
ATOM     23  C   UNL     1       1.279  11.448  20.442  0.00  0.00    +0.000 C 
BRANCH  22  24
ATOM     24  O   UNL     1      -0.125  11.246  18.487  0.00  0.00    +0.000 OA
BRANCH  24  25
ATOM     25  C   UNL     1      -1.421  10.983  18.124  0.00  0.00    +0.000 A 
ATOM     26  C   UNL     1      -2.382  11.778  18.757  0.00  0.00    +0.000 A 
ATOM     27  C   UNL     1      -3.743  11.620  18.476  0.00  0.00    +0.000 A 
ATOM     28  C   UNL     1      -4.156  10.673  17.544  0.00  0.00    +0.000 A 
ATOM     29  C   UNL     1      -3.206   9.891  16.892  0.00  0.00    +0.000 A 
ATOM     30  C   UNL     1      -1.843  10.045  17.178  0.00  0.00    +0.000 A 
ENDBRANCH  24  25
ENDBRANCH  22  24
ENDBRANCH   6  22
TORSDOF 6
ENDMDL
MODEL 4
REMARK VINA RESULT:      -8.0      1.611      2.299
REMARK  Name = 
REMARK  9 active torsions:
REMARK  status: ('A' for Active; 'I' for Inactive)
REMARK    1  A    between atoms: C_1  and  C_2
REMARK    2  A    between atoms: C_6  and  N_7
REMARK    3  A    between atoms: N_7  and  C_8
REMARK    4  A    between atoms: N_7  and  S_9
REMARK    5  A    between atoms: S_9  and  C_12
REMARK    6  A    between atoms: C_17  and  C_19
REMARK    7  A    between atoms: C_19  and  C_20
REMARK    8  A    between atoms: C_19  and  O_21
REMARK    9  A    between atoms: O_21  and  C_22
REMARK                            x       y       z     vdW  Elec       q    Type
REMARK                         _______ _______ _______ _____ _____    ______ ____
ROOT
ATOM      1  C   UNL     1       0.517  10.117  21.122  0.00  0.00    +0.000 A 
ATOM      2  N   UNL     1       0.497   9.274  22.136  0.00  0.00    +0.000 NA
ATOM      3  N   UNL     1       1.083   8.065  21.789  0.00  0.00    +0.000 NA
ATOM      4  C   UNL     1       1.506   8.050  20.539  0.00  0.00    +0.000 A 
ATOM      5  N   UNL     1       2.131   6.952  19.988  0.00  0.00    +0.000 N 
ATOM      6  C   UNL     1       2.542   6.801  18.681  0.00  0.00    +0.000 C 
ATOM      7  O   UNL     1       2.330   7.603  17.772  0.00  0.00    +0.000 OA
ATOM      8  S   UNL     1       1.258   9.516  19.703  0.00  0.00    +0.000 S 
ATOM      9  H   UNL     1       2.224   6.178  20.633  0.00  0.00    +0.000 HD
ENDROOT
BRANCH   1  10
ATOM     10  S   UNL     1      -0.068  11.786  21.101  0.00  0.00    +0.000 S 
ATOM     11  O   UNL     1       1.044  12.580  21.584  0.00  0.00    +0.000 OA
ATOM     12  O   UNL     1      -1.317  11.736  21.842  0.00  0.00    +0.000 OA
BRANCH  10  13
ATOM     13  N   UNL     1      -0.439  12.262  19.519  0.00  0.00    +0.000 N 
ATOM     14  C   UNL     1       0.421  13.226  18.834  0.00  0.00    +0.000 C 
BRANCH  13  20
ATOM     15  C   UNL     1      -2.837   9.507  16.130  0.00  0.00    +0.000 C 
ATOM     16  C   UNL     1      -2.841  10.471  17.281  0.00  0.00    +0.000 A 
ATOM     17  C   UNL     1      -4.052  10.953  17.794  0.00  0.00    +0.000 A 
ATOM     18  C   UNL     1      -4.060  11.852  18.862  0.00  0.00    +0.000 A 
ATOM     19  C   UNL     1      -2.857  12.282  19.418  0.00  0.00    +0.000 A 
ATOM     20  C   UNL     1      -1.644  11.817  18.905  0.00  0.00    +0.000 A 
ATOM     21  C   UNL     1      -1.632  10.907  17.847  0.00  0.00    +0.000 A 
ENDBRANCH  13  20
ENDBRANCH  10  13
ENDBRANCH   1  10
BRANCH   6  22
ATOM     22  C   UNL     1       3.303   5.487  18.371  0.00  0.00    +0.000 C 
ATOM     23  C   UNL     1       2.379   4.350  17.939  0.00  0.00    +0.000 C 
BRANCH  22  24
ATOM     24  O   UNL     1       4.263   5.740  17.344  0.00  0.00    +0.000 OA
BRANCH  24  25
ATOM     25  C   UNL     1       5.516   6.164  17.702  0.00  0.00    +0.000 A 
ATOM     26  C   UNL     1       6.125   5.414  18.712  0.00  0.00    +0.000 A 
ATOM     27  C   UNL     1       7.408   5.733  19.171  0.00  0.00    +0.000 A 
ATOM     28  C   UNL     1       8.102   6.799  18.609  0.00  0.00    +0.000 A 
ATOM     29  C   UNL     1       7.514   7.541  17.588  0.00  0.00    +0.000 A 
ATOM     30  C   UNL     1       6.227   7.224  17.132  0.00  0.00    +0.000 A 
ENDBRANCH  24  25
ENDBRANCH  22  24
ENDBRANCH   6  22
TORSDOF 6
ENDMDL
MODEL 5
REMARK VINA RESULT:      -8.0      1.729      2.293
REMARK  Name = 
REMARK  9 active torsions:
REMARK  status: ('A' for Active; 'I' for Inactive)
REMARK    1  A    between atoms: C_1  and  C_2
REMARK    2  A    between atoms: C_6  and  N_7
REMARK    3  A    between atoms: N_7  and  C_8
REMARK    4  A    between atoms: N_7  and  S_9
REMARK    5  A    between atoms: S_9  and  C_12
REMARK    6  A    between atoms: C_17  and  C_19
REMARK    7  A    between atoms: C_19  and  C_20
REMARK    8  A    between atoms: C_19  and  O_21
REMARK    9  A    between atoms: O_21  and  C_22
REMARK                            x       y       z     vdW  Elec       q    Type
REMARK                         _______ _______ _______ _____ _____    ______ ____
ROOT
ATOM      1  C   UNL     1       0.407  10.610  21.322  0.00  0.00    +0.000 A 
ATOM      2  N   UNL     1       0.451   9.894  22.428  0.00  0.00    +0.000 NA
ATOM      3  N   UNL     1       1.029   8.653  22.196  0.00  0.00    +0.000 NA
ATOM      4  C   UNL     1       1.383   8.491  20.935  0.00  0.00    +0.000 A 
ATOM      5  N   UNL     1       1.987   7.337  20.485  0.00  0.00    +0.000 N 
ATOM      6  C   UNL     1       2.328   7.033  19.184  0.00  0.00    +0.000 C 
ATOM      7  O   UNL     1       2.059   7.720  18.199  0.00  0.00    +0.000 OA
ATOM      8  S   UNL     1       1.076   9.846  19.946  0.00  0.00    +0.000 S 
ATOM      9  H   UNL     1       2.123   6.646  21.211  0.00  0.00    +0.000 HD
ENDROOT
BRANCH   1  10
ATOM     10  S   UNL     1      -0.195  12.262  21.136  0.00  0.00    +0.000 S 
ATOM     11  O   UNL     1       0.909  13.112  21.539  0.00  0.00    +0.000 OA
ATOM     12  O   UNL     1      -1.445  12.273  21.876  0.00  0.00    +0.000 OA
BRANCH  10  13
ATOM     13  N   UNL     1      -0.567  12.576  19.513  0.00  0.00    +0.000 N 
ATOM     14  C   UNL     1       0.289  13.470  18.736  0.00  0.00    +0.000 C 
BRANCH  13  20
ATOM     15  C   UNL     1      -2.946   9.773  16.151  0.00  0.00    +0.000 C 
ATOM     16  C   UNL     1      -2.956  10.693  17.337  0.00  0.00    +0.000 A 
ATOM     17  C   UNL     1      -4.167  11.067  17.931  0.00  0.00    +0.000 A 
ATOM     18  C   UNL     1      -4.181  11.925  19.032  0.00  0.00    +0.000 A 
ATOM     19  C   UNL     1      -2.983  12.422  19.541  0.00  0.00    +0.000 A 
ATOM     20  C   UNL     1      -1.770  12.066  18.947  0.00  0.00    +0.000 A 
ATOM     21  C   UNL     1      -1.751  11.197  17.856  0.00  0.00    +0.000 A 
ENDBRANCH  13  20
ENDBRANCH  10  13
ENDBRANCH   1  10
BRANCH   6  22
ATOM     22  C   UNL     1       3.084   5.694  18.991  0.00  0.00    +0.000 C 
ATOM     23  C   UNL     1       2.148   4.506  18.771  0.00  0.00    +0.000 C 
BRANCH  22  24
ATOM     24  O   UNL     1       3.968   5.818  17.877  0.00  0.00    +0.000 OA
BRANCH  24  25
ATOM     25  C   UNL     1       5.302   6.026  18.113  0.00  0.00    +0.000 A 
ATOM     26  C   UNL     1       5.894   7.011  17.316  0.00  0.00    +0.000 A 
ATOM     27  C   UNL     1       7.249   7.329  17.456  0.00  0.00    +0.000 A 
ATOM     28  C   UNL     1       8.024   6.675  18.408  0.00  0.00    +0.000 A 
ATOM     29  C   UNL     1       7.440   5.707  19.222  0.00  0.00    +0.000 A 
ATOM     30  C   UNL     1       6.083   5.384  19.078  0.00  0.00    +0.000 A 
ENDBRANCH  24  25
ENDBRANCH  22  24
ENDBRANCH   6  22
TORSDOF 6
ENDMDL
MODEL 6
REMARK VINA RESULT:      -8.0      1.317      1.786
REMARK  Name = 
REMARK  9 active torsions:
REMARK  status: ('A' for Active; 'I' for Inactive)
REMARK    1  A    between atoms: C_1  and  C_2
REMARK    2  A    between atoms: C_6  and  N_7
REMARK    3  A    between atoms: N_7  and  C_8
REMARK    4  A    between atoms: N_7  and  S_9
REMARK    5  A    between atoms: S_9  and  C_12
REMARK    6  A    between atoms: C_17  and  C_19
REMARK    7  A    between atoms: C_19  and  C_20
REMARK    8  A    between atoms: C_19  and  O_21
REMARK    9  A    between atoms: O_21  and  C_22
REMARK                            x       y       z     vdW  Elec       q    Type
REMARK                         _______ _______ _______ _____ _____    ______ ____
ROOT
ATOM      1  C   UNL     1       1.375   9.334  19.319  0.00  0.00    +0.000 A 
ATOM      2  N   UNL     1       1.894   9.485  18.117  0.00  0.00    +0.000 NA
ATOM      3  N   UNL     1       2.602   8.354  17.734  0.00  0.00    +0.000 NA
ATOM      4  C   UNL     1       2.590   7.415  18.661  0.00  0.00    +0.000 A 
ATOM      5  N   UNL     1       3.222   6.202  18.485  0.00  0.00    +0.000 N 
ATOM      6  C   UNL     1       3.337   5.186  19.409  0.00  0.00    +0.000 C 
ATOM      7  O   UNL     1       2.964   5.245  20.581  0.00  0.00    +0.000 OA
ATOM      8  S   UNL     1       1.688   7.819  20.050  0.00  0.00    +0.000 S 
ATOM      9  H   UNL     1       3.684   6.118  17.590  0.00  0.00    +0.000 HD
ENDROOT
BRANCH   1  10
ATOM     10  S   UNL     1       0.358  10.480  20.203  0.00  0.00    +0.000 S 
ATOM     11  O   UNL     1       1.274  11.217  21.051  0.00  0.00    +0.000 OA
ATOM     12  O   UNL     1      -0.688   9.656  20.784  0.00  0.00    +0.000 OA
BRANCH  10  13
ATOM     13  N   UNL     1      -0.387  11.558  19.129  0.00  0.00    +0.000 N 
ATOM     14  C   UNL     1       0.232  12.855  18.862  0.00  0.00    +0.000 C 
BRANCH  13  20
ATOM     15  C   UNL     1      -5.307  12.301  18.884  0.00  0.00    +0.000 C 
ATOM     16  C   UNL     1      -4.060  11.603  18.426  0.00  0.00    +0.000 A 
ATOM     17  C   UNL     1      -4.125  10.625  17.425  0.00  0.00    +0.000 A 
ATOM     18  C   UNL     1      -2.967   9.971  16.999  0.00  0.00    +0.000 A 
ATOM     19  C   UNL     1      -1.739  10.285  17.576  0.00  0.00    +0.000 A 
ATOM     20  C   UNL     1      -1.666  11.249  18.584  0.00  0.00    +0.000 A 
ATOM     21  C   UNL     1      -2.818  11.915  19.003  0.00  0.00    +0.000 A 
ENDBRANCH  13  20
ENDBRANCH  10  13
ENDBRANCH   1  10
BRANCH   6  22
ATOM     22  C   UNL     1       4.025   3.896  18.896  0.00  0.00    +0.000 C 
ATOM     23  C   UNL     1       3.462   2.626  19.532  0.00  0.00    +0.000 C 
BRANCH  22  24
ATOM     24  O   UNL     1       3.878   3.827  17.477  0.00  0.00    +0.000 OA
BRANCH  24  25
ATOM     25  C   UNL     1       4.949   4.154  16.686  0.00  0.00    +0.000 A 
ATOM     26  C   UNL     1       6.146   4.367  17.375  0.00  0.00    +0.000 A 
ATOM     27  C   UNL     1       7.320   4.701  16.691  0.00  0.00    +0.000 A 
ATOM     28  C   UNL     1       7.310   4.809  15.304  0.00  0.00    +0.000 A 
ATOM     29  C   UNL     1       6.128   4.578  14.605  0.00  0.00    +0.000 A 
ATOM     30  C   UNL     1       4.951   4.248  15.291  0.00  0.00    +0.000 A 
ENDBRANCH  24  25
ENDBRANCH  22  24
ENDBRANCH   6  22
TORSDOF 6
ENDMDL
MODEL 7
REMARK VINA RESULT:      -8.0      1.506      1.839
REMARK  Name = 
REMARK  9 active torsions:
REMARK  status: ('A' for Active; 'I' for Inactive)
REMARK    1  A    between atoms: C_1  and  C_2
REMARK    2  A    between atoms: C_6  and  N_7
REMARK    3  A    between atoms: N_7  and  C_8
REMARK    4  A    between atoms: N_7  and  S_9
REMARK    5  A    between atoms: S_9  and  C_12
REMARK    6  A    between atoms: C_17  and  C_19
REMARK    7  A    between atoms: C_19  and  C_20
REMARK    8  A    between atoms: C_19  and  O_21
REMARK    9  A    between atoms: O_21  and  C_22
REMARK                            x       y       z     vdW  Elec       q    Type
REMARK                         _______ _______ _______ _____ _____    ______ ____
ROOT
ATOM      1  C   UNL     1       1.400  10.341  18.762  0.00  0.00    +0.000 A 
ATOM      2  N   UNL     1       2.019  10.213  17.605  0.00  0.00    +0.000 NA
ATOM      3  N   UNL     1       2.483   8.916  17.429  0.00  0.00    +0.000 NA
ATOM      4  C   UNL     1       2.201   8.137  18.456  0.00  0.00    +0.000 A 
ATOM      5  N   UNL     1       2.558   6.806  18.487  0.00  0.00    +0.000 N 
ATOM      6  C   UNL     1       2.382   5.925  19.532  0.00  0.00    +0.000 C 
ATOM      7  O   UNL     1       1.953   6.221  20.647  0.00  0.00    +0.000 OA
ATOM      8  S   UNL     1       1.319   8.909  19.694  0.00  0.00    +0.000 S 
ATOM      9  H   UNL     1       3.050   6.504  17.656  0.00  0.00    +0.000 HD
ENDROOT
BRANCH   1  10
ATOM     10  S   UNL     1       0.605  11.785  19.401  0.00  0.00    +0.000 S 
ATOM     11  O   UNL     1       0.645  12.746  18.316  0.00  0.00    +0.000 OA
ATOM     12  O   UNL     1       1.298  12.051  20.650  0.00  0.00    +0.000 OA
BRANCH  10  13
ATOM     13  N   UNL     1      -1.011  11.451  19.782  0.00  0.00    +0.000 N 
ATOM     14  C   UNL     1      -1.419  11.360  21.183  0.00  0.00    +0.000 C 
BRANCH  13  20
ATOM     15  C   UNL     1      -5.406  12.131  17.536  0.00  0.00    +0.000 C 
ATOM     16  C   UNL     1      -4.061  11.470  17.618  0.00  0.00    +0.000 A 
ATOM     17  C   UNL     1      -3.676  10.530  16.653  0.00  0.00    +0.000 A 
ATOM     18  C   UNL     1      -2.428   9.909  16.728  0.00  0.00    +0.000 A 
ATOM     19  C   UNL     1      -1.560  10.219  17.772  0.00  0.00    +0.000 A 
ATOM     20  C   UNL     1      -1.939  11.145  18.746  0.00  0.00    +0.000 A 
ATOM     21  C   UNL     1      -3.180  11.778  18.667  0.00  0.00    +0.000 A 
ENDBRANCH  13  20
ENDBRANCH  10  13
ENDBRANCH   1  10
BRANCH   6  22
ATOM     22  C   UNL     1       2.800   4.460  19.244  0.00  0.00    +0.000 C 
ATOM     23  C   UNL     1       1.683   3.455  19.520  0.00  0.00    +0.000 C 
BRANCH  22  24
ATOM     24  O   UNL     1       3.212   4.357  17.881  0.00  0.00    +0.000 OA
BRANCH  24  25
ATOM     25  C   UNL     1       4.550   4.412  17.589  0.00  0.00    +0.000 A 
ATOM     26  C   UNL     1       4.868   4.203  16.243  0.00  0.00    +0.000 A 
ATOM     27  C   UNL     1       6.195   4.238  15.805  0.00  0.00    +0.000 A 
ATOM     28  C   UNL     1       7.220   4.500  16.708  0.00  0.00    +0.000 A 
ATOM     29  C   UNL     1       6.914   4.732  18.047  0.00  0.00    +0.000 A 
ATOM     30  C   UNL     1       5.584   4.691  18.487  0.00  0.00    +0.000 A 
ENDBRANCH  24  25
ENDBRANCH  22  24
ENDBRANCH   6  22
TORSDOF 6
ENDMDL
MODEL 8
REMARK VINA RESULT:      -8.0      1.814      3.549
REMARK  Name = 
REMARK  9 active torsions:
REMARK  status: ('A' for Active; 'I' for Inactive)
REMARK    1  A    between atoms: C_1  and  C_2
REMARK    2  A    between atoms: C_6  and  N_7
REMARK    3  A    between atoms: N_7  and  C_8
REMARK    4  A    between atoms: N_7  and  S_9
REMARK    5  A    between atoms: S_9  and  C_12
REMARK    6  A    between atoms: C_17  and  C_19
REMARK    7  A    between atoms: C_19  and  C_20
REMARK    8  A    between atoms: C_19  and  O_21
REMARK    9  A    between atoms: O_21  and  C_22
REMARK                            x       y       z     vdW  Elec       q    Type
REMARK                         _______ _______ _______ _____ _____    ______ ____
ROOT
ATOM      1  C   UNL     1       0.235  10.419  20.948  0.00  0.00    +0.000 A 
ATOM      2  N   UNL     1       0.228   9.424  21.813  0.00  0.00    +0.000 NA
ATOM      3  N   UNL     1       0.936   8.335  21.325  0.00  0.00    +0.000 NA
ATOM      4  C   UNL     1       1.433   8.554  20.123  0.00  0.00    +0.000 A 
ATOM      5  N   UNL     1       2.182   7.610  19.455  0.00  0.00    +0.000 N 
ATOM      6  C   UNL     1       2.683   7.704  18.173  0.00  0.00    +0.000 C 
ATOM      7  O   UNL     1       2.457   8.624  17.388  0.00  0.00    +0.000 OA
ATOM      8  S   UNL     1       1.110  10.112  19.510  0.00  0.00    +0.000 S 
ATOM      9  H   UNL     1       2.303   6.752  19.976  0.00  0.00    +0.000 HD
ENDROOT
BRANCH   1  10
ATOM     10  S   UNL     1      -0.490  12.019  21.145  0.00  0.00    +0.000 S 
ATOM     11  O   UNL     1       0.566  12.845  21.696  0.00  0.00    +0.000 OA
ATOM     12  O   UNL     1      -1.705  11.771  21.902  0.00  0.00    +0.000 OA
BRANCH  10  13
ATOM     13  N   UNL     1      -0.953  12.648  19.642  0.00  0.00    +0.000 N 
ATOM     14  C   UNL     1      -0.271  13.826  19.110  0.00  0.00    +0.000 C 
BRANCH  13  20
ATOM     15  C   UNL     1      -2.894   9.873  15.987  0.00  0.00    +0.000 C 
ATOM     16  C   UNL     1      -3.050  10.741  17.202  0.00  0.00    +0.000 A 
ATOM     17  C   UNL     1      -4.325  11.029  17.706  0.00  0.00    +0.000 A 
ATOM     18  C   UNL     1      -4.475  11.839  18.832  0.00  0.00    +0.000 A 
ATOM     19  C   UNL     1      -3.351  12.373  19.459  0.00  0.00    +0.000 A 
ATOM     20  C   UNL     1      -2.076  12.102  18.957  0.00  0.00    +0.000 A 
ATOM     21  C   UNL     1      -1.921  11.282  17.839  0.00  0.00    +0.000 A 
ENDBRANCH  13  20
ENDBRANCH  10  13
ENDBRANCH   1  10
BRANCH   6  22
ATOM     22  C   UNL     1       3.572   6.519  17.719  0.00  0.00    +0.000 C 
ATOM     23  C   UNL     1       4.957   6.957  17.246  0.00  0.00    +0.000 C 
BRANCH  22  24
ATOM     24  O   UNL     1       3.705   5.598  18.803  0.00  0.00    +0.000 OA
BRANCH  24  25
ATOM     25  C   UNL     1       3.255   4.314  18.638  0.00  0.00    +0.000 A 
ATOM     26  C   UNL     1       1.864   4.173  18.641  0.00  0.00    +0.000 A 
ATOM     27  C   UNL     1       1.268   2.918  18.476  0.00  0.00    +0.000 A 
ATOM     28  C   UNL     1       2.061   1.791  18.289  0.00  0.00    +0.000 A 
ATOM     29  C   UNL     1       3.447   1.922  18.262  0.00  0.00    +0.000 A 
ATOM     30  C   UNL     1       4.044   3.179  18.433  0.00  0.00    +0.000 A 
ENDBRANCH  24  25
ENDBRANCH  22  24
ENDBRANCH   6  22
TORSDOF 6
ENDMDL
MODEL 9
REMARK VINA RESULT:      -8.0      1.795      2.159
REMARK  Name = 
REMARK  9 active torsions:
REMARK  status: ('A' for Active; 'I' for Inactive)
REMARK    1  A    between atoms: C_1  and  C_2
REMARK    2  A    between atoms: C_6  and  N_7
REMARK    3  A    between atoms: N_7  and  C_8
REMARK    4  A    between atoms: N_7  and  S_9
REMARK    5  A    between atoms: S_9  and  C_12
REMARK    6  A    between atoms: C_17  and  C_19
REMARK    7  A    between atoms: C_19  and  C_20
REMARK    8  A    between atoms: C_19  and  O_21
REMARK    9  A    between atoms: O_21  and  C_22
REMARK                            x       y       z     vdW  Elec       q    Type
REMARK                         _______ _______ _______ _____ _____    ______ ____
ROOT
ATOM      1  C   UNL     1       1.177   9.007  20.296  0.00  0.00    +0.000 A 
ATOM      2  N   UNL     1       1.236   9.446  19.054  0.00  0.00    +0.000 NA
ATOM      3  N   UNL     1       1.868   8.525  18.230  0.00  0.00    +0.000 NA
ATOM      4  C   UNL     1       2.259   7.449  18.885  0.00  0.00    +0.000 A 
ATOM      5  N   UNL     1       2.899   6.400  18.259  0.00  0.00    +0.000 N 
ATOM      6  C   UNL     1       3.415   5.269  18.855  0.00  0.00    +0.000 C 
ATOM      7  O   UNL     1       3.462   5.063  20.067  0.00  0.00    +0.000 OA
ATOM      8  S   UNL     1       1.857   7.457  20.542  0.00  0.00    +0.000 S 
ATOM      9  H   UNL     1       3.031   6.546  17.267  0.00  0.00    +0.000 HD
ENDROOT
BRANCH   1  10
ATOM     10  S   UNL     1       0.427   9.807  21.683  0.00  0.00    +0.000 S 
ATOM     11  O   UNL     1       1.454   9.826  22.706  0.00  0.00    +0.000 OA
ATOM     12  O   UNL     1      -0.811   9.076  21.891  0.00  0.00    +0.000 OA
BRANCH  10  13
ATOM     13  N   UNL     1       0.011  11.402  21.292  0.00  0.00    +0.000 N 
ATOM     14  C   UNL     1       1.052  12.339  20.877  0.00  0.00    +0.000 C 
BRANCH  13  20
ATOM     15  C   UNL     1      -3.833  12.507  24.263  0.00  0.00    +0.000 C 
ATOM     16  C   UNL     1      -3.208  12.422  22.901  0.00  0.00    +0.000 A 
ATOM     17  C   UNL     1      -3.932  12.806  21.765  0.00  0.00    +0.000 A 
ATOM     18  C   UNL     1      -3.355  12.724  20.497  0.00  0.00    +0.000 A 
ATOM     19  C   UNL     1      -2.053  12.252  20.355  0.00  0.00    +0.000 A 
ATOM     20  C   UNL     1      -1.326  11.855  21.479  0.00  0.00    +0.000 A 
ATOM     21  C   UNL     1      -1.894  11.948  22.750  0.00  0.00    +0.000 A 
ENDBRANCH  13  20
ENDBRANCH  10  13
ENDBRANCH   1  10
BRANCH   6  22
ATOM     22  C   UNL     1       3.998   4.212  17.882  0.00  0.00    +0.000 C 
ATOM     23  C   UNL     1       2.925   3.507  17.053  0.00  0.00    +0.000 C 
BRANCH  22  24
ATOM     24  O   UNL     1       4.932   4.852  17.012  0.00  0.00    +0.000 OA
BRANCH  24  25
ATOM     25  C   UNL     1       6.005   5.505  17.560  0.00  0.00    +0.000 A 
ATOM     26  C   UNL     1       6.286   6.753  16.995  0.00  0.00    +0.000 A 
ATOM     27  C   UNL     1       7.350   7.530  17.462  0.00  0.00    +0.000 A 
ATOM     28  C   UNL     1       8.137   7.073  18.515  0.00  0.00    +0.000 A 
ATOM     29  C   UNL     1       7.853   5.841  19.100  0.00  0.00    +0.000 A 
ATOM     30  C   UNL     1       6.790   5.060  18.628  0.00  0.00    +0.000 A 
ENDBRANCH  24  25
ENDBRANCH  22  24
ENDBRANCH   6  22
TORSDOF 6
ENDMDL
