MODEL 1
REMARK VINA RESULT:      -8.8      0.000      0.000
REMARK  Name = 
REMARK  5 active torsions:
REMARK  status: ('A' for Active; 'I' for Inactive)
REMARK    1  A    between atoms: C_2  and  C_26
REMARK    2  A    between atoms: N_3  and  C_4
REMARK    3  A    between atoms: C_4  and  C_5
REMARK    4  A    between atoms: N_7  and  C_8
REMARK    5  A    between atoms: C_11  and  C_12
REMARK                            x       y       z     vdW  Elec       q    Type
REMARK                         _______ _______ _______ _____ _____    ______ ____
ROOT
ATOM      1  C   UNL     1       5.657   4.659  18.238  0.00  0.00    +0.000 C 
ATOM      2  C   UNL     1       5.178   6.077  18.451  0.00  0.00    +0.000 C 
ATOM      3  N   UNL     1       3.756   5.974  18.311  0.00  0.00    +0.000 N 
ATOM      4  C   UNL     1       3.419   4.735  17.792  0.00  0.00    +0.000 C 
ATOM      5  O   UNL     1       2.323   4.320  17.453  0.00  0.00    +0.000 OA
ATOM      6  O   UNL     1       4.541   3.970  17.654  0.00  0.00    +0.000 OA
ENDROOT
BRANCH   3   7
ATOM      7  C   UNL     1       2.868   7.012  18.677  0.00  0.00    +0.000 A 
ATOM      8  C   UNL     1       2.247   7.042  19.930  0.00  0.00    +0.000 A 
ATOM      9  C   UNL     1       1.413   8.105  20.301  0.00  0.00    +0.000 A 
ATOM     10  C   UNL     1       1.167   9.162  19.421  0.00  0.00    +0.000 A 
ATOM     11  C   UNL     1       1.809   9.147  18.179  0.00  0.00    +0.000 A 
ATOM     12  C   UNL     1       2.630   8.080  17.803  0.00  0.00    +0.000 A 
BRANCH  10  13
ATOM     13  C   UNL     1       0.292  10.257  19.834  0.00  0.00    +0.000 A 
ATOM     14  N   UNL     1       0.539  11.100  20.821  0.00  0.00    +0.000 NA
ATOM     15  N   UNL     1      -0.465  12.035  20.860  0.00  0.00    +0.000 NA
ATOM     16  C   UNL     1      -1.340  11.751  19.921  0.00  0.00    +0.000 A 
ATOM     17  N   UNL     1      -2.487  12.393  19.556  0.00  0.00    +0.000 NA
ATOM     18  C   UNL     1      -3.176  11.839  18.605  0.00  0.00    +0.000 A 
ATOM     19  C   UNL     1      -2.842  10.574  17.892  0.00  0.00    +0.000 A 
ATOM     20  C   UNL     1      -1.705   9.989  18.286  0.00  0.00    +0.000 A 
ATOM     21  N   UNL     1      -0.929  10.589  19.277  0.00  0.00    +0.000 N 
ENDBRANCH  10  13
ENDBRANCH   3   7
BRANCH   1  22
ATOM     22  C   UNL     1       6.836   4.574  17.273  0.00  0.00    +0.000 C 
BRANCH  22  25
ATOM     23  O   UNL     1       7.377   5.451  14.685  0.00  0.00    +0.000 OA
ATOM     24  C   UNL     1       6.796   4.369  14.810  0.00  0.00    +0.000 C 
ATOM     25  N   UNL     1       6.481   3.870  16.054  0.00  0.00    +0.000 N 
ATOM     26  H   UNL     1       6.185   2.905  16.135  0.00  0.00    +0.000 HD
BRANCH  24  27
ATOM     27  C   UNL     1       6.339   3.460  13.632  0.00  0.00    +0.000 C 
ATOM     28  C   UNL     1       4.901   3.701  13.093  0.00  0.00    +0.000 C 
ATOM     29  C   UNL     1       5.444   3.380  11.688  0.00  0.00    +0.000 C 
ATOM     30  C   UNL     1       6.831   3.812  12.202  0.00  0.00    +0.000 C 
ENDBRANCH  24  27
ENDBRANCH  22  25
ENDBRANCH   1  22
TORSDOF 5
ENDMDL
MODEL 2
REMARK VINA RESULT:      -8.5      0.571      1.238
REMARK  Name = 
REMARK  5 active torsions:
REMARK  status: ('A' for Active; 'I' for Inactive)
REMARK    1  A    between atoms: C_2  and  C_26
REMARK    2  A    between atoms: N_3  and  C_4
REMARK    3  A    between atoms: C_4  and  C_5
REMARK    4  A    between atoms: N_7  and  C_8
REMARK    5  A    between atoms: C_11  and  C_12
REMARK                            x       y       z     vdW  Elec       q    Type
REMARK                         _______ _______ _______ _____ _____    ______ ____
ROOT
ATOM      1  C   UNL     1       5.547   4.427  18.651  0.00  0.00    +0.000 C 
ATOM      2  C   UNL     1       5.165   5.880  18.823  0.00  0.00    +0.000 C 
ATOM      3  N   UNL     1       3.759   5.890  18.550  0.00  0.00    +0.000 N 
ATOM      4  C   UNL     1       3.374   4.679  17.996  0.00  0.00    +0.000 C 
ATOM      5  O   UNL     1       2.285   4.352  17.554  0.00  0.00    +0.000 OA
ATOM      6  O   UNL     1       4.439   3.827  17.962  0.00  0.00    +0.000 OA
ENDROOT
BRANCH   3   7
ATOM      7  C   UNL     1       2.926   6.997  18.834  0.00  0.00    +0.000 A 
ATOM      8  C   UNL     1       2.700   8.008  17.894  0.00  0.00    +0.000 A 
ATOM      9  C   UNL     1       1.830   9.071  18.168  0.00  0.00    +0.000 A 
ATOM     10  C   UNL     1       1.172   9.159  19.397  0.00  0.00    +0.000 A 
ATOM     11  C   UNL     1       1.376   8.135  20.327  0.00  0.00    +0.000 A 
ATOM     12  C   UNL     1       2.255   7.082  20.060  0.00  0.00    +0.000 A 
BRANCH  10  13
ATOM     13  C   UNL     1       0.270  10.279  19.656  0.00  0.00    +0.000 A 
ATOM     14  N   UNL     1       0.501  11.265  20.505  0.00  0.00    +0.000 NA
ATOM     15  N   UNL     1      -0.530  12.167  20.420  0.00  0.00    +0.000 NA
ATOM     16  C   UNL     1      -1.404  11.724  19.545  0.00  0.00    +0.000 A 
ATOM     17  N   UNL     1      -2.573  12.274  19.105  0.00  0.00    +0.000 NA
ATOM     18  C   UNL     1      -3.254  11.567  18.254  0.00  0.00    +0.000 A 
ATOM     19  C   UNL     1      -2.890  10.221  17.730  0.00  0.00    +0.000 A 
ATOM     20  C   UNL     1      -1.733   9.731  18.191  0.00  0.00    +0.000 A 
ATOM     21  N   UNL     1      -0.965  10.491  19.072  0.00  0.00    +0.000 N 
ENDBRANCH  10  13
ENDBRANCH   3   7
BRANCH   1  22
ATOM     22  C   UNL     1       6.801   4.244  17.801  0.00  0.00    +0.000 C 
BRANCH  22  25
ATOM     23  O   UNL     1       7.464   6.213  15.946  0.00  0.00    +0.000 OA
ATOM     24  C   UNL     1       6.862   5.219  15.531  0.00  0.00    +0.000 C 
ATOM     25  N   UNL     1       6.487   4.206  16.384  0.00  0.00    +0.000 N 
ATOM     26  H   UNL     1       6.172   3.326  15.993  0.00  0.00    +0.000 HD
BRANCH  24  27
ATOM     27  C   UNL     1       6.440   4.985  14.050  0.00  0.00    +0.000 C 
ATOM     28  C   UNL     1       7.570   4.564  13.070  0.00  0.00    +0.000 C 
ATOM     29  C   UNL     1       6.533   3.674  12.359  0.00  0.00    +0.000 C 
ATOM     30  C   UNL     1       5.755   3.638  13.689  0.00  0.00    +0.000 C 
ENDBRANCH  24  27
ENDBRANCH  22  25
ENDBRANCH   1  22
TORSDOF 5
ENDMDL
MODEL 3
REMARK VINA RESULT:      -8.5      2.639      3.576
REMARK  Name = 
REMARK  5 active torsions:
REMARK  status: ('A' for Active; 'I' for Inactive)
REMARK    1  A    between atoms: C_2  and  C_26
REMARK    2  A    between atoms: N_3  and  C_4
REMARK    3  A    between atoms: C_4  and  C_5
REMARK    4  A    between atoms: N_7  and  C_8
REMARK    5  A    between atoms: C_11  and  C_12
REMARK                            x       y       z     vdW  Elec       q    Type
REMARK                         _______ _______ _______ _____ _____    ______ ____
ROOT
ATOM      1  C   UNL     1       3.664   3.795  19.612  0.00  0.00    +0.000 C 
ATOM      2  C   UNL     1       3.699   5.301  19.747  0.00  0.00    +0.000 C 
ATOM      3  N   UNL     1       2.567   5.731  18.981  0.00  0.00    +0.000 N 
ATOM      4  C   UNL     1       2.072   4.676  18.232  0.00  0.00    +0.000 C 
ATOM      5  O   UNL     1       1.182   4.682  17.398  0.00  0.00    +0.000 OA
ATOM      6  O   UNL     1       2.766   3.537  18.521  0.00  0.00    +0.000 OA
ENDROOT
BRANCH   3   7
ATOM      7  C   UNL     1       2.062   7.051  19.028  0.00  0.00    +0.000 A 
ATOM      8  C   UNL     1       1.591   7.617  20.218  0.00  0.00    +0.000 A 
ATOM      9  C   UNL     1       1.145   8.944  20.263  0.00  0.00    +0.000 A 
ATOM     10  C   UNL     1       1.144   9.738  19.114  0.00  0.00    +0.000 A 
ATOM     11  C   UNL     1       1.640   9.183  17.930  0.00  0.00    +0.000 A 
ATOM     12  C   UNL     1       2.072   7.854  17.882  0.00  0.00    +0.000 A 
BRANCH  10  13
ATOM     13  C   UNL     1       0.673  11.119  19.190  0.00  0.00    +0.000 A 
ATOM     14  N   UNL     1      -0.527  11.494  19.598  0.00  0.00    +0.000 NA
ATOM     15  N   UNL     1      -0.576  12.866  19.606  0.00  0.00    +0.000 NA
ATOM     16  C   UNL     1       0.576  13.331  19.178  0.00  0.00    +0.000 A 
ATOM     17  N   UNL     1       1.013  14.615  19.030  0.00  0.00    +0.000 NA
ATOM     18  C   UNL     1       2.204  14.761  18.533  0.00  0.00    +0.000 A 
ATOM     19  C   UNL     1       3.123  13.670  18.102  0.00  0.00    +0.000 A 
ATOM     20  C   UNL     1       2.646  12.432  18.274  0.00  0.00    +0.000 A 
ATOM     21  N   UNL     1       1.387  12.251  18.843  0.00  0.00    +0.000 N 
ENDBRANCH  10  13
ENDBRANCH   3   7
BRANCH   1  22
ATOM     22  C   UNL     1       5.026   3.202  19.267  0.00  0.00    +0.000 C 
BRANCH  22  25
ATOM     23  O   UNL     1       5.625   4.023  16.674  0.00  0.00    +0.000 OA
ATOM     24  C   UNL     1       6.214   4.587  17.599  0.00  0.00    +0.000 C 
ATOM     25  N   UNL     1       5.985   4.233  18.910  0.00  0.00    +0.000 N 
ATOM     26  H   UNL     1       6.329   4.834  19.649  0.00  0.00    +0.000 HD
BRANCH  24  27
ATOM     27  C   UNL     1       7.270   5.719  17.429  0.00  0.00    +0.000 C 
ATOM     28  C   UNL     1       6.716   7.138  17.124  0.00  0.00    +0.000 C 
ATOM     29  C   UNL     1       7.862   7.700  17.985  0.00  0.00    +0.000 C 
ATOM     30  C   UNL     1       7.891   6.339  18.709  0.00  0.00    +0.000 C 
ENDBRANCH  24  27
ENDBRANCH  22  25
ENDBRANCH   1  22
TORSDOF 5
ENDMDL
MODEL 4
REMARK VINA RESULT:      -8.5      1.140      1.995
REMARK  Name = 
REMARK  5 active torsions:
REMARK  status: ('A' for Active; 'I' for Inactive)
REMARK    1  A    between atoms: C_2  and  C_26
REMARK    2  A    between atoms: N_3  and  C_4
REMARK    3  A    between atoms: C_4  and  C_5
REMARK    4  A    between atoms: N_7  and  C_8
REMARK    5  A    between atoms: C_11  and  C_12
REMARK                            x       y       z     vdW  Elec       q    Type
REMARK                         _______ _______ _______ _____ _____    ______ ____
ROOT
ATOM      1  C   UNL     1       5.737   4.644  17.918  0.00  0.00    +0.000 C 
ATOM      2  C   UNL     1       5.301   6.076  18.138  0.00  0.00    +0.000 C 
ATOM      3  N   UNL     1       3.872   6.003  18.076  0.00  0.00    +0.000 N 
ATOM      4  C   UNL     1       3.480   4.766  17.591  0.00  0.00    +0.000 C 
ATOM      5  O   UNL     1       2.359   4.373  17.316  0.00  0.00    +0.000 OA
ATOM      6  O   UNL     1       4.575   3.974  17.402  0.00  0.00    +0.000 OA
ENDROOT
BRANCH   3   7
ATOM      7  C   UNL     1       3.029   7.066  18.475  0.00  0.00    +0.000 A 
ATOM      8  C   UNL     1       2.722   8.125  17.614  0.00  0.00    +0.000 A 
ATOM      9  C   UNL     1       1.841   9.143  18.002  0.00  0.00    +0.000 A 
ATOM     10  C   UNL     1       1.253   9.136  19.269  0.00  0.00    +0.000 A 
ATOM     11  C   UNL     1       1.537   8.064  20.121  0.00  0.00    +0.000 A 
ATOM     12  C   UNL     1       2.427   7.055  19.739  0.00  0.00    +0.000 A 
BRANCH  10  13
ATOM     13  C   UNL     1       0.338  10.211  19.648  0.00  0.00    +0.000 A 
ATOM     14  N   UNL     1      -0.141  11.129  18.828  0.00  0.00    +0.000 NA
ATOM     15  N   UNL     1      -1.024  11.918  19.523  0.00  0.00    +0.000 NA
ATOM     16  C   UNL     1      -1.066  11.504  20.769  0.00  0.00    +0.000 A 
ATOM     17  N   UNL     1      -1.804  11.951  21.826  0.00  0.00    +0.000 NA
ATOM     18  C   UNL     1      -1.592  11.361  22.964  0.00  0.00    +0.000 A 
ATOM     19  C   UNL     1      -0.618  10.263  23.222  0.00  0.00    +0.000 A 
ATOM     20  C   UNL     1       0.074   9.860  22.151  0.00  0.00    +0.000 A 
ATOM     21  N   UNL     1      -0.167  10.452  20.912  0.00  0.00    +0.000 N 
ENDBRANCH  10  13
ENDBRANCH   3   7
BRANCH   1  22
ATOM     22  C   UNL     1       6.860   4.522  16.892  0.00  0.00    +0.000 C 
BRANCH  22  25
ATOM     23  O   UNL     1       6.902   5.416  14.255  0.00  0.00    +0.000 OA
ATOM     24  C   UNL     1       6.509   4.264  14.459  0.00  0.00    +0.000 C 
ATOM     25  N   UNL     1       6.447   3.749  15.735  0.00  0.00    +0.000 N 
ATOM     26  H   UNL     1       6.309   2.753  15.856  0.00  0.00    +0.000 HD
BRANCH  24  27
ATOM     27  C   UNL     1       6.031   3.275  13.356  0.00  0.00    +0.000 C 
ATOM     28  C   UNL     1       4.716   3.649  12.617  0.00  0.00    +0.000 C 
ATOM     29  C   UNL     1       5.340   3.054  11.341  0.00  0.00    +0.000 C 
ATOM     30  C   UNL     1       6.719   3.341  11.966  0.00  0.00    +0.000 C 
ENDBRANCH  24  27
ENDBRANCH  22  25
ENDBRANCH   1  22
TORSDOF 5
ENDMDL
MODEL 5
REMARK VINA RESULT:      -8.4      1.531      2.140
REMARK  Name = 
REMARK  5 active torsions:
REMARK  status: ('A' for Active; 'I' for Inactive)
REMARK    1  A    between atoms: C_2  and  C_26
REMARK    2  A    between atoms: N_3  and  C_4
REMARK    3  A    between atoms: C_4  and  C_5
REMARK    4  A    between atoms: N_7  and  C_8
REMARK    5  A    between atoms: C_11  and  C_12
REMARK                            x       y       z     vdW  Elec       q    Type
REMARK                         _______ _______ _______ _____ _____    ______ ____
ROOT
ATOM      1  C   UNL     1       5.138   4.559  18.901  0.00  0.00    +0.000 C 
ATOM      2  C   UNL     1       4.783   6.029  18.921  0.00  0.00    +0.000 C 
ATOM      3  N   UNL     1       3.381   6.038  18.627  0.00  0.00    +0.000 N 
ATOM      4  C   UNL     1       2.979   4.786  18.192  0.00  0.00    +0.000 C 
ATOM      5  O   UNL     1       1.890   4.437  17.769  0.00  0.00    +0.000 OA
ATOM      6  O   UNL     1       4.027   3.914  18.259  0.00  0.00    +0.000 OA
ENDROOT
BRANCH   3   7
ATOM      7  C   UNL     1       2.568   7.184  18.786  0.00  0.00    +0.000 A 
ATOM      8  C   UNL     1       2.031   7.539  20.028  0.00  0.00    +0.000 A 
ATOM      9  C   UNL     1       1.274   8.707  20.184  0.00  0.00    +0.000 A 
ATOM     10  C   UNL     1       1.020   9.545  19.096  0.00  0.00    +0.000 A 
ATOM     11  C   UNL     1       1.579   9.207  17.860  0.00  0.00    +0.000 A 
ATOM     12  C   UNL     1       2.323   8.034  17.701  0.00  0.00    +0.000 A 
BRANCH  10  13
ATOM     13  C   UNL     1       0.226  10.757  19.287  0.00  0.00    +0.000 A 
ATOM     14  N   UNL     1      -1.075  10.789  19.518  0.00  0.00    +0.000 NA
ATOM     15  N   UNL     1      -1.452  12.093  19.720  0.00  0.00    +0.000 NA
ATOM     16  C   UNL     1      -0.395  12.862  19.585  0.00  0.00    +0.000 A 
ATOM     17  N   UNL     1      -0.261  14.214  19.712  0.00  0.00    +0.000 NA
ATOM     18  C   UNL     1       0.920  14.698  19.470  0.00  0.00    +0.000 A 
ATOM     19  C   UNL     1       2.126  13.925  19.059  0.00  0.00    +0.000 A 
ATOM     20  C   UNL     1       1.939  12.604  18.955  0.00  0.00    +0.000 A 
ATOM     21  N   UNL     1       0.691  12.059  19.250  0.00  0.00    +0.000 N 
ENDBRANCH  10  13
ENDBRANCH   3   7
BRANCH   1  22
ATOM     22  C   UNL     1       6.399   4.269  18.093  0.00  0.00    +0.000 C 
BRANCH  22  25
ATOM     23  O   UNL     1       7.393   6.092  16.237  0.00  0.00    +0.000 OA
ATOM     24  C   UNL     1       6.670   5.186  15.813  0.00  0.00    +0.000 C 
ATOM     25  N   UNL     1       6.128   4.250  16.666  0.00  0.00    +0.000 N 
ATOM     26  H   UNL     1       5.705   3.417  16.276  0.00  0.00    +0.000 HD
BRANCH  24  27
ATOM     27  C   UNL     1       6.268   4.987  14.322  0.00  0.00    +0.000 C 
ATOM     28  C   UNL     1       7.435   4.834  13.308  0.00  0.00    +0.000 C 
ATOM     29  C   UNL     1       6.551   3.833  12.541  0.00  0.00    +0.000 C 
ATOM     30  C   UNL     1       5.814   3.573  13.870  0.00  0.00    +0.000 C 
ENDBRANCH  24  27
ENDBRANCH  22  25
ENDBRANCH   1  22
TORSDOF 5
ENDMDL
MODEL 6
REMARK VINA RESULT:      -8.3      1.395      2.179
REMARK  Name = 
REMARK  5 active torsions:
REMARK  status: ('A' for Active; 'I' for Inactive)
REMARK    1  A    between atoms: C_2  and  C_26
REMARK    2  A    between atoms: N_3  and  C_4
REMARK    3  A    between atoms: C_4  and  C_5
REMARK    4  A    between atoms: N_7  and  C_8
REMARK    5  A    between atoms: C_11  and  C_12
REMARK                            x       y       z     vdW  Elec       q    Type
REMARK                         _______ _______ _______ _____ _____    ______ ____
ROOT
ATOM      1  C   UNL     1       4.586   4.287  18.888  0.00  0.00    +0.000 C 
ATOM      2  C   UNL     1       4.417   5.779  19.068  0.00  0.00    +0.000 C 
ATOM      3  N   UNL     1       3.048   6.006  18.713  0.00  0.00    +0.000 N 
ATOM      4  C   UNL     1       2.519   4.875  18.112  0.00  0.00    +0.000 C 
ATOM      5  O   UNL     1       1.423   4.723  17.601  0.00  0.00    +0.000 OA
ATOM      6  O   UNL     1       3.444   3.871  18.122  0.00  0.00    +0.000 OA
ENDROOT
BRANCH   3   7
ATOM      7  C   UNL     1       2.377   7.223  18.972  0.00  0.00    +0.000 A 
ATOM      8  C   UNL     1       2.154   8.170  17.966  0.00  0.00    +0.000 A 
ATOM      9  C   UNL     1       1.440   9.346  18.222  0.00  0.00    +0.000 A 
ATOM     10  C   UNL     1       0.939   9.616  19.498  0.00  0.00    +0.000 A 
ATOM     11  C   UNL     1       1.137   8.659  20.498  0.00  0.00    +0.000 A 
ATOM     12  C   UNL     1       1.862   7.491  20.246  0.00  0.00    +0.000 A 
BRANCH  10  13
ATOM     13  C   UNL     1       0.198  10.852  19.738  0.00  0.00    +0.000 A 
ATOM     14  N   UNL     1       0.049  11.834  18.867  0.00  0.00    +0.000 NA
ATOM     15  N   UNL     1      -0.771  12.787  19.418  0.00  0.00    +0.000 NA
ATOM     16  C   UNL     1      -1.100  12.408  20.632  0.00  0.00    +0.000 A 
ATOM     17  N   UNL     1      -1.905  13.004  21.558  0.00  0.00    +0.000 NA
ATOM     18  C   UNL     1      -2.004  12.400  22.704  0.00  0.00    +0.000 A 
ATOM     19  C   UNL     1      -1.318  11.139  23.102  0.00  0.00    +0.000 A 
ATOM     20  C   UNL     1      -0.545  10.595  22.155  0.00  0.00    +0.000 A 
ATOM     21  N   UNL     1      -0.457  11.204  20.904  0.00  0.00    +0.000 N 
ENDBRANCH  10  13
ENDBRANCH   3   7
BRANCH   1  22
ATOM     22  C   UNL     1       5.847   3.926  18.108  0.00  0.00    +0.000 C 
BRANCH  22  25
ATOM     23  O   UNL     1       7.913   4.566  16.354  0.00  0.00    +0.000 OA
ATOM     24  C   UNL     1       6.773   4.491  15.887  0.00  0.00    +0.000 C 
ATOM     25  N   UNL     1       5.694   4.191  16.689  0.00  0.00    +0.000 N 
ATOM     26  H   UNL     1       4.812   3.947  16.254  0.00  0.00    +0.000 HD
BRANCH  24  27
ATOM     27  C   UNL     1       6.401   4.732  14.394  0.00  0.00    +0.000 C 
ATOM     28  C   UNL     1       7.588   4.952  13.415  0.00  0.00    +0.000 C 
ATOM     29  C   UNL     1       6.772   4.186  12.357  0.00  0.00    +0.000 C 
ATOM     30  C   UNL     1       6.036   3.499  13.524  0.00  0.00    +0.000 C 
ENDBRANCH  24  27
ENDBRANCH  22  25
ENDBRANCH   1  22
TORSDOF 5
ENDMDL
MODEL 7
REMARK VINA RESULT:      -8.3      4.311     10.079
REMARK  Name = 
REMARK  5 active torsions:
REMARK  status: ('A' for Active; 'I' for Inactive)
REMARK    1  A    between atoms: C_2  and  C_26
REMARK    2  A    between atoms: N_3  and  C_4
REMARK    3  A    between atoms: C_4  and  C_5
REMARK    4  A    between atoms: N_7  and  C_8
REMARK    5  A    between atoms: C_11  and  C_12
REMARK                            x       y       z     vdW  Elec       q    Type
REMARK                         _______ _______ _______ _____ _____    ______ ____
ROOT
ATOM      1  C   UNL     1       0.389  13.066  18.867  0.00  0.00    +0.000 C 
ATOM      2  C   UNL     1       1.322  11.976  19.344  0.00  0.00    +0.000 C 
ATOM      3  N   UNL     1       0.660  10.771  18.944  0.00  0.00    +0.000 N 
ATOM      4  C   UNL     1      -0.636  11.051  18.543  0.00  0.00    +0.000 C 
ATOM      5  O   UNL     1      -1.523  10.276  18.225  0.00  0.00    +0.000 OA
ATOM      6  O   UNL     1      -0.849  12.399  18.577  0.00  0.00    +0.000 OA
ENDROOT
BRANCH   3   7
ATOM      7  C   UNL     1       1.288   9.504  18.964  0.00  0.00    +0.000 A 
ATOM      8  C   UNL     1       1.982   9.009  17.854  0.00  0.00    +0.000 A 
ATOM      9  C   UNL     1       2.647   7.778  17.904  0.00  0.00    +0.000 A 
ATOM     10  C   UNL     1       2.624   6.999  19.064  0.00  0.00    +0.000 A 
ATOM     11  C   UNL     1       1.954   7.504  20.182  0.00  0.00    +0.000 A 
ATOM     12  C   UNL     1       1.279   8.727  20.128  0.00  0.00    +0.000 A 
BRANCH  10  13
ATOM     13  C   UNL     1       3.326   5.718  19.089  0.00  0.00    +0.000 A 
ATOM     14  N   UNL     1       4.626   5.563  19.271  0.00  0.00    +0.000 NA
ATOM     15  N   UNL     1       4.905   4.219  19.310  0.00  0.00    +0.000 NA
ATOM     16  C   UNL     1       3.788   3.553  19.124  0.00  0.00    +0.000 A 
ATOM     17  N   UNL     1       3.553   2.209  19.100  0.00  0.00    +0.000 NA
ATOM     18  C   UNL     1       2.332   1.845  18.844  0.00  0.00    +0.000 A 
ATOM     19  C   UNL     1       1.181   2.748  18.564  0.00  0.00    +0.000 A 
ATOM     20  C   UNL     1       1.467   4.055  18.605  0.00  0.00    +0.000 A 
ATOM     21  N   UNL     1       2.761   4.467  18.918  0.00  0.00    +0.000 N 
ENDBRANCH  10  13
ENDBRANCH   3   7
BRANCH   1  22
ATOM     22  C   UNL     1       0.128  14.127  19.932  0.00  0.00    +0.000 C 
BRANCH  22  25
ATOM     23  O   UNL     1       0.526  14.676  22.633  0.00  0.00    +0.000 OA
ATOM     24  C   UNL     1      -0.416  13.935  22.335  0.00  0.00    +0.000 C 
ATOM     25  N   UNL     1      -0.674  13.605  21.024  0.00  0.00    +0.000 N 
ATOM     26  H   UNL     1      -1.554  13.161  20.793  0.00  0.00    +0.000 HD
BRANCH  24  27
ATOM     27  C   UNL     1      -1.395  13.280  23.354  0.00  0.00    +0.000 C 
ATOM     28  C   UNL     1      -2.808  13.917  23.459  0.00  0.00    +0.000 C 
ATOM     29  C   UNL     1      -3.360  12.497  23.683  0.00  0.00    +0.000 C 
ATOM     30  C   UNL     1      -2.118  11.972  22.936  0.00  0.00    +0.000 C 
ENDBRANCH  24  27
ENDBRANCH  22  25
ENDBRANCH   1  22
TORSDOF 5
ENDMDL
MODEL 8
REMARK VINA RESULT:      -8.3      4.305      9.077
REMARK  Name = 
REMARK  5 active torsions:
REMARK  status: ('A' for Active; 'I' for Inactive)
REMARK    1  A    between atoms: C_2  and  C_26
REMARK    2  A    between atoms: N_3  and  C_4
REMARK    3  A    between atoms: C_4  and  C_5
REMARK    4  A    between atoms: N_7  and  C_8
REMARK    5  A    between atoms: C_11  and  C_12
REMARK                            x       y       z     vdW  Elec       q    Type
REMARK                         _______ _______ _______ _____ _____    ______ ____
ROOT
ATOM      1  C   UNL     1      -1.526  11.772  20.620  0.00  0.00    +0.000 C 
ATOM      2  C   UNL     1      -1.098  10.483  19.955  0.00  0.00    +0.000 C 
ATOM      3  N   UNL     1       0.301  10.402  20.252  0.00  0.00    +0.000 N 
ATOM      4  C   UNL     1       0.747  11.608  20.768  0.00  0.00    +0.000 C 
ATOM      5  O   UNL     1       1.884  11.945  21.050  0.00  0.00    +0.000 OA
ATOM      6  O   UNL     1      -0.304  12.468  20.910  0.00  0.00    +0.000 OA
ENDROOT
BRANCH   3   7
ATOM      7  C   UNL     1       1.067   9.233  20.041  0.00  0.00    +0.000 A 
ATOM      8  C   UNL     1       1.193   8.247  21.026  0.00  0.00    +0.000 A 
ATOM      9  C   UNL     1       1.909   7.068  20.784  0.00  0.00    +0.000 A 
ATOM     10  C   UNL     1       2.532   6.849  19.553  0.00  0.00    +0.000 A 
ATOM     11  C   UNL     1       2.385   7.820  18.558  0.00  0.00    +0.000 A 
ATOM     12  C   UNL     1       1.682   9.003  18.804  0.00  0.00    +0.000 A 
BRANCH  10  13
ATOM     13  C   UNL     1       3.274   5.610  19.328  0.00  0.00    +0.000 A 
ATOM     14  N   UNL     1       4.589   5.489  19.367  0.00  0.00    +0.000 NA
ATOM     15  N   UNL     1       4.913   4.168  19.186  0.00  0.00    +0.000 NA
ATOM     16  C   UNL     1       3.805   3.484  19.008  0.00  0.00    +0.000 A 
ATOM     17  N   UNL     1       3.611   2.148  18.811  0.00  0.00    +0.000 NA
ATOM     18  C   UNL     1       2.384   1.769  18.618  0.00  0.00    +0.000 A 
ATOM     19  C   UNL     1       1.183   2.650  18.578  0.00  0.00    +0.000 A 
ATOM     20  C   UNL     1       1.429   3.949  18.781  0.00  0.00    +0.000 A 
ATOM     21  N   UNL     1       2.734   4.372  19.031  0.00  0.00    +0.000 N 
ENDBRANCH  10  13
ENDBRANCH   3   7
BRANCH   1  22
ATOM     22  C   UNL     1      -2.378  12.650  19.708  0.00  0.00    +0.000 C 
BRANCH  22  25
ATOM     23  O   UNL     1      -4.156  11.071  18.260  0.00  0.00    +0.000 OA
ATOM     24  C   UNL     1      -3.163  11.500  17.667  0.00  0.00    +0.000 C 
ATOM     25  N   UNL     1      -2.229  12.278  18.313  0.00  0.00    +0.000 N 
ATOM     26  H   UNL     1      -1.535  12.771  17.763  0.00  0.00    +0.000 HD
BRANCH  24  27
ATOM     27  C   UNL     1      -2.825  11.221  16.172  0.00  0.00    +0.000 C 
ATOM     28  C   UNL     1      -2.386   9.772  15.823  0.00  0.00    +0.000 C 
ATOM     29  C   UNL     1      -3.134   9.936  14.487  0.00  0.00    +0.000 C 
ATOM     30  C   UNL     1      -4.003  11.000  15.185  0.00  0.00    +0.000 C 
ENDBRANCH  24  27
ENDBRANCH  22  25
ENDBRANCH   1  22
TORSDOF 5
ENDMDL
MODEL 9
REMARK VINA RESULT:      -8.3      2.210      3.078
REMARK  Name = 
REMARK  5 active torsions:
REMARK  status: ('A' for Active; 'I' for Inactive)
REMARK    1  A    between atoms: C_2  and  C_26
REMARK    2  A    between atoms: N_3  and  C_4
REMARK    3  A    between atoms: C_4  and  C_5
REMARK    4  A    between atoms: N_7  and  C_8
REMARK    5  A    between atoms: C_11  and  C_12
REMARK                            x       y       z     vdW  Elec       q    Type
REMARK                         _______ _______ _______ _____ _____    ______ ____
ROOT
ATOM      1  C   UNL     1       4.359   4.376  19.985  0.00  0.00    +0.000 C 
ATOM      2  C   UNL     1       4.114   5.696  19.290  0.00  0.00    +0.000 C 
ATOM      3  N   UNL     1       2.767   6.021  19.654  0.00  0.00    +0.000 N 
ATOM      4  C   UNL     1       2.157   4.925  20.243  0.00  0.00    +0.000 C 
ATOM      5  O   UNL     1       0.998   4.793  20.596  0.00  0.00    +0.000 OA
ATOM      6  O   UNL     1       3.057   3.906  20.366  0.00  0.00    +0.000 OA
ENDROOT
BRANCH   3   7
ATOM      7  C   UNL     1       2.195   7.295  19.433  0.00  0.00    +0.000 A 
ATOM      8  C   UNL     1       2.175   7.883  18.164  0.00  0.00    +0.000 A 
ATOM      9  C   UNL     1       1.556   9.120  17.948  0.00  0.00    +0.000 A 
ATOM     10  C   UNL     1       0.952   9.812  19.000  0.00  0.00    +0.000 A 
ATOM     11  C   UNL     1       0.947   9.213  20.264  0.00  0.00    +0.000 A 
ATOM     12  C   UNL     1       1.576   7.984  20.483  0.00  0.00    +0.000 A 
BRANCH  10  13
ATOM     13  C   UNL     1       0.313  11.102  18.746  0.00  0.00    +0.000 A 
ATOM     14  N   UNL     1      -0.959  11.275  18.435  0.00  0.00    +0.000 NA
ATOM     15  N   UNL     1      -1.209  12.622  18.349  0.00  0.00    +0.000 NA
ATOM     16  C   UNL     1      -0.090  13.272  18.578  0.00  0.00    +0.000 A 
ATOM     17  N   UNL     1       0.162  14.613  18.624  0.00  0.00    +0.000 NA
ATOM     18  C   UNL     1       1.398  14.957  18.831  0.00  0.00    +0.000 A 
ATOM     19  C   UNL     1       2.555  14.035  19.008  0.00  0.00    +0.000 A 
ATOM     20  C   UNL     1       2.250  12.733  18.960  0.00  0.00    +0.000 A 
ATOM     21  N   UNL     1       0.924  12.342  18.779  0.00  0.00    +0.000 N 
ENDBRANCH  10  13
ENDBRANCH   3   7
BRANCH   1  22
ATOM     22  C   UNL     1       4.999   3.337  19.069  0.00  0.00    +0.000 C 
BRANCH  22  25
ATOM     23  O   UNL     1       7.454   4.408  18.306  0.00  0.00    +0.000 OA
ATOM     24  C   UNL     1       6.553   4.392  17.463  0.00  0.00    +0.000 C 
ATOM     25  N   UNL     1       5.306   3.891  17.763  0.00  0.00    +0.000 N 
ATOM     26  H   UNL     1       4.654   3.714  17.009  0.00  0.00    +0.000 HD
BRANCH  24  27
ATOM     27  C   UNL     1       6.682   4.930  16.007  0.00  0.00    +0.000 C 
ATOM     28  C   UNL     1       6.411   3.909  14.868  0.00  0.00    +0.000 C 
ATOM     29  C   UNL     1       5.776   5.063  14.071  0.00  0.00    +0.000 C 
ATOM     30  C   UNL     1       5.501   5.751  15.423  0.00  0.00    +0.000 C 
ENDBRANCH  24  27
ENDBRANCH  22  25
ENDBRANCH   1  22
TORSDOF 5
ENDMDL
