MODEL 1
REMARK VINA RESULT:      -6.3      0.000      0.000
REMARK  Name = 
REMARK  8 active torsions:
REMARK  status: ('A' for Active; 'I' for Inactive)
REMARK    1  A    between atoms: C_1  and  C_2
REMARK    2  A    between atoms: C_2  and  N_3
REMARK    3  A    between atoms: N_3  and  C_4
REMARK    4  A    between atoms: N_3  and  C_6
REMARK    5  A    between atoms: C_4  and  C_5
REMARK    6  A    between atoms: C_6  and  C_7
REMARK    7  A    between atoms: C_7  and  S_8
REMARK    8  A    between atoms: S_8  and  C_9
REMARK                            x       y       z     vdW  Elec       q    Type
REMARK                         _______ _______ _______ _____ _____    ______ ____
ROOT
ATOM      1  C   UNL     1       6.050   5.217  18.168  0.00  0.00    +0.000 A 
ATOM      2  C   UNL     1       6.849   6.273  18.598  0.00  0.00    +0.000 A 
ATOM      3  C   UNL     1       7.653   6.901  17.673  0.00  0.00    +0.000 A 
ATOM      4  N   UNL     1       7.724   6.541  16.378  0.00  0.00    +0.000 NA
ATOM      5  C   UNL     1       6.972   5.512  15.958  0.00  0.00    +0.000 A 
ATOM      6  C   UNL     1       7.061   5.156  14.620  0.00  0.00    +0.000 A 
ATOM      7  C   UNL     1       6.308   4.108  14.095  0.00  0.00    +0.000 A 
ATOM      8 CL   UNL     1       6.448   3.702  12.431  0.00  0.00    +0.000 Cl
ATOM      9  C   UNL     1       5.448   3.388  14.913  0.00  0.00    +0.000 A 
ATOM     10  C   UNL     1       5.343   3.730  16.261  0.00  0.00    +0.000 A 
ATOM     11  C   UNL     1       6.102   4.794  16.812  0.00  0.00    +0.000 A 
ENDROOT
BRANCH   1  12
ATOM     12  S   UNL     1       4.958   4.452  19.377  0.00  0.00    +0.000 S 
BRANCH  12  13
ATOM     13  C   UNL     1       3.610   5.702  19.440  0.00  0.00    +0.000 C 
BRANCH  13  14
ATOM     14  C   UNL     1       2.255   5.092  19.045  0.00  0.00    +0.000 C 
BRANCH  14  15
ATOM     15  N   UNL     1       2.012   3.709  19.512  0.00  0.00    +0.000 NA
BRANCH  15  17
ATOM     16  C   UNL     1       1.433   2.630  21.732  0.00  0.00    +0.000 C 
ATOM     17  C   UNL     1       1.198   3.767  20.744  0.00  0.00    +0.000 C 
ENDBRANCH  15  17
BRANCH  15  18
ATOM     18  C   UNL     1       1.472   2.814  18.479  0.00  0.00    +0.000 C 
ATOM     19  C   UNL     1       2.496   2.028  17.665  0.00  0.00    +0.000 C 
ENDBRANCH  15  18
ENDBRANCH  14  15
ENDBRANCH  13  14
ENDBRANCH  12  13
ENDBRANCH   1  12
TORSDOF 6
ENDMDL
MODEL 2
REMARK VINA RESULT:      -6.1      1.307      2.023
REMARK  Name = 
REMARK  8 active torsions:
REMARK  status: ('A' for Active; 'I' for Inactive)
REMARK    1  A    between atoms: C_1  and  C_2
REMARK    2  A    between atoms: C_2  and  N_3
REMARK    3  A    between atoms: N_3  and  C_4
REMARK    4  A    between atoms: N_3  and  C_6
REMARK    5  A    between atoms: C_4  and  C_5
REMARK    6  A    between atoms: C_6  and  C_7
REMARK    7  A    between atoms: C_7  and  S_8
REMARK    8  A    between atoms: S_8  and  C_9
REMARK                            x       y       z     vdW  Elec       q    Type
REMARK                         _______ _______ _______ _____ _____    ______ ____
ROOT
ATOM      1  C   UNL     1       5.266   4.148  17.734  0.00  0.00    +0.000 A 
ATOM      2  C   UNL     1       5.799   4.792  18.848  0.00  0.00    +0.000 A 
ATOM      3  C   UNL     1       6.864   5.644  18.662  0.00  0.00    +0.000 A 
ATOM      4  N   UNL     1       7.431   5.880  17.464  0.00  0.00    +0.000 NA
ATOM      5  C   UNL     1       6.938   5.249  16.388  0.00  0.00    +0.000 A 
ATOM      6  C   UNL     1       7.539   5.504  15.163  0.00  0.00    +0.000 A 
ATOM      7  C   UNL     1       7.084   4.902  13.992  0.00  0.00    +0.000 A 
ATOM      8 CL   UNL     1       7.857   5.247  12.495  0.00  0.00    +0.000 Cl
ATOM      9  C   UNL     1       6.012   4.022  14.029  0.00  0.00    +0.000 A 
ATOM     10  C   UNL     1       5.393   3.753  15.250  0.00  0.00    +0.000 A 
ATOM     11  C   UNL     1       5.843   4.356  16.452  0.00  0.00    +0.000 A 
ENDROOT
BRANCH   1  12
ATOM     12  S   UNL     1       3.834   3.088  17.990  0.00  0.00    +0.000 S 
BRANCH  12  13
ATOM     13  C   UNL     1       2.490   4.345  17.986  0.00  0.00    +0.000 C 
BRANCH  13  14
ATOM     14  C   UNL     1       1.244   3.842  18.733  0.00  0.00    +0.000 C 
BRANCH  14  15
ATOM     15  N   UNL     1       1.147   4.232  20.157  0.00  0.00    +0.000 NA
BRANCH  15  17
ATOM     16  C   UNL     1       2.529   2.662  21.590  0.00  0.00    +0.000 C 
ATOM     17  C   UNL     1       1.175   3.005  20.981  0.00  0.00    +0.000 C 
ENDBRANCH  15  17
BRANCH  15  18
ATOM     18  C   UNL     1       2.125   5.251  20.566  0.00  0.00    +0.000 C 
ATOM     19  C   UNL     1       1.619   6.689  20.616  0.00  0.00    +0.000 C 
ENDBRANCH  15  18
ENDBRANCH  14  15
ENDBRANCH  13  14
ENDBRANCH  12  13
ENDBRANCH   1  12
TORSDOF 6
ENDMDL
MODEL 3
REMARK VINA RESULT:      -6.1      1.129      2.207
REMARK  Name = 
REMARK  8 active torsions:
REMARK  status: ('A' for Active; 'I' for Inactive)
REMARK    1  A    between atoms: C_1  and  C_2
REMARK    2  A    between atoms: C_2  and  N_3
REMARK    3  A    between atoms: N_3  and  C_4
REMARK    4  A    between atoms: N_3  and  C_6
REMARK    5  A    between atoms: C_4  and  C_5
REMARK    6  A    between atoms: C_6  and  C_7
REMARK    7  A    between atoms: C_7  and  S_8
REMARK    8  A    between atoms: S_8  and  C_9
REMARK                            x       y       z     vdW  Elec       q    Type
REMARK                         _______ _______ _______ _____ _____    ______ ____
ROOT
ATOM      1  C   UNL     1       5.655   4.618  17.721  0.00  0.00    +0.000 A 
ATOM      2  C   UNL     1       6.242   5.608  18.505  0.00  0.00    +0.000 A 
ATOM      3  C   UNL     1       7.133   6.472  17.908  0.00  0.00    +0.000 A 
ATOM      4  N   UNL     1       7.483   6.403  16.610  0.00  0.00    +0.000 NA
ATOM      5  C   UNL     1       6.938   5.441  15.851  0.00  0.00    +0.000 A 
ATOM      6  C   UNL     1       7.314   5.386  14.516  0.00  0.00    +0.000 A 
ATOM      7  C   UNL     1       6.790   4.427  13.652  0.00  0.00    +0.000 A 
ATOM      8 CL   UNL     1       7.282   4.397  12.005  0.00  0.00    +0.000 Cl
ATOM      9  C   UNL     1       5.875   3.494  14.117  0.00  0.00    +0.000 A 
ATOM     10  C   UNL     1       5.482   3.531  15.455  0.00  0.00    +0.000 A 
ATOM     11  C   UNL     1       6.007   4.500  16.349  0.00  0.00    +0.000 A 
ENDROOT
BRANCH   1  12
ATOM     12  S   UNL     1       4.445   3.541  18.505  0.00  0.00    +0.000 S 
BRANCH  12  13
ATOM     13  C   UNL     1       2.960   3.920  17.488  0.00  0.00    +0.000 C 
BRANCH  13  14
ATOM     14  C   UNL     1       2.033   4.924  18.194  0.00  0.00    +0.000 C 
BRANCH  14  15
ATOM     15  N   UNL     1       2.490   5.399  19.519  0.00  0.00    +0.000 NA
BRANCH  15  17
ATOM     16  C   UNL     1       2.765   7.460  18.068  0.00  0.00    +0.000 C 
ATOM     17  C   UNL     1       2.627   6.870  19.466  0.00  0.00    +0.000 C 
ENDBRANCH  15  17
BRANCH  15  18
ATOM     18  C   UNL     1       1.677   4.913  20.642  0.00  0.00    +0.000 C 
ATOM     19  C   UNL     1       0.982   3.570  20.440  0.00  0.00    +0.000 C 
ENDBRANCH  15  18
ENDBRANCH  14  15
ENDBRANCH  13  14
ENDBRANCH  12  13
ENDBRANCH   1  12
TORSDOF 6
ENDMDL
MODEL 4
REMARK VINA RESULT:      -5.9      0.560      1.468
REMARK  Name = 
REMARK  8 active torsions:
REMARK  status: ('A' for Active; 'I' for Inactive)
REMARK    1  A    between atoms: C_1  and  C_2
REMARK    2  A    between atoms: C_2  and  N_3
REMARK    3  A    between atoms: N_3  and  C_4
REMARK    4  A    between atoms: N_3  and  C_6
REMARK    5  A    between atoms: C_4  and  C_5
REMARK    6  A    between atoms: C_6  and  C_7
REMARK    7  A    between atoms: C_7  and  S_8
REMARK    8  A    between atoms: S_8  and  C_9
REMARK                            x       y       z     vdW  Elec       q    Type
REMARK                         _______ _______ _______ _____ _____    ______ ____
ROOT
ATOM      1  C   UNL     1       6.107   5.034  18.007  0.00  0.00    +0.000 A 
ATOM      2  C   UNL     1       6.860   6.100  18.493  0.00  0.00    +0.000 A 
ATOM      3  C   UNL     1       7.639   6.807  17.604  0.00  0.00    +0.000 A 
ATOM      4  N   UNL     1       7.728   6.515  16.293  0.00  0.00    +0.000 NA
ATOM      5  C   UNL     1       7.022   5.478  15.819  0.00  0.00    +0.000 A 
ATOM      6  C   UNL     1       7.129   5.193  14.465  0.00  0.00    +0.000 A 
ATOM      7  C   UNL     1       6.422   4.141  13.886  0.00  0.00    +0.000 A 
ATOM      8 CL   UNL     1       6.584   3.825  12.204  0.00  0.00    +0.000 Cl
ATOM      9  C   UNL     1       5.592   3.346  14.663  0.00  0.00    +0.000 A 
ATOM     10  C   UNL     1       5.469   3.615  16.026  0.00  0.00    +0.000 A 
ATOM     11  C   UNL     1       6.181   4.682  16.632  0.00  0.00    +0.000 A 
ENDROOT
BRANCH   1  12
ATOM     12  S   UNL     1       5.046   4.164  19.172  0.00  0.00    +0.000 S 
BRANCH  12  13
ATOM     13  C   UNL     1       3.842   5.494  19.576  0.00  0.00    +0.000 C 
BRANCH  13  14
ATOM     14  C   UNL     1       2.495   5.271  18.869  0.00  0.00    +0.000 C 
BRANCH  14  15
ATOM     15  N   UNL     1       1.583   4.301  19.515  0.00  0.00    +0.000 NA
BRANCH  15  17
ATOM     16  C   UNL     1       0.494   2.160  18.705  0.00  0.00    +0.000 C 
ATOM     17  C   UNL     1       1.765   2.986  18.865  0.00  0.00    +0.000 C 
ENDBRANCH  15  17
BRANCH  15  18
ATOM     18  C   UNL     1       1.687   4.266  20.980  0.00  0.00    +0.000 C 
ATOM     19  C   UNL     1       2.252   2.984  21.585  0.00  0.00    +0.000 C 
ENDBRANCH  15  18
ENDBRANCH  14  15
ENDBRANCH  13  14
ENDBRANCH  12  13
ENDBRANCH   1  12
TORSDOF 6
ENDMDL
MODEL 5
REMARK VINA RESULT:      -5.8      1.520      2.258
REMARK  Name = 
REMARK  8 active torsions:
REMARK  status: ('A' for Active; 'I' for Inactive)
REMARK    1  A    between atoms: C_1  and  C_2
REMARK    2  A    between atoms: C_2  and  N_3
REMARK    3  A    between atoms: N_3  and  C_4
REMARK    4  A    between atoms: N_3  and  C_6
REMARK    5  A    between atoms: C_4  and  C_5
REMARK    6  A    between atoms: C_6  and  C_7
REMARK    7  A    between atoms: C_7  and  S_8
REMARK    8  A    between atoms: S_8  and  C_9
REMARK                            x       y       z     vdW  Elec       q    Type
REMARK                         _______ _______ _______ _____ _____    ______ ____
ROOT
ATOM      1  C   UNL     1       4.804   5.879  18.153  0.00  0.00    +0.000 A 
ATOM      2  C   UNL     1       5.436   5.496  19.333  0.00  0.00    +0.000 A 
ATOM      3  C   UNL     1       6.646   4.845  19.244  0.00  0.00    +0.000 A 
ATOM      4  N   UNL     1       7.247   4.542  18.077  0.00  0.00    +0.000 NA
ATOM      5  C   UNL     1       6.636   4.890  16.935  0.00  0.00    +0.000 A 
ATOM      6  C   UNL     1       7.271   4.567  15.744  0.00  0.00    +0.000 A 
ATOM      7  C   UNL     1       6.715   4.901  14.511  0.00  0.00    +0.000 A 
ATOM      8 CL   UNL     1       7.538   4.483  13.060  0.00  0.00    +0.000 Cl
ATOM      9  C   UNL     1       5.499   5.565  14.450  0.00  0.00    +0.000 A 
ATOM     10  C   UNL     1       4.844   5.900  15.634  0.00  0.00    +0.000 A 
ATOM     11  C   UNL     1       5.395   5.568  16.899  0.00  0.00    +0.000 A 
ENDROOT
BRANCH   1  12
ATOM     12  S   UNL     1       3.255   6.786  18.293  0.00  0.00    +0.000 S 
BRANCH  12  13
ATOM     13  C   UNL     1       2.260   5.586  19.270  0.00  0.00    +0.000 C 
BRANCH  13  14
ATOM     14  C   UNL     1       1.866   4.361  18.428  0.00  0.00    +0.000 C 
BRANCH  14  15
ATOM     15  N   UNL     1       1.258   3.238  19.175  0.00  0.00    +0.000 NA
BRANCH  15  17
ATOM     16  C   UNL     1       3.265   2.213  18.014  0.00  0.00    +0.000 C 
ATOM     17  C   UNL     1       2.048   2.017  18.910  0.00  0.00    +0.000 C 
ENDBRANCH  15  17
BRANCH  15  18
ATOM     18  C   UNL     1       1.043   3.514  20.603  0.00  0.00    +0.000 C 
ATOM     19  C   UNL     1       1.837   2.655  21.582  0.00  0.00    +0.000 C 
ENDBRANCH  15  18
ENDBRANCH  14  15
ENDBRANCH  13  14
ENDBRANCH  12  13
ENDBRANCH   1  12
TORSDOF 6
ENDMDL
MODEL 6
REMARK VINA RESULT:      -5.7      1.317      2.034
REMARK  Name = 
REMARK  8 active torsions:
REMARK  status: ('A' for Active; 'I' for Inactive)
REMARK    1  A    between atoms: C_1  and  C_2
REMARK    2  A    between atoms: C_2  and  N_3
REMARK    3  A    between atoms: N_3  and  C_4
REMARK    4  A    between atoms: N_3  and  C_6
REMARK    5  A    between atoms: C_4  and  C_5
REMARK    6  A    between atoms: C_6  and  C_7
REMARK    7  A    between atoms: C_7  and  S_8
REMARK    8  A    between atoms: S_8  and  C_9
REMARK                            x       y       z     vdW  Elec       q    Type
REMARK                         _______ _______ _______ _____ _____    ______ ____
ROOT
ATOM      1  C   UNL     1       5.209   4.004  17.378  0.00  0.00    +0.000 A 
ATOM      2  C   UNL     1       5.828   4.562  18.493  0.00  0.00    +0.000 A 
ATOM      3  C   UNL     1       6.954   5.329  18.299  0.00  0.00    +0.000 A 
ATOM      4  N   UNL     1       7.502   5.558  17.090  0.00  0.00    +0.000 NA
ATOM      5  C   UNL     1       6.925   5.008  16.011  0.00  0.00    +0.000 A 
ATOM      6  C   UNL     1       7.507   5.255  14.776  0.00  0.00    +0.000 A 
ATOM      7  C   UNL     1       6.967   4.733  13.602  0.00  0.00    +0.000 A 
ATOM      8 CL   UNL     1       7.720   5.065  12.092  0.00  0.00    +0.000 Cl
ATOM      9  C   UNL     1       5.827   3.944  13.648  0.00  0.00    +0.000 A 
ATOM     10  C   UNL     1       5.225   3.685  14.879  0.00  0.00    +0.000 A 
ATOM     11  C   UNL     1       5.761   4.207  16.084  0.00  0.00    +0.000 A 
ENDROOT
BRANCH   1  12
ATOM     12  S   UNL     1       3.701   3.057  17.647  0.00  0.00    +0.000 S 
BRANCH  12  13
ATOM     13  C   UNL     1       4.014   2.418  19.343  0.00  0.00    +0.000 C 
BRANCH  13  14
ATOM     14  C   UNL     1       3.383   3.323  20.414  0.00  0.00    +0.000 C 
BRANCH  14  15
ATOM     15  N   UNL     1       2.166   4.056  19.999  0.00  0.00    +0.000 NA
BRANCH  15  17
ATOM     16  C   UNL     1       1.249   2.559  21.828  0.00  0.00    +0.000 C 
ATOM     17  C   UNL     1       0.988   3.360  20.559  0.00  0.00    +0.000 C 
ENDBRANCH  15  17
BRANCH  15  18
ATOM     18  C   UNL     1       2.206   5.496  20.290  0.00  0.00    +0.000 C 
ATOM     19  C   UNL     1       2.712   6.397  19.168  0.00  0.00    +0.000 C 
ENDBRANCH  15  18
ENDBRANCH  14  15
ENDBRANCH  13  14
ENDBRANCH  12  13
ENDBRANCH   1  12
TORSDOF 6
ENDMDL
MODEL 7
REMARK VINA RESULT:      -5.7      1.506      1.634
REMARK  Name = 
REMARK  8 active torsions:
REMARK  status: ('A' for Active; 'I' for Inactive)
REMARK    1  A    between atoms: C_1  and  C_2
REMARK    2  A    between atoms: C_2  and  N_3
REMARK    3  A    between atoms: N_3  and  C_4
REMARK    4  A    between atoms: N_3  and  C_6
REMARK    5  A    between atoms: C_4  and  C_5
REMARK    6  A    between atoms: C_6  and  C_7
REMARK    7  A    between atoms: C_7  and  S_8
REMARK    8  A    between atoms: S_8  and  C_9
REMARK                            x       y       z     vdW  Elec       q    Type
REMARK                         _______ _______ _______ _____ _____    ______ ____
ROOT
ATOM      1  C   UNL     1       4.969   5.781  18.169  0.00  0.00    +0.000 A 
ATOM      2  C   UNL     1       5.711   5.519  19.318  0.00  0.00    +0.000 A 
ATOM      3  C   UNL     1       6.971   4.984  19.173  0.00  0.00    +0.000 A 
ATOM      4  N   UNL     1       7.523   4.685  17.982  0.00  0.00    +0.000 NA
ATOM      5  C   UNL     1       6.808   4.915  16.870  0.00  0.00    +0.000 A 
ATOM      6  C   UNL     1       7.394   4.597  15.653  0.00  0.00    +0.000 A 
ATOM      7  C   UNL     1       6.729   4.814  14.448  0.00  0.00    +0.000 A 
ATOM      8 CL   UNL     1       7.493   4.407  12.963  0.00  0.00    +0.000 Cl
ATOM      9  C   UNL     1       5.451   5.354  14.443  0.00  0.00    +0.000 A 
ATOM     10  C   UNL     1       4.844   5.682  15.655  0.00  0.00    +0.000 A 
ATOM     11  C   UNL     1       5.506   5.467  16.892  0.00  0.00    +0.000 A 
ENDROOT
BRANCH   1  12
ATOM     12  S   UNL     1       3.350   6.540  18.378  0.00  0.00    +0.000 S 
BRANCH  12  13
ATOM     13  C   UNL     1       2.808   5.733  19.939  0.00  0.00    +0.000 C 
BRANCH  13  14
ATOM     14  C   UNL     1       2.224   4.334  19.679  0.00  0.00    +0.000 C 
BRANCH  14  15
ATOM     15  N   UNL     1       3.144   3.200  19.916  0.00  0.00    +0.000 NA
BRANCH  15  17
ATOM     16  C   UNL     1       1.342   2.687  21.624  0.00  0.00    +0.000 C 
ATOM     17  C   UNL     1       2.808   2.590  21.220  0.00  0.00    +0.000 C 
ENDBRANCH  15  17
BRANCH  15  18
ATOM     18  C   UNL     1       3.210   2.240  18.805  0.00  0.00    +0.000 C 
ATOM     19  C   UNL     1       2.627   2.707  17.475  0.00  0.00    +0.000 C 
ENDBRANCH  15  18
ENDBRANCH  14  15
ENDBRANCH  13  14
ENDBRANCH  12  13
ENDBRANCH   1  12
TORSDOF 6
ENDMDL
MODEL 8
REMARK VINA RESULT:      -5.7      3.053      6.712
REMARK  Name = 
REMARK  8 active torsions:
REMARK  status: ('A' for Active; 'I' for Inactive)
REMARK    1  A    between atoms: C_1  and  C_2
REMARK    2  A    between atoms: C_2  and  N_3
REMARK    3  A    between atoms: N_3  and  C_4
REMARK    4  A    between atoms: N_3  and  C_6
REMARK    5  A    between atoms: C_4  and  C_5
REMARK    6  A    between atoms: C_6  and  C_7
REMARK    7  A    between atoms: C_7  and  S_8
REMARK    8  A    between atoms: S_8  and  C_9
REMARK                            x       y       z     vdW  Elec       q    Type
REMARK                         _______ _______ _______ _____ _____    ______ ____
ROOT
ATOM      1  C   UNL     1       3.429   3.847  18.994  0.00  0.00    +0.000 A 
ATOM      2  C   UNL     1       3.242   2.759  19.843  0.00  0.00    +0.000 A 
ATOM      3  C   UNL     1       2.494   2.944  20.984  0.00  0.00    +0.000 A 
ATOM      4  N   UNL     1       1.946   4.122  21.335  0.00  0.00    +0.000 NA
ATOM      5  C   UNL     1       2.137   5.181  20.534  0.00  0.00    +0.000 A 
ATOM      6  C   UNL     1       1.566   6.387  20.916  0.00  0.00    +0.000 A 
ATOM      7  C   UNL     1       1.704   7.534  20.138  0.00  0.00    +0.000 A 
ATOM      8 CL   UNL     1       0.977   9.006  20.648  0.00  0.00    +0.000 Cl
ATOM      9  C   UNL     1       2.428   7.493  18.956  0.00  0.00    +0.000 A 
ATOM     10  C   UNL     1       3.010   6.292  18.553  0.00  0.00    +0.000 A 
ATOM     11  C   UNL     1       2.881   5.114  19.332  0.00  0.00    +0.000 A 
ENDROOT
BRANCH   1  12
ATOM     12  S   UNL     1       4.355   3.570  17.475  0.00  0.00    +0.000 S 
BRANCH  12  13
ATOM     13  C   UNL     1       5.962   4.342  17.925  0.00  0.00    +0.000 C 
BRANCH  13  14
ATOM     14  C   UNL     1       6.964   4.283  16.759  0.00  0.00    +0.000 C 
BRANCH  14  15
ATOM     15  N   UNL     1       7.112   5.530  15.976  0.00  0.00    +0.000 NA
BRANCH  15  17
ATOM     16  C   UNL     1       6.305   3.870  14.238  0.00  0.00    +0.000 C 
ATOM     17  C   UNL     1       6.988   5.198  14.541  0.00  0.00    +0.000 C 
ENDBRANCH  15  17
BRANCH  15  18
ATOM     18  C   UNL     1       6.233   6.622  16.417  0.00  0.00    +0.000 C 
ATOM     19  C   UNL     1       4.994   6.875  15.564  0.00  0.00    +0.000 C 
ENDBRANCH  15  18
ENDBRANCH  14  15
ENDBRANCH  13  14
ENDBRANCH  12  13
ENDBRANCH   1  12
TORSDOF 6
ENDMDL
MODEL 9
REMARK VINA RESULT:      -5.6      5.252      7.856
REMARK  Name = 
REMARK  8 active torsions:
REMARK  status: ('A' for Active; 'I' for Inactive)
REMARK    1  A    between atoms: C_1  and  C_2
REMARK    2  A    between atoms: C_2  and  N_3
REMARK    3  A    between atoms: N_3  and  C_4
REMARK    4  A    between atoms: N_3  and  C_6
REMARK    5  A    between atoms: C_4  and  C_5
REMARK    6  A    between atoms: C_6  and  C_7
REMARK    7  A    between atoms: C_7  and  S_8
REMARK    8  A    between atoms: S_8  and  C_9
REMARK                            x       y       z     vdW  Elec       q    Type
REMARK                         _______ _______ _______ _____ _____    ______ ____
ROOT
ATOM      1  C   UNL     1       1.969   7.990  19.318  0.00  0.00    +0.000 A 
ATOM      2  C   UNL     1       2.302   8.546  18.086  0.00  0.00    +0.000 A 
ATOM      3  C   UNL     1       1.898   9.835  17.821  0.00  0.00    +0.000 A 
ATOM      4  N   UNL     1       1.182  10.585  18.680  0.00  0.00    +0.000 NA
ATOM      5  C   UNL     1       0.839  10.050  19.862  0.00  0.00    +0.000 A 
ATOM      6  C   UNL     1       0.099  10.839  20.732  0.00  0.00    +0.000 A 
ATOM      7  C   UNL     1      -0.291  10.370  21.984  0.00  0.00    +0.000 A 
ATOM      8 CL   UNL     1      -1.205  11.381  23.031  0.00  0.00    +0.000 Cl
ATOM      9  C   UNL     1       0.053   9.087  22.388  0.00  0.00    +0.000 A 
ATOM     10  C   UNL     1       0.797   8.278  21.529  0.00  0.00    +0.000 A 
ATOM     11  C   UNL     1       1.202   8.740  20.250  0.00  0.00    +0.000 A 
ENDROOT
BRANCH   1  12
ATOM     12  S   UNL     1       2.562   6.327  19.670  0.00  0.00    +0.000 S 
BRANCH  12  13
ATOM     13  C   UNL     1       3.368   5.920  18.068  0.00  0.00    +0.000 C 
BRANCH  13  14
ATOM     14  C   UNL     1       4.110   4.574  18.134  0.00  0.00    +0.000 C 
BRANCH  14  15
ATOM     15  N   UNL     1       5.531   4.604  17.723  0.00  0.00    +0.000 NA
BRANCH  15  17
ATOM     16  C   UNL     1       6.025   3.948  15.324  0.00  0.00    +0.000 C 
ATOM     17  C   UNL     1       5.599   5.031  16.309  0.00  0.00    +0.000 C 
ENDBRANCH  15  17
BRANCH  15  18
ATOM     18  C   UNL     1       6.400   5.375  18.623  0.00  0.00    +0.000 C 
ATOM     19  C   UNL     1       7.407   6.305  17.955  0.00  0.00    +0.000 C 
ENDBRANCH  15  18
ENDBRANCH  14  15
ENDBRANCH  13  14
ENDBRANCH  12  13
ENDBRANCH   1  12
TORSDOF 6
ENDMDL
