MODEL 1
REMARK VINA RESULT:      -7.6      0.000      0.000
REMARK  Name = 
REMARK  5 active torsions:
REMARK  status: ('A' for Active; 'I' for Inactive)
REMARK    1  A    between atoms: C_1  and  C_2
REMARK    2  A    between atoms: N_4  and  C_5
REMARK    3  A    between atoms: C_8  and  S_9
REMARK    4  A    between atoms: S_9  and  N_12
REMARK    5  A    between atoms: C_16  and  C_18
REMARK                            x       y       z     vdW  Elec       q    Type
REMARK                         _______ _______ _______ _____ _____    ______ ____
ROOT
ATOM      1  N   UNL     1       0.893  10.371  19.623  0.00  0.00    +0.000 NA
ATOM      2  C   UNL     1      -0.072  10.253  18.499  0.00  0.00    +0.000 C 
ATOM      3  C   UNL     1      -1.464  10.750  18.885  0.00  0.00    +0.000 C 
ATOM      4  N   UNL     1      -1.538  12.031  19.597  0.00  0.00    +0.000 N 
ATOM      5  C   UNL     1      -2.762  12.697  19.878  0.00  0.00    +0.000 C 
ATOM      6  O   UNL     1      -2.793  13.719  20.557  0.00  0.00    +0.000 OA
ATOM      7  C   UNL     1      -0.409  12.367  20.482  0.00  0.00    +0.000 C 
ATOM      8  C   UNL     1       0.959  11.815  20.040  0.00  0.00    +0.000 C 
ENDROOT
BRANCH   5   9
ATOM      9  C   UNL     1      -4.060  12.161  19.361  0.00  0.00    +0.000 A 
ATOM     10  C   UNL     1      -4.200  11.741  18.031  0.00  0.00    +0.000 A 
ATOM     11  C   UNL     1      -5.438  11.352  17.516  0.00  0.00    +0.000 A 
ATOM     12  C   UNL     1      -6.531  11.238  18.365  0.00  0.00    +0.000 A 
ATOM     13  C   UNL     1      -6.377  11.514  19.723  0.00  0.00    +0.000 A 
ATOM     14  C   UNL     1      -5.154  11.989  20.213  0.00  0.00    +0.000 A 
ATOM     15  F   UNL     1      -5.076  12.276  21.520  0.00  0.00    +0.000 F 
ENDBRANCH   5   9
BRANCH   1  16
ATOM     16  S   UNL     1       0.790   9.263  20.920  0.00  0.00    +0.000 S 
ATOM     17  O   UNL     1      -0.613   9.003  21.162  0.00  0.00    +0.000 OA
ATOM     18  O   UNL     1       1.646   9.750  21.978  0.00  0.00    +0.000 OA
BRANCH  16  22
ATOM     19  C   UNL     1       2.684   5.349  19.411  0.00  0.00    +0.000 A 
ATOM     20  C   UNL     1       2.873   6.551  18.720  0.00  0.00    +0.000 A 
ATOM     21  C   UNL     1       2.297   7.749  19.172  0.00  0.00    +0.000 A 
ATOM     22  C   UNL     1       1.514   7.747  20.324  0.00  0.00    +0.000 A 
ATOM     23  C   UNL     1       1.344   6.558  21.044  0.00  0.00    +0.000 A 
ATOM     24  C   UNL     1       1.928   5.370  20.591  0.00  0.00    +0.000 A 
BRANCH  19  28
ATOM     25  C   UNL     1       3.421   1.975  17.864  0.00  0.00    +0.000 C 
ATOM     26  C   UNL     1       2.682   3.285  17.988  0.00  0.00    +0.000 C 
ATOM     27  O   UNL     1       1.713   3.516  17.278  0.00  0.00    +0.000 OA
ATOM     28  N   UNL     1       3.196   4.100  18.984  0.00  0.00    +0.000 N 
ATOM     29  H   UNL     1       4.005   3.750  19.486  0.00  0.00    +0.000 HD
ENDBRANCH  19  28
ENDBRANCH  16  22
ENDBRANCH   1  16
TORSDOF 4
ENDMDL
MODEL 2
REMARK VINA RESULT:      -7.6      5.519      9.613
REMARK  Name = 
REMARK  5 active torsions:
REMARK  status: ('A' for Active; 'I' for Inactive)
REMARK    1  A    between atoms: C_1  and  C_2
REMARK    2  A    between atoms: N_4  and  C_5
REMARK    3  A    between atoms: C_8  and  S_9
REMARK    4  A    between atoms: S_9  and  N_12
REMARK    5  A    between atoms: C_16  and  C_18
REMARK                            x       y       z     vdW  Elec       q    Type
REMARK                         _______ _______ _______ _____ _____    ______ ____
ROOT
ATOM      1  N   UNL     1       2.618   1.838  19.789  0.00  0.00    +0.000 NA
ATOM      2  C   UNL     1       3.424   1.561  18.572  0.00  0.00    +0.000 C 
ATOM      3  C   UNL     1       4.136   2.812  18.060  0.00  0.00    +0.000 C 
ATOM      4  N   UNL     1       4.831   3.635  19.056  0.00  0.00    +0.000 N 
ATOM      5  C   UNL     1       5.668   4.732  18.714  0.00  0.00    +0.000 C 
ATOM      6  O   UNL     1       6.158   5.456  19.576  0.00  0.00    +0.000 OA
ATOM      7  C   UNL     1       4.256   3.668  20.412  0.00  0.00    +0.000 C 
ATOM      8  C   UNL     1       3.536   2.379  20.851  0.00  0.00    +0.000 C 
ENDROOT
BRANCH   5   9
ATOM      9  C   UNL     1       5.967   5.048  17.282  0.00  0.00    +0.000 A 
ATOM     10  C   UNL     1       5.077   5.792  16.496  0.00  0.00    +0.000 A 
ATOM     11  C   UNL     1       5.297   5.987  15.132  0.00  0.00    +0.000 A 
ATOM     12  C   UNL     1       6.489   5.562  14.559  0.00  0.00    +0.000 A 
ATOM     13  C   UNL     1       7.452   4.945  15.357  0.00  0.00    +0.000 A 
ATOM     14  C   UNL     1       7.184   4.675  16.706  0.00  0.00    +0.000 A 
ATOM     15  F   UNL     1       8.131   4.043  17.414  0.00  0.00    +0.000 F 
ENDBRANCH   5   9
BRANCH   1  16
ATOM     16  S   UNL     1       1.143   2.686  19.628  0.00  0.00    +0.000 S 
ATOM     17  O   UNL     1       0.503   2.698  20.926  0.00  0.00    +0.000 OA
ATOM     18  O   UNL     1       0.459   2.156  18.471  0.00  0.00    +0.000 OA
BRANCH  16  22
ATOM     19  C   UNL     1       2.253   7.042  18.642  0.00  0.00    +0.000 A 
ATOM     20  C   UNL     1       2.073   6.099  17.624  0.00  0.00    +0.000 A 
ATOM     21  C   UNL     1       1.737   4.768  17.916  0.00  0.00    +0.000 A 
ATOM     22  C   UNL     1       1.587   4.369  19.243  0.00  0.00    +0.000 A 
ATOM     23  C   UNL     1       1.732   5.310  20.269  0.00  0.00    +0.000 A 
ATOM     24  C   UNL     1       2.059   6.636  19.970  0.00  0.00    +0.000 A 
BRANCH  19  28
ATOM     25  C   UNL     1       2.567  10.727  17.837  0.00  0.00    +0.000 C 
ATOM     26  C   UNL     1       1.808   9.452  18.111  0.00  0.00    +0.000 C 
ATOM     27  O   UNL     1       0.589   9.426  18.009  0.00  0.00    +0.000 OA
ATOM     28  N   UNL     1       2.639   8.386  18.419  0.00  0.00    +0.000 N 
ATOM     29  H   UNL     1       3.634   8.581  18.453  0.00  0.00    +0.000 HD
ENDBRANCH  19  28
ENDBRANCH  16  22
ENDBRANCH   1  16
TORSDOF 4
ENDMDL
MODEL 3
REMARK VINA RESULT:      -7.5      1.746      2.012
REMARK  Name = 
REMARK  5 active torsions:
REMARK  status: ('A' for Active; 'I' for Inactive)
REMARK    1  A    between atoms: C_1  and  C_2
REMARK    2  A    between atoms: N_4  and  C_5
REMARK    3  A    between atoms: C_8  and  S_9
REMARK    4  A    between atoms: S_9  and  N_12
REMARK    5  A    between atoms: C_16  and  C_18
REMARK                            x       y       z     vdW  Elec       q    Type
REMARK                         _______ _______ _______ _____ _____    ______ ____
ROOT
ATOM      1  N   UNL     1       0.024  11.462  19.223  0.00  0.00    +0.000 NA
ATOM      2  C   UNL     1      -1.364  11.385  18.698  0.00  0.00    +0.000 C 
ATOM      3  C   UNL     1      -2.365  12.070  19.626  0.00  0.00    +0.000 C 
ATOM      4  N   UNL     1      -1.998  13.395  20.139  0.00  0.00    +0.000 N 
ATOM      5  C   UNL     1      -2.890  14.219  20.877  0.00  0.00    +0.000 C 
ATOM      6  O   UNL     1      -2.520  15.281  21.370  0.00  0.00    +0.000 OA
ATOM      7  C   UNL     1      -0.563  13.652  20.352  0.00  0.00    +0.000 C 
ATOM      8  C   UNL     1       0.387  12.912  19.392  0.00  0.00    +0.000 C 
ENDROOT
BRANCH   5   9
ATOM      9  C   UNL     1      -4.313  13.808  21.088  0.00  0.00    +0.000 A 
ATOM     10  C   UNL     1      -5.316  14.149  20.170  0.00  0.00    +0.000 A 
ATOM     11  C   UNL     1      -6.660  13.870  20.422  0.00  0.00    +0.000 A 
ATOM     12  C   UNL     1      -7.010  13.113  21.534  0.00  0.00    +0.000 A 
ATOM     13  C   UNL     1      -6.010  12.642  22.385  0.00  0.00    +0.000 A 
ATOM     14  C   UNL     1      -4.673  13.003  22.172  0.00  0.00    +0.000 A 
ATOM     15  F   UNL     1      -3.761  12.554  23.045  0.00  0.00    +0.000 F 
ENDBRANCH   5   9
BRANCH   1  16
ATOM     16  S   UNL     1       0.467  10.463  20.537  0.00  0.00    +0.000 S 
ATOM     17  O   UNL     1      -0.752  10.008  21.170  0.00  0.00    +0.000 OA
ATOM     18  O   UNL     1       1.478  11.164  21.297  0.00  0.00    +0.000 OA
BRANCH  16  22
ATOM     19  C   UNL     1       2.535   6.783  18.703  0.00  0.00    +0.000 A 
ATOM     20  C   UNL     1       2.266   7.916  17.927  0.00  0.00    +0.000 A 
ATOM     21  C   UNL     1       1.633   9.042  18.478  0.00  0.00    +0.000 A 
ATOM     22  C   UNL     1       1.256   9.034  19.819  0.00  0.00    +0.000 A 
ATOM     23  C   UNL     1       1.549   7.920  20.615  0.00  0.00    +0.000 A 
ATOM     24  C   UNL     1       2.187   6.806  20.061  0.00  0.00    +0.000 A 
BRANCH  19  28
ATOM     25  C   UNL     1       3.405   3.375  17.308  0.00  0.00    +0.000 C 
ATOM     26  C   UNL     1       2.470   4.509  17.651  0.00  0.00    +0.000 C 
ATOM     27  O   UNL     1       1.265   4.389  17.475  0.00  0.00    +0.000 OA
ATOM     28  N   UNL     1       3.126   5.599  18.199  0.00  0.00    +0.000 N 
ATOM     29  H   UNL     1       4.134   5.529  18.282  0.00  0.00    +0.000 HD
ENDBRANCH  19  28
ENDBRANCH  16  22
ENDBRANCH   1  16
TORSDOF 4
ENDMDL
MODEL 4
REMARK VINA RESULT:      -7.5      1.509      1.905
REMARK  Name = 
REMARK  5 active torsions:
REMARK  status: ('A' for Active; 'I' for Inactive)
REMARK    1  A    between atoms: C_1  and  C_2
REMARK    2  A    between atoms: N_4  and  C_5
REMARK    3  A    between atoms: C_8  and  S_9
REMARK    4  A    between atoms: S_9  and  N_12
REMARK    5  A    between atoms: C_16  and  C_18
REMARK                            x       y       z     vdW  Elec       q    Type
REMARK                         _______ _______ _______ _____ _____    ______ ____
ROOT
ATOM      1  N   UNL     1      -0.081  11.506  19.033  0.00  0.00    +0.000 NA
ATOM      2  C   UNL     1      -1.301  11.138  18.269  0.00  0.00    +0.000 C 
ATOM      3  C   UNL     1      -2.579  11.523  19.011  0.00  0.00    +0.000 C 
ATOM      4  N   UNL     1      -2.630  12.868  19.594  0.00  0.00    +0.000 N 
ATOM      5  C   UNL     1      -3.803  13.425  20.170  0.00  0.00    +0.000 C 
ATOM      6  O   UNL     1      -3.785  14.516  20.732  0.00  0.00    +0.000 OA
ATOM      7  C   UNL     1      -1.354  13.439  20.062  0.00  0.00    +0.000 C 
ATOM      8  C   UNL     1      -0.107  12.990  19.279  0.00  0.00    +0.000 C 
ENDROOT
BRANCH   5   9
ATOM      9  C   UNL     1      -5.103  12.686  20.120  0.00  0.00    +0.000 A 
ATOM     10  C   UNL     1      -5.781  12.318  21.290  0.00  0.00    +0.000 A 
ATOM     11  C   UNL     1      -6.931  11.528  21.249  0.00  0.00    +0.000 A 
ATOM     12  C   UNL     1      -7.506  11.213  20.025  0.00  0.00    +0.000 A 
ATOM     13  C   UNL     1      -6.925  11.691  18.850  0.00  0.00    +0.000 A 
ATOM     14  C   UNL     1      -5.723  12.408  18.898  0.00  0.00    +0.000 A 
ATOM     15  F   UNL     1      -5.189  12.807  17.735  0.00  0.00    +0.000 F 
ENDBRANCH   5   9
BRANCH   1  16
ATOM     16  S   UNL     1       0.355  10.570  20.395  0.00  0.00    +0.000 S 
ATOM     17  O   UNL     1      -0.868  10.108  21.017  0.00  0.00    +0.000 OA
ATOM     18  O   UNL     1       1.330  11.325  21.149  0.00  0.00    +0.000 OA
BRANCH  16  22
ATOM     19  C   UNL     1       2.555   6.876  18.754  0.00  0.00    +0.000 A 
ATOM     20  C   UNL     1       2.322   7.991  17.942  0.00  0.00    +0.000 A 
ATOM     21  C   UNL     1       1.649   9.122  18.434  0.00  0.00    +0.000 A 
ATOM     22  C   UNL     1       1.195   9.135  19.751  0.00  0.00    +0.000 A 
ATOM     23  C   UNL     1       1.451   8.039  20.584  0.00  0.00    +0.000 A 
ATOM     24  C   UNL     1       2.129   6.920  20.088  0.00  0.00    +0.000 A 
BRANCH  19  28
ATOM     25  C   UNL     1       3.532   3.453  17.467  0.00  0.00    +0.000 C 
ATOM     26  C   UNL     1       2.571   4.587  17.729  0.00  0.00    +0.000 C 
ATOM     27  O   UNL     1       1.382   4.460  17.472  0.00  0.00    +0.000 OA
ATOM     28  N   UNL     1       3.184   5.688  18.307  0.00  0.00    +0.000 N 
ATOM     29  H   UNL     1       4.184   5.623  18.460  0.00  0.00    +0.000 HD
ENDBRANCH  19  28
ENDBRANCH  16  22
ENDBRANCH   1  16
TORSDOF 4
ENDMDL
MODEL 5
REMARK VINA RESULT:      -7.4      2.645      3.187
REMARK  Name = 
REMARK  5 active torsions:
REMARK  status: ('A' for Active; 'I' for Inactive)
REMARK    1  A    between atoms: C_1  and  C_2
REMARK    2  A    between atoms: N_4  and  C_5
REMARK    3  A    between atoms: C_8  and  S_9
REMARK    4  A    between atoms: S_9  and  N_12
REMARK    5  A    between atoms: C_16  and  C_18
REMARK                            x       y       z     vdW  Elec       q    Type
REMARK                         _______ _______ _______ _____ _____    ______ ____
ROOT
ATOM      1  N   UNL     1       0.211  10.931  20.035  0.00  0.00    +0.000 NA
ATOM      2  C   UNL     1      -1.224  11.226  19.788  0.00  0.00    +0.000 C 
ATOM      3  C   UNL     1      -1.903  11.836  21.013  0.00  0.00    +0.000 C 
ATOM      4  N   UNL     1      -1.186  12.915  21.702  0.00  0.00    +0.000 N 
ATOM      5  C   UNL     1      -1.757  13.685  22.751  0.00  0.00    +0.000 C 
ATOM      6  O   UNL     1      -1.097  14.516  23.367  0.00  0.00    +0.000 OA
ATOM      7  C   UNL     1       0.286  12.859  21.677  0.00  0.00    +0.000 C 
ATOM      8  C   UNL     1       0.898  12.213  20.421  0.00  0.00    +0.000 C 
ENDROOT
BRANCH   5   9
ATOM      9  C   UNL     1      -3.186  13.493  23.149  0.00  0.00    +0.000 A 
ATOM     10  C   UNL     1      -3.541  12.683  24.237  0.00  0.00    +0.000 A 
ATOM     11  C   UNL     1      -4.876  12.408  24.537  0.00  0.00    +0.000 A 
ATOM     12  C   UNL     1      -5.886  13.058  23.840  0.00  0.00    +0.000 A 
ATOM     13  C   UNL     1      -5.552  13.979  22.847  0.00  0.00    +0.000 A 
ATOM     14  C   UNL     1      -4.211  14.180  22.493  0.00  0.00    +0.000 A 
ATOM     15  F   UNL     1      -3.952  15.047  21.504  0.00  0.00    +0.000 F 
ENDBRANCH   5   9
BRANCH   1  16
ATOM     16  S   UNL     1       0.622   9.587  21.007  0.00  0.00    +0.000 S 
ATOM     17  O   UNL     1      -0.611   8.936  21.396  0.00  0.00    +0.000 OA
ATOM     18  O   UNL     1       1.565  10.041  22.004  0.00  0.00    +0.000 OA
BRANCH  16  22
ATOM     19  C   UNL     1       2.920   6.690  18.267  0.00  0.00    +0.000 A 
ATOM     20  C   UNL     1       2.539   7.958  17.813  0.00  0.00    +0.000 A 
ATOM     21  C   UNL     1       1.835   8.847  18.641  0.00  0.00    +0.000 A 
ATOM     22  C   UNL     1       1.500   8.462  19.938  0.00  0.00    +0.000 A 
ATOM     23  C   UNL     1       1.904   7.210  20.416  0.00  0.00    +0.000 A 
ATOM     24  C   UNL     1       2.612   6.334  19.587  0.00  0.00    +0.000 A 
BRANCH  19  28
ATOM     25  C   UNL     1       5.306   4.559  16.246  0.00  0.00    +0.000 C 
ATOM     26  C   UNL     1       4.950   5.648  17.227  0.00  0.00    +0.000 C 
ATOM     27  O   UNL     1       5.822   6.373  17.688  0.00  0.00    +0.000 OA
ATOM     28  N   UNL     1       3.588   5.730  17.469  0.00  0.00    +0.000 N 
ATOM     29  H   UNL     1       3.001   5.051  16.996  0.00  0.00    +0.000 HD
ENDBRANCH  19  28
ENDBRANCH  16  22
ENDBRANCH   1  16
TORSDOF 4
ENDMDL
MODEL 6
REMARK VINA RESULT:      -7.4      3.893      5.957
REMARK  Name = 
REMARK  5 active torsions:
REMARK  status: ('A' for Active; 'I' for Inactive)
REMARK    1  A    between atoms: C_1  and  C_2
REMARK    2  A    between atoms: N_4  and  C_5
REMARK    3  A    between atoms: C_8  and  S_9
REMARK    4  A    between atoms: S_9  and  N_12
REMARK    5  A    between atoms: C_16  and  C_18
REMARK                            x       y       z     vdW  Elec       q    Type
REMARK                         _______ _______ _______ _____ _____    ______ ____
ROOT
ATOM      1  N   UNL     1       0.292  11.373  19.947  0.00  0.00    +0.000 NA
ATOM      2  C   UNL     1       1.256  12.066  20.839  0.00  0.00    +0.000 C 
ATOM      3  C   UNL     1       1.812  13.339  20.203  0.00  0.00    +0.000 C 
ATOM      4  N   UNL     1       0.847  14.238  19.562  0.00  0.00    +0.000 N 
ATOM      5  C   UNL     1       1.188  15.528  19.073  0.00  0.00    +0.000 C 
ATOM      6  O   UNL     1       0.377  16.215  18.459  0.00  0.00    +0.000 OA
ATOM      7  C   UNL     1      -0.339  13.614  18.949  0.00  0.00    +0.000 C 
ATOM      8  C   UNL     1      -0.830  12.324  19.632  0.00  0.00    +0.000 C 
ENDROOT
BRANCH   5   9
ATOM      9  C   UNL     1       2.561  16.085  19.281  0.00  0.00    +0.000 A 
ATOM     10  C   UNL     1       2.906  16.760  20.460  0.00  0.00    +0.000 A 
ATOM     11  C   UNL     1       4.146  17.382  20.608  0.00  0.00    +0.000 A 
ATOM     12  C   UNL     1       5.121  17.215  19.633  0.00  0.00    +0.000 A 
ATOM     13  C   UNL     1       4.846  16.427  18.516  0.00  0.00    +0.000 A 
ATOM     14  C   UNL     1       3.569  15.881  18.334  0.00  0.00    +0.000 A 
ATOM     15  F   UNL     1       3.350  15.166  17.221  0.00  0.00    +0.000 F 
ENDBRANCH   5   9
BRANCH   1  16
ATOM     16  S   UNL     1       0.888  10.510  18.597  0.00  0.00    +0.000 S 
ATOM     17  O   UNL     1       2.080  11.190  18.137  0.00  0.00    +0.000 OA
ATOM     18  O   UNL     1      -0.223  10.277  17.703  0.00  0.00    +0.000 OA
BRANCH  16  22
ATOM     19  C   UNL     1       2.222   6.419  20.230  0.00  0.00    +0.000 A 
ATOM     20  C   UNL     1       2.573   6.825  18.938  0.00  0.00    +0.000 A 
ATOM     21  C   UNL     1       2.168   8.071  18.431  0.00  0.00    +0.000 A 
ATOM     22  C   UNL     1       1.395   8.919  19.221  0.00  0.00    +0.000 A 
ATOM     23  C   UNL     1       1.064   8.539  20.527  0.00  0.00    +0.000 A 
ATOM     24  C   UNL     1       1.478   7.300  21.028  0.00  0.00    +0.000 A 
BRANCH  19  28
ATOM     25  C   UNL     1       2.402   2.877  21.550  0.00  0.00    +0.000 C 
ATOM     26  C   UNL     1       1.777   4.014  20.779  0.00  0.00    +0.000 C 
ATOM     27  O   UNL     1       0.674   3.878  20.266  0.00  0.00    +0.000 OA
ATOM     28  N   UNL     1       2.556   5.159  20.784  0.00  0.00    +0.000 N 
ATOM     29  H   UNL     1       3.446   5.102  21.266  0.00  0.00    +0.000 HD
ENDBRANCH  19  28
ENDBRANCH  16  22
ENDBRANCH   1  16
TORSDOF 4
ENDMDL
MODEL 7
REMARK VINA RESULT:      -7.3      1.950      2.588
REMARK  Name = 
REMARK  5 active torsions:
REMARK  status: ('A' for Active; 'I' for Inactive)
REMARK    1  A    between atoms: C_1  and  C_2
REMARK    2  A    between atoms: N_4  and  C_5
REMARK    3  A    between atoms: C_8  and  S_9
REMARK    4  A    between atoms: S_9  and  N_12
REMARK    5  A    between atoms: C_16  and  C_18
REMARK                            x       y       z     vdW  Elec       q    Type
REMARK                         _______ _______ _______ _____ _____    ______ ____
ROOT
ATOM      1  N   UNL     1      -0.371  11.560  19.246  0.00  0.00    +0.000 NA
ATOM      2  C   UNL     1      -1.827  11.405  18.993  0.00  0.00    +0.000 C 
ATOM      3  C   UNL     1      -2.669  12.139  20.035  0.00  0.00    +0.000 C 
ATOM      4  N   UNL     1      -2.268  13.510  20.370  0.00  0.00    +0.000 N 
ATOM      5  C   UNL     1      -3.042  14.370  21.194  0.00  0.00    +0.000 C 
ATOM      6  O   UNL     1      -2.630  15.477  21.529  0.00  0.00    +0.000 OA
ATOM      7  C   UNL     1      -0.829  13.819  20.294  0.00  0.00    +0.000 C 
ATOM      8  C   UNL     1      -0.041  13.027  19.235  0.00  0.00    +0.000 C 
ENDROOT
BRANCH   5   9
ATOM      9  C   UNL     1      -4.386  13.943  21.695  0.00  0.00    +0.000 A 
ATOM     10  C   UNL     1      -4.570  13.503  23.013  0.00  0.00    +0.000 A 
ATOM     11  C   UNL     1      -5.795  12.995  23.447  0.00  0.00    +0.000 A 
ATOM     12  C   UNL     1      -6.901  13.052  22.609  0.00  0.00    +0.000 A 
ATOM     13  C   UNL     1      -6.771  13.619  21.341  0.00  0.00    +0.000 A 
ATOM     14  C   UNL     1      -5.518  14.045  20.882  0.00  0.00    +0.000 A 
ATOM     15  F   UNL     1      -5.447  14.544  19.640  0.00  0.00    +0.000 F 
ENDBRANCH   5   9
BRANCH   1  16
ATOM     16  S   UNL     1       0.342  10.683  20.528  0.00  0.00    +0.000 S 
ATOM     17  O   UNL     1      -0.730  10.138  21.333  0.00  0.00    +0.000 OA
ATOM     18  O   UNL     1       1.358  11.524  21.119  0.00  0.00    +0.000 OA
BRANCH  16  22
ATOM     19  C   UNL     1       2.550   7.142  18.586  0.00  0.00    +0.000 A 
ATOM     20  C   UNL     1       2.220   8.279  17.840  0.00  0.00    +0.000 A 
ATOM     21  C   UNL     1       1.544   9.362  18.423  0.00  0.00    +0.000 A 
ATOM     22  C   UNL     1       1.185   9.307  19.769  0.00  0.00    +0.000 A 
ATOM     23  C   UNL     1       1.538   8.191  20.535  0.00  0.00    +0.000 A 
ATOM     24  C   UNL     1       2.219   7.119  19.948  0.00  0.00    +0.000 A 
BRANCH  19  28
ATOM     25  C   UNL     1       3.590   3.750  17.269  0.00  0.00    +0.000 C 
ATOM     26  C   UNL     1       2.593   4.787  17.726  0.00  0.00    +0.000 C 
ATOM     27  O   UNL     1       1.407   4.504  17.819  0.00  0.00    +0.000 OA
ATOM     28  N   UNL     1       3.187   5.997  18.048  0.00  0.00    +0.000 N 
ATOM     29  H   UNL     1       4.191   6.060  17.919  0.00  0.00    +0.000 HD
ENDBRANCH  19  28
ENDBRANCH  16  22
ENDBRANCH   1  16
TORSDOF 4
ENDMDL
MODEL 8
REMARK VINA RESULT:      -7.3      2.623      2.997
REMARK  Name = 
REMARK  5 active torsions:
REMARK  status: ('A' for Active; 'I' for Inactive)
REMARK    1  A    between atoms: C_1  and  C_2
REMARK    2  A    between atoms: N_4  and  C_5
REMARK    3  A    between atoms: C_8  and  S_9
REMARK    4  A    between atoms: S_9  and  N_12
REMARK    5  A    between atoms: C_16  and  C_18
REMARK                            x       y       z     vdW  Elec       q    Type
REMARK                         _______ _______ _______ _____ _____    ______ ____
ROOT
ATOM      1  N   UNL     1       0.310  11.056  19.894  0.00  0.00    +0.000 NA
ATOM      2  C   UNL     1      -1.082  11.427  19.534  0.00  0.00    +0.000 C 
ATOM      3  C   UNL     1      -1.821  12.080  20.700  0.00  0.00    +0.000 C 
ATOM      4  N   UNL     1      -1.103  13.123  21.442  0.00  0.00    +0.000 N 
ATOM      5  C   UNL     1      -1.712  13.928  22.442  0.00  0.00    +0.000 C 
ATOM      6  O   UNL     1      -1.058  14.726  23.107  0.00  0.00    +0.000 OA
ATOM      7  C   UNL     1       0.361  12.985  21.534  0.00  0.00    +0.000 C 
ATOM      8  C   UNL     1       1.034  12.300  20.331  0.00  0.00    +0.000 C 
ENDROOT
BRANCH   5   9
ATOM      9  C   UNL     1      -3.177  13.816  22.726  0.00  0.00    +0.000 A 
ATOM     10  C   UNL     1      -4.091  14.759  22.235  0.00  0.00    +0.000 A 
ATOM     11  C   UNL     1      -5.439  14.723  22.595  0.00  0.00    +0.000 A 
ATOM     12  C   UNL     1      -5.925  13.655  23.338  0.00  0.00    +0.000 A 
ATOM     13  C   UNL     1      -5.057  12.631  23.715  0.00  0.00    +0.000 A 
ATOM     14  C   UNL     1      -3.690  12.721  23.426  0.00  0.00    +0.000 A 
ATOM     15  F   UNL     1      -2.897  11.726  23.848  0.00  0.00    +0.000 F 
ENDBRANCH   5   9
BRANCH   1  16
ATOM     16  S   UNL     1       0.569   9.696  20.898  0.00  0.00    +0.000 S 
ATOM     17  O   UNL     1      -0.725   9.120  21.194  0.00  0.00    +0.000 OA
ATOM     18  O   UNL     1       1.459  10.103  21.962  0.00  0.00    +0.000 OA
BRANCH  16  22
ATOM     19  C   UNL     1       2.896   6.656  18.343  0.00  0.00    +0.000 A 
ATOM     20  C   UNL     1       2.544   7.908  17.826  0.00  0.00    +0.000 A 
ATOM     21  C   UNL     1       1.832   8.841  18.598  0.00  0.00    +0.000 A 
ATOM     22  C   UNL     1       1.458   8.516  19.900  0.00  0.00    +0.000 A 
ATOM     23  C   UNL     1       1.833   7.281  20.441  0.00  0.00    +0.000 A 
ATOM     24  C   UNL     1       2.549   6.361  19.669  0.00  0.00    +0.000 A 
BRANCH  19  28
ATOM     25  C   UNL     1       5.307   4.403  16.491  0.00  0.00    +0.000 C 
ATOM     26  C   UNL     1       4.939   5.532  17.422  0.00  0.00    +0.000 C 
ATOM     27  O   UNL     1       5.810   6.250  17.895  0.00  0.00    +0.000 OA
ATOM     28  N   UNL     1       3.571   5.654  17.604  0.00  0.00    +0.000 N 
ATOM     29  H   UNL     1       2.986   4.975  17.129  0.00  0.00    +0.000 HD
ENDBRANCH  19  28
ENDBRANCH  16  22
ENDBRANCH   1  16
TORSDOF 4
ENDMDL
MODEL 9
REMARK VINA RESULT:      -7.2      3.697      5.678
REMARK  Name = 
REMARK  5 active torsions:
REMARK  status: ('A' for Active; 'I' for Inactive)
REMARK    1  A    between atoms: C_1  and  C_2
REMARK    2  A    between atoms: N_4  and  C_5
REMARK    3  A    between atoms: C_8  and  S_9
REMARK    4  A    between atoms: S_9  and  N_12
REMARK    5  A    between atoms: C_16  and  C_18
REMARK                            x       y       z     vdW  Elec       q    Type
REMARK                         _______ _______ _______ _____ _____    ______ ____
ROOT
ATOM      1  N   UNL     1       0.233  11.297  19.954  0.00  0.00    +0.000 NA
ATOM      2  C   UNL     1       1.169  12.042  20.835  0.00  0.00    +0.000 C 
ATOM      3  C   UNL     1       1.656  13.337  20.188  0.00  0.00    +0.000 C 
ATOM      4  N   UNL     1       0.641  14.185  19.551  0.00  0.00    +0.000 N 
ATOM      5  C   UNL     1       0.914  15.487  19.052  0.00  0.00    +0.000 C 
ATOM      6  O   UNL     1       0.064  16.129  18.442  0.00  0.00    +0.000 OA
ATOM      7  C   UNL     1      -0.517  13.499  18.951  0.00  0.00    +0.000 C 
ATOM      8  C   UNL     1      -0.938  12.190  19.645  0.00  0.00    +0.000 C 
ENDROOT
BRANCH   5   9
ATOM      9  C   UNL     1       2.259  16.113  19.246  0.00  0.00    +0.000 A 
ATOM     10  C   UNL     1       3.260  16.013  18.269  0.00  0.00    +0.000 A 
ATOM     11  C   UNL     1       4.550  16.493  18.496  0.00  0.00    +0.000 A 
ATOM     12  C   UNL     1       4.824  17.214  19.652  0.00  0.00    +0.000 A 
ATOM     13  C   UNL     1       3.802  17.449  20.571  0.00  0.00    +0.000 A 
ATOM     14  C   UNL     1       2.534  16.886  20.377  0.00  0.00    +0.000 A 
ATOM     15  F   UNL     1       1.602  17.112  21.315  0.00  0.00    +0.000 F 
ENDBRANCH   5   9
BRANCH   1  16
ATOM     16  S   UNL     1       0.860  10.458  18.604  0.00  0.00    +0.000 S 
ATOM     17  O   UNL     1       2.045  11.163  18.163  0.00  0.00    +0.000 OA
ATOM     18  O   UNL     1      -0.237  10.214  17.694  0.00  0.00    +0.000 OA
BRANCH  16  22
ATOM     19  C   UNL     1       2.247   6.376  20.213  0.00  0.00    +0.000 A 
ATOM     20  C   UNL     1       2.593   6.794  18.924  0.00  0.00    +0.000 A 
ATOM     21  C   UNL     1       2.172   8.037  18.424  0.00  0.00    +0.000 A 
ATOM     22  C   UNL     1       1.387   8.870  19.218  0.00  0.00    +0.000 A 
ATOM     23  C   UNL     1       1.062   8.478  20.522  0.00  0.00    +0.000 A 
ATOM     24  C   UNL     1       1.492   7.242  21.016  0.00  0.00    +0.000 A 
BRANCH  19  28
ATOM     25  C   UNL     1       2.466   2.838  21.540  0.00  0.00    +0.000 C 
ATOM     26  C   UNL     1       1.816   3.974  20.788  0.00  0.00    +0.000 C 
ATOM     27  O   UNL     1       0.695   3.839  20.316  0.00  0.00    +0.000 OA
ATOM     28  N   UNL     1       2.598   5.117  20.759  0.00  0.00    +0.000 N 
ATOM     29  H   UNL     1       3.506   5.059  21.209  0.00  0.00    +0.000 HD
ENDBRANCH  19  28
ENDBRANCH  16  22
ENDBRANCH   1  16
TORSDOF 4
ENDMDL
