MODEL 1
REMARK VINA RESULT:      -7.9      0.000      0.000
REMARK  Name = 
REMARK  7 active torsions:
REMARK  status: ('A' for Active; 'I' for Inactive)
REMARK    1  A    between atoms: C_1  and  C_2
REMARK    2  A    between atoms: C_2  and  C_3
REMARK    3  A    between atoms: C_2  and  C_4
REMARK    4  A    between atoms: C_4  and  C_5
REMARK    5  A    between atoms: C_5  and  N_6
REMARK    6  A    between atoms: C_15  and  C_16
REMARK    7  A    between atoms: N_20  and  C_21
REMARK                            x       y       z     vdW  Elec       q    Type
REMARK                         _______ _______ _______ _____ _____    ______ ____
ROOT
ATOM      1  N   UNL     1       3.240   3.855  17.365  0.00  0.00    +0.000 N 
ATOM      2  C   UNL     1       1.915   3.740  17.756  0.00  0.00    +0.000 C 
ATOM      3  O   UNL     1       0.909   3.931  17.102  0.00  0.00    +0.000 OA
ATOM      4  C   UNL     1       1.927   3.291  19.149  0.00  0.00    +0.000 A 
ATOM      5  C   UNL     1       0.870   3.228  20.034  0.00  0.00    +0.000 A 
ATOM      6  C   UNL     1       1.158   2.856  21.346  0.00  0.00    +0.000 A 
ATOM      7  C   UNL     1       2.468   2.500  21.717  0.00  0.00    +0.000 A 
ATOM      8  C   UNL     1       3.520   2.551  20.793  0.00  0.00    +0.000 A 
ATOM      9  C   UNL     1       3.242   3.000  19.512  0.00  0.00    +0.000 A 
ATOM     10  C   UNL     1       4.165   3.299  18.359  0.00  0.00    +0.000 C 
ENDROOT
BRANCH  10  11
ATOM     11  C   UNL     1       5.253   4.265  18.706  0.00  0.00    +0.000 A 
ATOM     12  N   UNL     1       6.551   4.012  18.727  0.00  0.00    +0.000 NA
ATOM     13  N   UNL     1       7.189   5.214  18.816  0.00  0.00    +0.000 NA
ATOM     14  N   UNL     1       6.314   6.212  18.831  0.00  0.00    +0.000 NA
ATOM     15  N   UNL     1       5.097   5.638  18.869  0.00  0.00    +0.000 N 
BRANCH  15  16
ATOM     16  C   UNL     1       3.932   6.434  18.989  0.00  0.00    +0.000 A 
ATOM     17  C   UNL     1       3.100   6.287  20.112  0.00  0.00    +0.000 A 
ATOM     18  C   UNL     1       2.038   7.177  20.311  0.00  0.00    +0.000 A 
ATOM     19  C   UNL     1       1.790   8.181  19.377  0.00  0.00    +0.000 A 
ATOM     20  C   UNL     1       2.582   8.282  18.234  0.00  0.00    +0.000 A 
ATOM     21  C   UNL     1       3.620   7.384  18.017  0.00  0.00    +0.000 A 
ATOM     22  O   UNL     1       2.416   9.247  17.276  0.00  0.00    +0.000 OA
ATOM     23  C   UNL     1       1.651  10.343  17.789  0.00  0.00    +0.000 C 
ATOM     24  C   UNL     1       0.409   9.827  18.498  0.00  0.00    +0.000 C 
ATOM     25  O   UNL     1       0.762   9.048  19.650  0.00  0.00    +0.000 OA
ENDBRANCH  15  16
ENDBRANCH  10  11
BRANCH   1  26
ATOM     26  C   UNL     1       3.622   4.146  15.992  0.00  0.00    +0.000 C 
BRANCH  26  27
ATOM     27  C   UNL     1       5.057   3.693  15.721  0.00  0.00    +0.000 C 
BRANCH  27  29
ATOM     28  C   UNL     1       7.153   4.956  15.244  0.00  0.00    +0.000 C 
ATOM     29  C   UNL     1       5.807   4.513  14.662  0.00  0.00    +0.000 C 
ATOM     30  C   UNL     1       6.035   3.730  13.369  0.00  0.00    +0.000 C 
ENDBRANCH  27  29
ENDBRANCH  26  27
ENDBRANCH   1  26
TORSDOF 5
ENDMDL
MODEL 2
REMARK VINA RESULT:      -7.6      2.369      5.697
REMARK  Name = 
REMARK  7 active torsions:
REMARK  status: ('A' for Active; 'I' for Inactive)
REMARK    1  A    between atoms: C_1  and  C_2
REMARK    2  A    between atoms: C_2  and  C_3
REMARK    3  A    between atoms: C_2  and  C_4
REMARK    4  A    between atoms: C_4  and  C_5
REMARK    5  A    between atoms: C_5  and  N_6
REMARK    6  A    between atoms: C_15  and  C_16
REMARK    7  A    between atoms: N_20  and  C_21
REMARK                            x       y       z     vdW  Elec       q    Type
REMARK                         _______ _______ _______ _____ _____    ______ ____
ROOT
ATOM      1  N   UNL     1       3.043   6.098  19.114  0.00  0.00    +0.000 N 
ATOM      2  C   UNL     1       1.961   5.453  19.691  0.00  0.00    +0.000 C 
ATOM      3  O   UNL     1       1.008   5.934  20.272  0.00  0.00    +0.000 OA
ATOM      4  C   UNL     1       2.144   4.023  19.441  0.00  0.00    +0.000 A 
ATOM      5  C   UNL     1       1.445   2.964  19.987  0.00  0.00    +0.000 A 
ATOM      6  C   UNL     1       1.878   1.680  19.662  0.00  0.00    +0.000 A 
ATOM      7  C   UNL     1       2.943   1.490  18.762  0.00  0.00    +0.000 A 
ATOM      8  C   UNL     1       3.621   2.582  18.204  0.00  0.00    +0.000 A 
ATOM      9  C   UNL     1       3.239   3.856  18.594  0.00  0.00    +0.000 A 
ATOM     10  C   UNL     1       3.855   5.197  18.290  0.00  0.00    +0.000 C 
ENDROOT
BRANCH  10  11
ATOM     11  C   UNL     1       5.306   5.277  18.645  0.00  0.00    +0.000 A 
ATOM     12  N   UNL     1       5.810   5.550  19.838  0.00  0.00    +0.000 NA
ATOM     13  N   UNL     1       7.138   5.249  19.787  0.00  0.00    +0.000 NA
ATOM     14  N   UNL     1       7.469   4.773  18.592  0.00  0.00    +0.000 NA
ATOM     15  N   UNL     1       6.363   4.881  17.832  0.00  0.00    +0.000 N 
BRANCH  15  16
ATOM     16  C   UNL     1       6.404   4.544  16.457  0.00  0.00    +0.000 A 
ATOM     17  C   UNL     1       5.441   3.668  15.925  0.00  0.00    +0.000 A 
ATOM     18  C   UNL     1       5.382   3.457  14.543  0.00  0.00    +0.000 A 
ATOM     19  C   UNL     1       6.300   4.087  13.705  0.00  0.00    +0.000 A 
ATOM     20  C   UNL     1       7.291   4.905  14.245  0.00  0.00    +0.000 A 
ATOM     21  C   UNL     1       7.371   5.097  15.620  0.00  0.00    +0.000 A 
ATOM     22  O   UNL     1       8.221   5.572  13.493  0.00  0.00    +0.000 OA
ATOM     23  C   UNL     1       7.794   5.667  12.129  0.00  0.00    +0.000 C 
ATOM     24  C   UNL     1       7.324   4.309  11.634  0.00  0.00    +0.000 C 
ATOM     25  O   UNL     1       6.164   3.873  12.357  0.00  0.00    +0.000 OA
ENDBRANCH  15  16
ENDBRANCH  10  11
BRANCH   1  26
ATOM     26  C   UNL     1       3.133   7.548  19.039  0.00  0.00    +0.000 C 
BRANCH  26  27
ATOM     27  C   UNL     1       2.263   8.088  17.905  0.00  0.00    +0.000 C 
BRANCH  27  29
ATOM     28  C   UNL     1       1.077   9.245  19.769  0.00  0.00    +0.000 C 
ATOM     29  C   UNL     1       1.398   9.302  18.272  0.00  0.00    +0.000 C 
ATOM     30  C   UNL     1       2.080  10.629  17.940  0.00  0.00    +0.000 C 
ENDBRANCH  27  29
ENDBRANCH  26  27
ENDBRANCH   1  26
TORSDOF 5
ENDMDL
MODEL 3
REMARK VINA RESULT:      -7.6      5.518      9.233
REMARK  Name = 
REMARK  7 active torsions:
REMARK  status: ('A' for Active; 'I' for Inactive)
REMARK    1  A    between atoms: C_1  and  C_2
REMARK    2  A    between atoms: C_2  and  C_3
REMARK    3  A    between atoms: C_2  and  C_4
REMARK    4  A    between atoms: C_4  and  C_5
REMARK    5  A    between atoms: C_5  and  N_6
REMARK    6  A    between atoms: C_15  and  C_16
REMARK    7  A    between atoms: N_20  and  C_21
REMARK                            x       y       z     vdW  Elec       q    Type
REMARK                         _______ _______ _______ _____ _____    ______ ____
ROOT
ATOM      1  N   UNL     1      -2.630  12.241  19.768  0.00  0.00    +0.000 N 
ATOM      2  C   UNL     1      -3.922  12.618  20.098  0.00  0.00    +0.000 C 
ATOM      3  O   UNL     1      -4.861  12.846  19.362  0.00  0.00    +0.000 OA
ATOM      4  C   UNL     1      -3.983  12.665  21.560  0.00  0.00    +0.000 A 
ATOM      5  C   UNL     1      -4.986  13.181  22.356  0.00  0.00    +0.000 A 
ATOM      6  C   UNL     1      -4.763  13.197  23.732  0.00  0.00    +0.000 A 
ATOM      7  C   UNL     1      -3.586  12.647  24.272  0.00  0.00    +0.000 A 
ATOM      8  C   UNL     1      -2.593  12.109  23.443  0.00  0.00    +0.000 A 
ATOM      9  C   UNL     1      -2.784  12.169  22.072  0.00  0.00    +0.000 A 
ATOM     10  C   UNL     1      -1.856  11.815  20.939  0.00  0.00    +0.000 C 
ENDROOT
BRANCH  10  11
ATOM     11  C   UNL     1      -0.535  12.514  21.014  0.00  0.00    +0.000 A 
ATOM     12  N   UNL     1      -0.292  13.673  21.604  0.00  0.00    +0.000 NA
ATOM     13  N   UNL     1       1.063  13.802  21.682  0.00  0.00    +0.000 NA
ATOM     14  N   UNL     1       1.669  12.737  21.171  0.00  0.00    +0.000 NA
ATOM     15  N   UNL     1       0.692  11.969  20.654  0.00  0.00    +0.000 N 
BRANCH  15  16
ATOM     16  C   UNL     1       1.012  10.787  19.941  0.00  0.00    +0.000 A 
ATOM     17  C   UNL     1       1.364  10.866  18.582  0.00  0.00    +0.000 A 
ATOM     18  C   UNL     1       1.831   9.727  17.918  0.00  0.00    +0.000 A 
ATOM     19  C   UNL     1       1.911   8.513  18.596  0.00  0.00    +0.000 A 
ATOM     20  C   UNL     1       1.502   8.428  19.926  0.00  0.00    +0.000 A 
ATOM     21  C   UNL     1       1.012   9.550  20.583  0.00  0.00    +0.000 A 
ATOM     22  O   UNL     1       1.562   7.279  20.669  0.00  0.00    +0.000 OA
ATOM     23  C   UNL     1       2.461   6.337  20.072  0.00  0.00    +0.000 C 
ATOM     24  C   UNL     1       2.168   6.205  18.586  0.00  0.00    +0.000 C 
ATOM     25  O   UNL     1       2.417   7.442  17.903  0.00  0.00    +0.000 OA
ENDBRANCH  15  16
ENDBRANCH  10  11
BRANCH   1  26
ATOM     26  C   UNL     1      -2.232  11.951  18.399  0.00  0.00    +0.000 C 
BRANCH  26  27
ATOM     27  C   UNL     1      -2.328  10.453  18.112  0.00  0.00    +0.000 C 
BRANCH  27  29
ATOM     28  C   UNL     1      -4.285  11.177  16.747  0.00  0.00    +0.000 C 
ATOM     29  C   UNL     1      -3.238  10.074  16.935  0.00  0.00    +0.000 C 
ATOM     30  C   UNL     1      -2.461   9.871  15.635  0.00  0.00    +0.000 C 
ENDBRANCH  27  29
ENDBRANCH  26  27
ENDBRANCH   1  26
TORSDOF 5
ENDMDL
MODEL 4
REMARK VINA RESULT:      -7.5      6.756     10.089
REMARK  Name = 
REMARK  7 active torsions:
REMARK  status: ('A' for Active; 'I' for Inactive)
REMARK    1  A    between atoms: C_1  and  C_2
REMARK    2  A    between atoms: C_2  and  C_3
REMARK    3  A    between atoms: C_2  and  C_4
REMARK    4  A    between atoms: C_4  and  C_5
REMARK    5  A    between atoms: C_5  and  N_6
REMARK    6  A    between atoms: C_15  and  C_16
REMARK    7  A    between atoms: N_20  and  C_21
REMARK                            x       y       z     vdW  Elec       q    Type
REMARK                         _______ _______ _______ _____ _____    ______ ____
ROOT
ATOM      1  N   UNL     1      -0.127  10.940  19.286  0.00  0.00    +0.000 N 
ATOM      2  C   UNL     1      -0.284  10.167  18.147  0.00  0.00    +0.000 C 
ATOM      3  O   UNL     1       0.508   9.406  17.628  0.00  0.00    +0.000 OA
ATOM      4  C   UNL     1      -1.646  10.402  17.665  0.00  0.00    +0.000 A 
ATOM      5  C   UNL     1      -2.202  10.023  16.460  0.00  0.00    +0.000 A 
ATOM      6  C   UNL     1      -3.500  10.456  16.193  0.00  0.00    +0.000 A 
ATOM      7  C   UNL     1      -4.219  11.193  17.152  0.00  0.00    +0.000 A 
ATOM      8  C   UNL     1      -3.639  11.546  18.377  0.00  0.00    +0.000 A 
ATOM      9  C   UNL     1      -2.321  11.183  18.603  0.00  0.00    +0.000 A 
ATOM     10  C   UNL     1      -1.391  11.533  19.736  0.00  0.00    +0.000 C 
ENDROOT
BRANCH  10  11
ATOM     11  C   UNL     1      -1.262  13.006  19.963  0.00  0.00    +0.000 A 
ATOM     12  N   UNL     1      -0.424  13.826  19.350  0.00  0.00    +0.000 NA
ATOM     13  N   UNL     1      -0.824  15.096  19.643  0.00  0.00    +0.000 NA
ATOM     14  N   UNL     1      -1.908  15.084  20.410  0.00  0.00    +0.000 NA
ATOM     15  N   UNL     1      -2.136  13.791  20.708  0.00  0.00    +0.000 N 
BRANCH  15  16
ATOM     16  C   UNL     1      -3.178  13.435  21.599  0.00  0.00    +0.000 A 
ATOM     17  C   UNL     1      -2.866  12.837  22.833  0.00  0.00    +0.000 A 
ATOM     18  C   UNL     1      -3.876  12.628  23.779  0.00  0.00    +0.000 A 
ATOM     19  C   UNL     1      -5.190  12.980  23.479  0.00  0.00    +0.000 A 
ATOM     20  C   UNL     1      -5.503  13.515  22.230  0.00  0.00    +0.000 A 
ATOM     21  C   UNL     1      -4.508  13.699  21.277  0.00  0.00    +0.000 A 
ATOM     22  O   UNL     1      -6.764  13.901  21.861  0.00  0.00    +0.000 OA
ATOM     23  C   UNL     1      -7.594  14.085  23.013  0.00  0.00    +0.000 C 
ATOM     24  C   UNL     1      -7.462  12.892  23.947  0.00  0.00    +0.000 C 
ATOM     25  O   UNL     1      -6.128  12.790  24.463  0.00  0.00    +0.000 OA
ENDBRANCH  15  16
ENDBRANCH  10  11
BRANCH   1  26
ATOM     26  C   UNL     1       1.059  10.856  20.124  0.00  0.00    +0.000 C 
BRANCH  26  27
ATOM     27  C   UNL     1       0.693  10.416  21.541  0.00  0.00    +0.000 C 
BRANCH  27  29
ATOM     28  C   UNL     1      -0.647   8.335  21.843  0.00  0.00    +0.000 C 
ATOM     29  C   UNL     1       0.775   8.904  21.793  0.00  0.00    +0.000 C 
ATOM     30  C   UNL     1       1.585   8.174  20.722  0.00  0.00    +0.000 C 
ENDBRANCH  27  29
ENDBRANCH  26  27
ENDBRANCH   1  26
TORSDOF 5
ENDMDL
MODEL 5
REMARK VINA RESULT:      -7.4      3.957      8.188
REMARK  Name = 
REMARK  7 active torsions:
REMARK  status: ('A' for Active; 'I' for Inactive)
REMARK    1  A    between atoms: C_1  and  C_2
REMARK    2  A    between atoms: C_2  and  C_3
REMARK    3  A    between atoms: C_2  and  C_4
REMARK    4  A    between atoms: C_4  and  C_5
REMARK    5  A    between atoms: C_5  and  N_6
REMARK    6  A    between atoms: C_15  and  C_16
REMARK    7  A    between atoms: N_20  and  C_21
REMARK                            x       y       z     vdW  Elec       q    Type
REMARK                         _______ _______ _______ _____ _____    ______ ____
ROOT
ATOM      1  N   UNL     1       0.809  12.433  19.240  0.00  0.00    +0.000 N 
ATOM      2  C   UNL     1      -0.281  13.054  18.649  0.00  0.00    +0.000 C 
ATOM      3  O   UNL     1      -0.445  14.232  18.402  0.00  0.00    +0.000 OA
ATOM      4  C   UNL     1      -1.237  11.996  18.321  0.00  0.00    +0.000 A 
ATOM      5  C   UNL     1      -2.549  12.128  17.910  0.00  0.00    +0.000 A 
ATOM      6  C   UNL     1      -3.289  10.958  17.754  0.00  0.00    +0.000 A 
ATOM      7  C   UNL     1      -2.689   9.700  17.950  0.00  0.00    +0.000 A 
ATOM      8  C   UNL     1      -1.349   9.593  18.345  0.00  0.00    +0.000 A 
ATOM      9  C   UNL     1      -0.641  10.761  18.578  0.00  0.00    +0.000 A 
ATOM     10  C   UNL     1       0.741  10.972  19.139  0.00  0.00    +0.000 C 
ENDROOT
BRANCH  10  11
ATOM     11  C   UNL     1       0.948  10.314  20.467  0.00  0.00    +0.000 A 
ATOM     12  N   UNL     1       0.595  10.797  21.647  0.00  0.00    +0.000 NA
ATOM     13  N   UNL     1       0.708   9.777  22.544  0.00  0.00    +0.000 NA
ATOM     14  N   UNL     1       1.105   8.661  21.943  0.00  0.00    +0.000 NA
ATOM     15  N   UNL     1       1.361   9.001  20.666  0.00  0.00    +0.000 N 
BRANCH  15  16
ATOM     16  C   UNL     1       1.900   8.048  19.766  0.00  0.00    +0.000 A 
ATOM     17  C   UNL     1       2.275   8.447  18.471  0.00  0.00    +0.000 A 
ATOM     18  C   UNL     1       2.950   7.549  17.636  0.00  0.00    +0.000 A 
ATOM     19  C   UNL     1       3.215   6.255  18.079  0.00  0.00    +0.000 A 
ATOM     20  C   UNL     1       2.784   5.847  19.341  0.00  0.00    +0.000 A 
ATOM     21  C   UNL     1       2.090   6.726  20.164  0.00  0.00    +0.000 A 
ATOM     22  O   UNL     1       3.016   4.600  19.858  0.00  0.00    +0.000 OA
ATOM     23  C   UNL     1       4.080   3.950  19.153  0.00  0.00    +0.000 C 
ATOM     24  C   UNL     1       3.860   4.066  17.653  0.00  0.00    +0.000 C 
ATOM     25  O   UNL     1       3.917   5.436  17.231  0.00  0.00    +0.000 OA
ENDBRANCH  15  16
ENDBRANCH  10  11
BRANCH   1  26
ATOM     26  C   UNL     1       2.027  13.156  19.574  0.00  0.00    +0.000 C 
BRANCH  26  27
ATOM     27  C   UNL     1       2.901  13.346  18.335  0.00  0.00    +0.000 C 
BRANCH  27  29
ATOM     28  C   UNL     1       2.773  15.815  18.003  0.00  0.00    +0.000 C 
ATOM     29  C   UNL     1       3.717  14.647  18.310  0.00  0.00    +0.000 C 
ATOM     30  C   UNL     1       4.448  14.905  19.627  0.00  0.00    +0.000 C 
ENDBRANCH  27  29
ENDBRANCH  26  27
ENDBRANCH   1  26
TORSDOF 5
ENDMDL
MODEL 6
REMARK VINA RESULT:      -7.2      6.770      8.567
REMARK  Name = 
REMARK  7 active torsions:
REMARK  status: ('A' for Active; 'I' for Inactive)
REMARK    1  A    between atoms: C_1  and  C_2
REMARK    2  A    between atoms: C_2  and  C_3
REMARK    3  A    between atoms: C_2  and  C_4
REMARK    4  A    between atoms: C_4  and  C_5
REMARK    5  A    between atoms: C_5  and  N_6
REMARK    6  A    between atoms: C_15  and  C_16
REMARK    7  A    between atoms: N_20  and  C_21
REMARK                            x       y       z     vdW  Elec       q    Type
REMARK                         _______ _______ _______ _____ _____    ______ ____
ROOT
ATOM      1  N   UNL     1      -1.559  11.368  18.682  0.00  0.00    +0.000 N 
ATOM      2  C   UNL     1      -2.265  12.012  19.685  0.00  0.00    +0.000 C 
ATOM      3  O   UNL     1      -3.167  12.820  19.584  0.00  0.00    +0.000 OA
ATOM      4  C   UNL     1      -1.743  11.507  20.956  0.00  0.00    +0.000 A 
ATOM      5  C   UNL     1      -1.979  11.988  22.228  0.00  0.00    +0.000 A 
ATOM      6  C   UNL     1      -1.281  11.390  23.276  0.00  0.00    +0.000 A 
ATOM      7  C   UNL     1      -0.424  10.301  23.034  0.00  0.00    +0.000 A 
ATOM      8  C   UNL     1      -0.218   9.817  21.736  0.00  0.00    +0.000 A 
ATOM      9  C   UNL     1      -0.852  10.467  20.689  0.00  0.00    +0.000 A 
ATOM     10  C   UNL     1      -0.721  10.281  19.199  0.00  0.00    +0.000 C 
ENDROOT
BRANCH  10  11
ATOM     11  C   UNL     1       0.689  10.387  18.711  0.00  0.00    +0.000 A 
ATOM     12  N   UNL     1       1.352   9.473  18.020  0.00  0.00    +0.000 NA
ATOM     13  N   UNL     1       2.481  10.075  17.548  0.00  0.00    +0.000 NA
ATOM     14  N   UNL     1       2.524  11.351  17.912  0.00  0.00    +0.000 NA
ATOM     15  N   UNL     1       1.469  11.539  18.727  0.00  0.00    +0.000 N 
BRANCH  15  16
ATOM     16  C   UNL     1       1.275  12.784  19.372  0.00  0.00    +0.000 A 
ATOM     17  C   UNL     1       1.638  12.934  20.722  0.00  0.00    +0.000 A 
ATOM     18  C   UNL     1       1.595  14.200  21.318  0.00  0.00    +0.000 A 
ATOM     19  C   UNL     1       1.159  15.298  20.580  0.00  0.00    +0.000 A 
ATOM     20  C   UNL     1       0.741  15.132  19.260  0.00  0.00    +0.000 A 
ATOM     21  C   UNL     1       0.756  13.872  18.673  0.00  0.00    +0.000 A 
ATOM     22  O   UNL     1       0.313  16.159  18.462  0.00  0.00    +0.000 OA
ATOM     23  C   UNL     1       0.744  17.420  18.986  0.00  0.00    +0.000 C 
ATOM     24  C   UNL     1       0.434  17.501  20.473  0.00  0.00    +0.000 C 
ATOM     25  O   UNL     1       1.180  16.519  21.206  0.00  0.00    +0.000 OA
ENDBRANCH  15  16
ENDBRANCH  10  11
BRANCH   1  26
ATOM     26  C   UNL     1      -1.901  11.513  17.275  0.00  0.00    +0.000 C 
BRANCH  26  27
ATOM     27  C   UNL     1      -2.216  10.154  16.651  0.00  0.00    +0.000 C 
BRANCH  27  29
ATOM     28  C   UNL     1      -4.447  11.229  16.362  0.00  0.00    +0.000 C 
ATOM     29  C   UNL     1      -3.547  10.082  15.890  0.00  0.00    +0.000 C 
ATOM     30  C   UNL     1      -3.361  10.161  14.375  0.00  0.00    +0.000 C 
ENDBRANCH  27  29
ENDBRANCH  26  27
ENDBRANCH   1  26
TORSDOF 5
ENDMDL
MODEL 7
REMARK VINA RESULT:      -7.2      2.677      4.196
REMARK  Name = 
REMARK  7 active torsions:
REMARK  status: ('A' for Active; 'I' for Inactive)
REMARK    1  A    between atoms: C_1  and  C_2
REMARK    2  A    between atoms: C_2  and  C_3
REMARK    3  A    between atoms: C_2  and  C_4
REMARK    4  A    between atoms: C_4  and  C_5
REMARK    5  A    between atoms: C_5  and  N_6
REMARK    6  A    between atoms: C_15  and  C_16
REMARK    7  A    between atoms: N_20  and  C_21
REMARK                            x       y       z     vdW  Elec       q    Type
REMARK                         _______ _______ _______ _____ _____    ______ ____
ROOT
ATOM      1  N   UNL     1       5.646   5.015  15.631  0.00  0.00    +0.000 N 
ATOM      2  C   UNL     1       6.999   4.831  15.868  0.00  0.00    +0.000 C 
ATOM      3  O   UNL     1       7.879   4.547  15.080  0.00  0.00    +0.000 OA
ATOM      4  C   UNL     1       7.212   5.082  17.294  0.00  0.00    +0.000 A 
ATOM      5  C   UNL     1       8.342   4.830  18.046  0.00  0.00    +0.000 A 
ATOM      6  C   UNL     1       8.262   5.069  19.417  0.00  0.00    +0.000 A 
ATOM      7  C   UNL     1       7.090   5.606  19.982  0.00  0.00    +0.000 A 
ATOM      8  C   UNL     1       5.965   5.874  19.193  0.00  0.00    +0.000 A 
ATOM      9  C   UNL     1       6.022   5.559  17.844  0.00  0.00    +0.000 A 
ATOM     10  C   UNL     1       4.951   5.593  16.785  0.00  0.00    +0.000 C 
ENDROOT
BRANCH  10  11
ATOM     11  C   UNL     1       3.732   4.806  17.150  0.00  0.00    +0.000 A 
ATOM     12  N   UNL     1       3.533   3.517  16.928  0.00  0.00    +0.000 NA
ATOM     13  N   UNL     1       2.439   3.153  17.655  0.00  0.00    +0.000 NA
ATOM     14  N   UNL     1       1.963   4.185  18.342  0.00  0.00    +0.000 NA
ATOM     15  N   UNL     1       2.692   5.251  17.960  0.00  0.00    +0.000 N 
BRANCH  15  16
ATOM     16  C   UNL     1       2.375   6.544  18.440  0.00  0.00    +0.000 A 
ATOM     17  C   UNL     1       2.267   7.617  17.538  0.00  0.00    +0.000 A 
ATOM     18  C   UNL     1       1.802   8.859  17.986  0.00  0.00    +0.000 A 
ATOM     19  C   UNL     1       1.483   9.035  19.330  0.00  0.00    +0.000 A 
ATOM     20  C   UNL     1       1.652   7.985  20.232  0.00  0.00    +0.000 A 
ATOM     21  C   UNL     1       2.138   6.758  19.797  0.00  0.00    +0.000 A 
ATOM     22  O   UNL     1       1.348   8.070  21.565  0.00  0.00    +0.000 OA
ATOM     23  C   UNL     1       0.469   9.173  21.814  0.00  0.00    +0.000 C 
ATOM     24  C   UNL     1       0.993  10.424  21.125  0.00  0.00    +0.000 C 
ATOM     25  O   UNL     1       0.992  10.262  19.700  0.00  0.00    +0.000 OA
ENDBRANCH  15  16
ENDBRANCH  10  11
BRANCH   1  26
ATOM     26  C   UNL     1       5.082   4.987  14.290  0.00  0.00    +0.000 C 
BRANCH  26  27
ATOM     27  C   UNL     1       5.273   3.613  13.649  0.00  0.00    +0.000 C 
BRANCH  27  29
ATOM     28  C   UNL     1       6.578   2.654  11.754  0.00  0.00    +0.000 C 
ATOM     29  C   UNL     1       5.454   3.626  12.125  0.00  0.00    +0.000 C 
ATOM     30  C   UNL     1       4.175   3.246  11.380  0.00  0.00    +0.000 C 
ENDBRANCH  27  29
ENDBRANCH  26  27
ENDBRANCH   1  26
TORSDOF 5
ENDMDL
MODEL 8
REMARK VINA RESULT:      -7.1      7.366     10.017
REMARK  Name = 
REMARK  7 active torsions:
REMARK  status: ('A' for Active; 'I' for Inactive)
REMARK    1  A    between atoms: C_1  and  C_2
REMARK    2  A    between atoms: C_2  and  C_3
REMARK    3  A    between atoms: C_2  and  C_4
REMARK    4  A    between atoms: C_4  and  C_5
REMARK    5  A    between atoms: C_5  and  N_6
REMARK    6  A    between atoms: C_15  and  C_16
REMARK    7  A    between atoms: N_20  and  C_21
REMARK                            x       y       z     vdW  Elec       q    Type
REMARK                         _______ _______ _______ _____ _____    ______ ____
ROOT
ATOM      1  N   UNL     1       0.709  11.637  19.191  0.00  0.00    +0.000 N 
ATOM      2  C   UNL     1       1.849  12.256  18.704  0.00  0.00    +0.000 C 
ATOM      3  O   UNL     1       2.446  12.046  17.667  0.00  0.00    +0.000 OA
ATOM      4  C   UNL     1       2.216  13.284  19.678  0.00  0.00    +0.000 A 
ATOM      5  C   UNL     1       3.380  14.022  19.743  0.00  0.00    +0.000 A 
ATOM      6  C   UNL     1       3.534  14.877  20.834  0.00  0.00    +0.000 A 
ATOM      7  C   UNL     1       2.505  15.015  21.784  0.00  0.00    +0.000 A 
ATOM      8  C   UNL     1       1.323  14.271  21.683  0.00  0.00    +0.000 A 
ATOM      9  C   UNL     1       1.210  13.364  20.642  0.00  0.00    +0.000 A 
ATOM     10  C   UNL     1       0.147  12.335  20.352  0.00  0.00    +0.000 C 
ENDROOT
BRANCH  10  11
ATOM     11  C   UNL     1      -0.101  11.402  21.494  0.00  0.00    +0.000 A 
ATOM     12  N   UNL     1       0.751  10.517  21.986  0.00  0.00    +0.000 NA
ATOM     13  N   UNL     1       0.236  10.086  23.172  0.00  0.00    +0.000 NA
ATOM     14  N   UNL     1      -0.911  10.699  23.439  0.00  0.00    +0.000 NA
ATOM     15  N   UNL     1      -1.192  11.446  22.356  0.00  0.00    +0.000 N 
BRANCH  15  16
ATOM     16  C   UNL     1      -2.411  12.163  22.277  0.00  0.00    +0.000 A 
ATOM     17  C   UNL     1      -2.797  12.750  21.059  0.00  0.00    +0.000 A 
ATOM     18  C   UNL     1      -4.069  13.322  20.935  0.00  0.00    +0.000 A 
ATOM     19  C   UNL     1      -4.931  13.337  22.030  0.00  0.00    +0.000 A 
ATOM     20  C   UNL     1      -4.519  12.809  23.252  0.00  0.00    +0.000 A 
ATOM     21  C   UNL     1      -3.247  12.264  23.388  0.00  0.00    +0.000 A 
ATOM     22  O   UNL     1      -5.308  12.771  24.370  0.00  0.00    +0.000 OA
ATOM     23  C   UNL     1      -6.688  12.933  24.021  0.00  0.00    +0.000 C 
ATOM     24  C   UNL     1      -6.852  14.114  23.077  0.00  0.00    +0.000 C 
ATOM     25  O   UNL     1      -6.179  13.873  21.833  0.00  0.00    +0.000 OA
ENDBRANCH  15  16
ENDBRANCH  10  11
BRANCH   1  26
ATOM     26  C   UNL     1      -0.030  10.651  18.417  0.00  0.00    +0.000 C 
BRANCH  26  27
ATOM     27  C   UNL     1      -1.387  11.206  17.986  0.00  0.00    +0.000 C 
BRANCH  27  29
ATOM     28  C   UNL     1      -3.817  10.646  17.982  0.00  0.00    +0.000 C 
ATOM     29  C   UNL     1      -2.424  10.148  17.583  0.00  0.00    +0.000 C 
ATOM     30  C   UNL     1      -2.394   9.838  16.087  0.00  0.00    +0.000 C 
ENDBRANCH  27  29
ENDBRANCH  26  27
ENDBRANCH   1  26
TORSDOF 5
ENDMDL
MODEL 9
REMARK VINA RESULT:      -7.1      2.592      3.690
REMARK  Name = 
REMARK  7 active torsions:
REMARK  status: ('A' for Active; 'I' for Inactive)
REMARK    1  A    between atoms: C_1  and  C_2
REMARK    2  A    between atoms: C_2  and  C_3
REMARK    3  A    between atoms: C_2  and  C_4
REMARK    4  A    between atoms: C_4  and  C_5
REMARK    5  A    between atoms: C_5  and  N_6
REMARK    6  A    between atoms: C_15  and  C_16
REMARK    7  A    between atoms: N_20  and  C_21
REMARK                            x       y       z     vdW  Elec       q    Type
REMARK                         _______ _______ _______ _____ _____    ______ ____
ROOT
ATOM      1  N   UNL     1       4.758   5.082  19.398  0.00  0.00    +0.000 N 
ATOM      2  C   UNL     1       4.546   3.714  19.470  0.00  0.00    +0.000 C 
ATOM      3  O   UNL     1       5.363   2.815  19.456  0.00  0.00    +0.000 OA
ATOM      4  C   UNL     1       3.102   3.521  19.608  0.00  0.00    +0.000 A 
ATOM      5  C   UNL     1       2.385   2.345  19.512  0.00  0.00    +0.000 A 
ATOM      6  C   UNL     1       0.996   2.437  19.584  0.00  0.00    +0.000 A 
ATOM      7  C   UNL     1       0.373   3.679  19.809  0.00  0.00    +0.000 A 
ATOM      8  C   UNL     1       1.125   4.855  19.924  0.00  0.00    +0.000 A 
ATOM      9  C   UNL     1       2.499   4.768  19.771  0.00  0.00    +0.000 A 
ATOM     10  C   UNL     1       3.545   5.851  19.698  0.00  0.00    +0.000 C 
ENDROOT
BRANCH  10  11
ATOM     11  C   UNL     1       3.264   6.876  18.645  0.00  0.00    +0.000 A 
ATOM     12  N   UNL     1       3.683   6.849  17.391  0.00  0.00    +0.000 NA
ATOM     13  N   UNL     1       2.982   7.805  16.717  0.00  0.00    +0.000 NA
ATOM     14  N   UNL     1       2.119   8.413  17.523  0.00  0.00    +0.000 NA
ATOM     15  N   UNL     1       2.353   7.921  18.754  0.00  0.00    +0.000 N 
BRANCH  15  16
ATOM     16  C   UNL     1       1.657   8.436  19.875  0.00  0.00    +0.000 A 
ATOM     17  C   UNL     1       1.976   7.977  21.165  0.00  0.00    +0.000 A 
ATOM     18  C   UNL     1       1.404   8.594  22.284  0.00  0.00    +0.000 A 
ATOM     19  C   UNL     1       0.494   9.635  22.112  0.00  0.00    +0.000 A 
ATOM     20  C   UNL     1       0.135  10.043  20.828  0.00  0.00    +0.000 A 
ATOM     21  C   UNL     1       0.679   9.416  19.714  0.00  0.00    +0.000 A 
ATOM     22  O   UNL     1      -0.739  11.067  20.572  0.00  0.00    +0.000 OA
ATOM     23  C   UNL     1      -0.887  11.905  21.723  0.00  0.00    +0.000 C 
ATOM     24  C   UNL     1      -1.134  11.056  22.959  0.00  0.00    +0.000 C 
ATOM     25  O   UNL     1       0.001  10.227  23.247  0.00  0.00    +0.000 OA
ENDBRANCH  15  16
ENDBRANCH  10  11
BRANCH   1  26
ATOM     26  C   UNL     1       6.092   5.662  19.398  0.00  0.00    +0.000 C 
BRANCH  26  27
ATOM     27  C   UNL     1       6.973   4.996  18.342  0.00  0.00    +0.000 C 
BRANCH  27  29
ATOM     28  C   UNL     1       6.569   5.547  15.944  0.00  0.00    +0.000 C 
ATOM     29  C   UNL     1       7.398   5.907  17.182  0.00  0.00    +0.000 C 
ATOM     30  C   UNL     1       7.224   7.390  17.507  0.00  0.00    +0.000 C 
ENDBRANCH  27  29
ENDBRANCH  26  27
ENDBRANCH   1  26
TORSDOF 5
ENDMDL
