MODEL 1
REMARK VINA RESULT:      -8.6      0.000      0.000
REMARK  Name = 
REMARK  7 active torsions:
REMARK  status: ('A' for Active; 'I' for Inactive)
REMARK    1  A    between atoms: C_1  and  C_2
REMARK    2  A    between atoms: C_5  and  C_6
REMARK    3  A    between atoms: N_8  and  C_9
REMARK    4  A    between atoms: C_16  and  C_17
REMARK    5  A    between atoms: N_18  and  O_19
REMARK    6  A    between atoms: O_19  and  C_20
REMARK    7  A    between atoms: C_20  and  C_21
REMARK                            x       y       z     vdW  Elec       q    Type
REMARK                         _______ _______ _______ _____ _____    ______ ____
ROOT
ATOM      1  C   UNL     1       3.951   5.060  17.340  0.00  0.00    +0.000 A 
ATOM      2  N   UNL     1       4.488   4.338  16.342  0.00  0.00    +0.000 NA
ATOM      3  N   UNL     1       5.117   5.236  15.540  0.00  0.00    +0.000 N 
ATOM      4  C   UNL     1       4.931   6.521  15.989  0.00  0.00    +0.000 A 
ATOM      5  C   UNL     1       4.154   6.454  17.124  0.00  0.00    +0.000 A 
ENDROOT
BRANCH   1  10
ATOM      6  C   UNL     1       1.406   2.412  21.824  0.00  0.00    +0.000 C 
ATOM      7  C   UNL     1       2.066   3.103  20.667  0.00  0.00    +0.000 A 
ATOM      8  C   UNL     1       3.444   2.996  20.471  0.00  0.00    +0.000 A 
ATOM      9  C   UNL     1       4.052   3.624  19.382  0.00  0.00    +0.000 A 
ATOM     10  C   UNL     1       3.302   4.397  18.483  0.00  0.00    +0.000 A 
ATOM     11  C   UNL     1       1.919   4.490  18.676  0.00  0.00    +0.000 A 
ATOM     12  C   UNL     1       1.307   3.847  19.758  0.00  0.00    +0.000 A 
ENDBRANCH   1  10
BRANCH   3  13
ATOM     13  C   UNL     1       5.852   4.803  14.398  0.00  0.00    +0.000 A 
ATOM     14  C   UNL     1       5.299   3.842  13.540  0.00  0.00    +0.000 A 
ATOM     15  C   UNL     1       6.007   3.409  12.417  0.00  0.00    +0.000 A 
ATOM     16  C   UNL     1       7.272   3.927  12.145  0.00  0.00    +0.000 A 
ATOM     17  C   UNL     1       7.830   4.881  12.995  0.00  0.00    +0.000 A 
ATOM     18  C   UNL     1       7.126   5.322  14.119  0.00  0.00    +0.000 A 
ENDBRANCH   3  13
BRANCH   5  19
ATOM     19  C   UNL     1       3.684   7.564  17.914  0.00  0.00    +0.000 C 
ATOM     20  N   UNL     1       2.477   7.999  17.755  0.00  0.00    +0.000 NA
BRANCH  20  21
ATOM     21  O   UNL     1       2.305   9.137  18.567  0.00  0.00    +0.000 OA
BRANCH  21  22
ATOM     22  C   UNL     1       0.911   9.477  18.601  0.00  0.00    +0.000 C 
BRANCH  22  23
ATOM     23  C   UNL     1       0.477   9.821  20.008  0.00  0.00    +0.000 A 
ATOM     24  C   UNL     1      -0.187  11.034  20.272  0.00  0.00    +0.000 A 
ATOM     25  C   UNL     1      -0.592  11.368  21.567  0.00  0.00    +0.000 A 
ATOM     26  C   UNL     1      -0.356  10.493  22.621  0.00  0.00    +0.000 A 
ATOM     27  C   UNL     1       0.262   9.269  22.374  0.00  0.00    +0.000 A 
ATOM     28  C   UNL     1       0.660   8.927  21.076  0.00  0.00    +0.000 A 
ATOM     29 CL   UNL     1       1.357   7.360  20.853  0.00  0.00    +0.000 Cl
ENDBRANCH  22  23
ENDBRANCH  21  22
ENDBRANCH  20  21
ENDBRANCH   5  19
TORSDOF 6
ENDMDL
MODEL 2
REMARK VINA RESULT:      -8.5      1.014      1.611
REMARK  Name = 
REMARK  7 active torsions:
REMARK  status: ('A' for Active; 'I' for Inactive)
REMARK    1  A    between atoms: C_1  and  C_2
REMARK    2  A    between atoms: C_5  and  C_6
REMARK    3  A    between atoms: N_8  and  C_9
REMARK    4  A    between atoms: C_16  and  C_17
REMARK    5  A    between atoms: N_18  and  O_19
REMARK    6  A    between atoms: O_19  and  C_20
REMARK    7  A    between atoms: C_20  and  C_21
REMARK                            x       y       z     vdW  Elec       q    Type
REMARK                         _______ _______ _______ _____ _____    ______ ____
ROOT
ATOM      1  C   UNL     1       3.989   5.025  17.295  0.00  0.00    +0.000 A 
ATOM      2  N   UNL     1       4.524   4.304  16.295  0.00  0.00    +0.000 NA
ATOM      3  N   UNL     1       5.144   5.203  15.488  0.00  0.00    +0.000 N 
ATOM      4  C   UNL     1       4.955   6.488  15.936  0.00  0.00    +0.000 A 
ATOM      5  C   UNL     1       4.185   6.420  17.076  0.00  0.00    +0.000 A 
ENDROOT
BRANCH   1  10
ATOM      6  C   UNL     1       1.467   2.448  21.832  0.00  0.00    +0.000 C 
ATOM      7  C   UNL     1       2.118   3.110  20.654  0.00  0.00    +0.000 A 
ATOM      8  C   UNL     1       1.397   3.998  19.853  0.00  0.00    +0.000 A 
ATOM      9  C   UNL     1       2.012   4.628  18.769  0.00  0.00    +0.000 A 
ATOM     10  C   UNL     1       3.350   4.361  18.442  0.00  0.00    +0.000 A 
ATOM     11  C   UNL     1       4.073   3.480  19.256  0.00  0.00    +0.000 A 
ATOM     12  C   UNL     1       3.461   2.862  20.353  0.00  0.00    +0.000 A 
ENDBRANCH   1  10
BRANCH   3  13
ATOM     13  C   UNL     1       5.873   4.772  14.342  0.00  0.00    +0.000 A 
ATOM     14  C   UNL     1       5.320   3.807  13.488  0.00  0.00    +0.000 A 
ATOM     15  C   UNL     1       6.023   3.376  12.362  0.00  0.00    +0.000 A 
ATOM     16  C   UNL     1       7.284   3.898  12.082  0.00  0.00    +0.000 A 
ATOM     17  C   UNL     1       7.843   4.855  12.927  0.00  0.00    +0.000 A 
ATOM     18  C   UNL     1       7.144   5.295  14.054  0.00  0.00    +0.000 A 
ENDBRANCH   3  13
BRANCH   5  19
ATOM     19  C   UNL     1       3.715   7.529  17.867  0.00  0.00    +0.000 C 
ATOM     20  N   UNL     1       2.624   8.137  17.535  0.00  0.00    +0.000 NA
BRANCH  20  21
ATOM     21  O   UNL     1       2.443   9.230  18.404  0.00  0.00    +0.000 OA
BRANCH  21  22
ATOM     22  C   UNL     1       1.041   9.523  18.497  0.00  0.00    +0.000 C 
BRANCH  22  23
ATOM     23  C   UNL     1       0.622   9.684  19.942  0.00  0.00    +0.000 A 
ATOM     24  C   UNL     1       1.133   8.823  20.931  0.00  0.00    +0.000 A 
ATOM     25  C   UNL     1       0.754   8.957  22.269  0.00  0.00    +0.000 A 
ATOM     26  C   UNL     1      -0.131   9.960  22.649  0.00  0.00    +0.000 A 
ATOM     27  C   UNL     1      -0.615  10.849  21.692  0.00  0.00    +0.000 A 
ATOM     28  C   UNL     1      -0.229  10.724  20.352  0.00  0.00    +0.000 A 
ATOM     29 CL   UNL     1      -0.827  11.912  19.246  0.00  0.00    +0.000 Cl
ENDBRANCH  22  23
ENDBRANCH  21  22
ENDBRANCH  20  21
ENDBRANCH   5  19
TORSDOF 6
ENDMDL
MODEL 3
REMARK VINA RESULT:      -8.4      1.027      1.625
REMARK  Name = 
REMARK  7 active torsions:
REMARK  status: ('A' for Active; 'I' for Inactive)
REMARK    1  A    between atoms: C_1  and  C_2
REMARK    2  A    between atoms: C_5  and  C_6
REMARK    3  A    between atoms: N_8  and  C_9
REMARK    4  A    between atoms: C_16  and  C_17
REMARK    5  A    between atoms: N_18  and  O_19
REMARK    6  A    between atoms: O_19  and  C_20
REMARK    7  A    between atoms: C_20  and  C_21
REMARK                            x       y       z     vdW  Elec       q    Type
REMARK                         _______ _______ _______ _____ _____    ______ ____
ROOT
ATOM      1  C   UNL     1       3.977   5.038  17.319  0.00  0.00    +0.000 A 
ATOM      2  N   UNL     1       4.494   4.308  16.316  0.00  0.00    +0.000 NA
ATOM      3  N   UNL     1       5.126   5.196  15.507  0.00  0.00    +0.000 N 
ATOM      4  C   UNL     1       4.963   6.484  15.957  0.00  0.00    +0.000 A 
ATOM      5  C   UNL     1       4.198   6.429  17.100  0.00  0.00    +0.000 A 
ENDROOT
BRANCH   1  10
ATOM      6  C   UNL     1       1.441   2.429  21.830  0.00  0.00    +0.000 C 
ATOM      7  C   UNL     1       2.099   3.109  20.666  0.00  0.00    +0.000 A 
ATOM      8  C   UNL     1       3.452   2.897  20.395  0.00  0.00    +0.000 A 
ATOM      9  C   UNL     1       4.057   3.517  19.299  0.00  0.00    +0.000 A 
ATOM     10  C   UNL     1       3.332   4.385  18.469  0.00  0.00    +0.000 A 
ATOM     11  C   UNL     1       1.972   4.584  18.738  0.00  0.00    +0.000 A 
ATOM     12  C   UNL     1       1.362   3.949  19.826  0.00  0.00    +0.000 A 
ENDBRANCH   1  10
BRANCH   3  13
ATOM     13  C   UNL     1       5.842   4.753  14.357  0.00  0.00    +0.000 A 
ATOM     14  C   UNL     1       7.108   5.288  14.078  0.00  0.00    +0.000 A 
ATOM     15  C   UNL     1       7.821   4.864  12.956  0.00  0.00    +0.000 A 
ATOM     16  C   UNL     1       7.276   3.908  12.101  0.00  0.00    +0.000 A 
ATOM     17  C   UNL     1       6.017   3.373  12.369  0.00  0.00    +0.000 A 
ATOM     18  C   UNL     1       5.299   3.790  13.492  0.00  0.00    +0.000 A 
ENDBRANCH   3  13
BRANCH   5  19
ATOM     19  C   UNL     1       3.752   7.546  17.895  0.00  0.00    +0.000 C 
ATOM     20  N   UNL     1       2.545   7.988  17.759  0.00  0.00    +0.000 NA
BRANCH  20  21
ATOM     21  O   UNL     1       2.398   9.131  18.569  0.00  0.00    +0.000 OA
BRANCH  21  22
ATOM     22  C   UNL     1       1.022   9.541  18.548  0.00  0.00    +0.000 C 
BRANCH  22  23
ATOM     23  C   UNL     1       0.531   9.842  19.947  0.00  0.00    +0.000 A 
ATOM     24  C   UNL     1       0.518   8.834  20.928  0.00  0.00    +0.000 A 
ATOM     25  C   UNL     1       0.065   9.094  22.225  0.00  0.00    +0.000 A 
ATOM     26  C   UNL     1      -0.371  10.369  22.570  0.00  0.00    +0.000 A 
ATOM     27  C   UNL     1      -0.326  11.392  21.625  0.00  0.00    +0.000 A 
ATOM     28  C   UNL     1       0.137  11.136  20.328  0.00  0.00    +0.000 A 
ATOM     29 CL   UNL     1       0.221  12.480  19.243  0.00  0.00    +0.000 Cl
ENDBRANCH  22  23
ENDBRANCH  21  22
ENDBRANCH  20  21
ENDBRANCH   5  19
TORSDOF 6
ENDMDL
MODEL 4
REMARK VINA RESULT:      -8.3      4.593      6.235
REMARK  Name = 
REMARK  7 active torsions:
REMARK  status: ('A' for Active; 'I' for Inactive)
REMARK    1  A    between atoms: C_1  and  C_2
REMARK    2  A    between atoms: C_5  and  C_6
REMARK    3  A    between atoms: N_8  and  C_9
REMARK    4  A    between atoms: C_16  and  C_17
REMARK    5  A    between atoms: N_18  and  O_19
REMARK    6  A    between atoms: O_19  and  C_20
REMARK    7  A    between atoms: C_20  and  C_21
REMARK                            x       y       z     vdW  Elec       q    Type
REMARK                         _______ _______ _______ _____ _____    ______ ____
ROOT
ATOM      1  C   UNL     1       5.290   5.962  16.649  0.00  0.00    +0.000 A 
ATOM      2  N   UNL     1       4.937   5.261  15.557  0.00  0.00    +0.000 NA
ATOM      3  N   UNL     1       6.095   5.014  14.893  0.00  0.00    +0.000 N 
ATOM      4  C   UNL     1       7.166   5.602  15.522  0.00  0.00    +0.000 A 
ATOM      5  C   UNL     1       6.685   6.254  16.635  0.00  0.00    +0.000 A 
ENDROOT
BRANCH   1  10
ATOM      6  C   UNL     1       1.402   7.294  20.735  0.00  0.00    +0.000 C 
ATOM      7  C   UNL     1       2.404   6.946  19.674  0.00  0.00    +0.000 A 
ATOM      8  C   UNL     1       2.543   7.749  18.541  0.00  0.00    +0.000 A 
ATOM      9  C   UNL     1       3.490   7.432  17.564  0.00  0.00    +0.000 A 
ATOM     10  C   UNL     1       4.297   6.291  17.684  0.00  0.00    +0.000 A 
ATOM     11  C   UNL     1       4.164   5.496  18.829  0.00  0.00    +0.000 A 
ATOM     12  C   UNL     1       3.226   5.823  19.816  0.00  0.00    +0.000 A 
ENDBRANCH   1  10
BRANCH   3  13
ATOM     13  C   UNL     1       6.099   4.233  13.700  0.00  0.00    +0.000 A 
ATOM     14  C   UNL     1       7.291   4.072  12.979  0.00  0.00    +0.000 A 
ATOM     15  C   UNL     1       7.310   3.310  11.809  0.00  0.00    +0.000 A 
ATOM     16  C   UNL     1       6.141   2.708  11.348  0.00  0.00    +0.000 A 
ATOM     17  C   UNL     1       4.951   2.866  12.057  0.00  0.00    +0.000 A 
ATOM     18  C   UNL     1       4.925   3.624  13.231  0.00  0.00    +0.000 A 
ENDBRANCH   3  13
BRANCH   5  19
ATOM     19  C   UNL     1       7.450   7.032  17.577  0.00  0.00    +0.000 C 
ATOM     20  N   UNL     1       7.636   8.294  17.364  0.00  0.00    +0.000 NA
BRANCH  20  21
ATOM     21  O   UNL     1       8.487   8.792  18.370  0.00  0.00    +0.000 OA
BRANCH  21  22
ATOM     22  C   UNL     1       8.329  10.217  18.448  0.00  0.00    +0.000 C 
BRANCH  22  23
ATOM     23  C   UNL     1       9.643  10.884  18.788  0.00  0.00    +0.000 A 
ATOM     24  C   UNL     1      10.569  11.189  17.772  0.00  0.00    +0.000 A 
ATOM     25  C   UNL     1      11.789  11.803  18.070  0.00  0.00    +0.000 A 
ATOM     26  C   UNL     1      12.103  12.136  19.382  0.00  0.00    +0.000 A 
ATOM     27  C   UNL     1      11.182  11.881  20.396  0.00  0.00    +0.000 A 
ATOM     28  C   UNL     1       9.954  11.276  20.101  0.00  0.00    +0.000 A 
ATOM     29 CL   UNL     1       8.847  11.059  21.411  0.00  0.00    +0.000 Cl
ENDBRANCH  22  23
ENDBRANCH  21  22
ENDBRANCH  20  21
ENDBRANCH   5  19
TORSDOF 6
ENDMDL
MODEL 5
REMARK VINA RESULT:      -8.2      0.806      1.410
REMARK  Name = 
REMARK  7 active torsions:
REMARK  status: ('A' for Active; 'I' for Inactive)
REMARK    1  A    between atoms: C_1  and  C_2
REMARK    2  A    between atoms: C_5  and  C_6
REMARK    3  A    between atoms: N_8  and  C_9
REMARK    4  A    between atoms: C_16  and  C_17
REMARK    5  A    between atoms: N_18  and  O_19
REMARK    6  A    between atoms: O_19  and  C_20
REMARK    7  A    between atoms: C_20  and  C_21
REMARK                            x       y       z     vdW  Elec       q    Type
REMARK                         _______ _______ _______ _____ _____    ______ ____
ROOT
ATOM      1  C   UNL     1       4.002   4.969  17.265  0.00  0.00    +0.000 A 
ATOM      2  N   UNL     1       4.527   4.253  16.257  0.00  0.00    +0.000 NA
ATOM      3  N   UNL     1       5.156   5.153  15.458  0.00  0.00    +0.000 N 
ATOM      4  C   UNL     1       4.982   6.435  15.920  0.00  0.00    +0.000 A 
ATOM      5  C   UNL     1       4.213   6.364  17.060  0.00  0.00    +0.000 A 
ENDROOT
BRANCH   1  10
ATOM      6  C   UNL     1       1.451   2.375  21.776  0.00  0.00    +0.000 C 
ATOM      7  C   UNL     1       2.110   3.041  20.605  0.00  0.00    +0.000 A 
ATOM      8  C   UNL     1       1.348   3.738  19.665  0.00  0.00    +0.000 A 
ATOM      9  C   UNL     1       1.968   4.373  18.587  0.00  0.00    +0.000 A 
ATOM     10  C   UNL     1       3.357   4.301  18.407  0.00  0.00    +0.000 A 
ATOM     11  C   UNL     1       4.118   3.613  19.359  0.00  0.00    +0.000 A 
ATOM     12  C   UNL     1       3.499   2.990  20.450  0.00  0.00    +0.000 A 
ENDBRANCH   1  10
BRANCH   3  13
ATOM     13  C   UNL     1       5.879   4.726  14.307  0.00  0.00    +0.000 A 
ATOM     14  C   UNL     1       5.315   3.773  13.447  0.00  0.00    +0.000 A 
ATOM     15  C   UNL     1       6.012   3.345  12.315  0.00  0.00    +0.000 A 
ATOM     16  C   UNL     1       7.276   3.859  12.036  0.00  0.00    +0.000 A 
ATOM     17  C   UNL     1       7.846   4.805  12.888  0.00  0.00    +0.000 A 
ATOM     18  C   UNL     1       7.153   5.241  14.020  0.00  0.00    +0.000 A 
ENDBRANCH   3  13
BRANCH   5  19
ATOM     19  C   UNL     1       3.756   7.470  17.863  0.00  0.00    +0.000 C 
ATOM     20  N   UNL     1       2.500   7.776  17.879  0.00  0.00    +0.000 NA
BRANCH  20  21
ATOM     21  O   UNL     1       2.337   8.940  18.655  0.00  0.00    +0.000 OA
BRANCH  21  22
ATOM     22  C   UNL     1       1.492   8.636  19.776  0.00  0.00    +0.000 C 
BRANCH  22  23
ATOM     23  C   UNL     1       0.488   9.743  20.005  0.00  0.00    +0.000 A 
ATOM     24  C   UNL     1      -0.143  10.369  18.913  0.00  0.00    +0.000 A 
ATOM     25  C   UNL     1      -1.072  11.395  19.108  0.00  0.00    +0.000 A 
ATOM     26  C   UNL     1      -1.399  11.808  20.395  0.00  0.00    +0.000 A 
ATOM     27  C   UNL     1      -0.816  11.173  21.490  0.00  0.00    +0.000 A 
ATOM     28  C   UNL     1       0.106  10.138  21.299  0.00  0.00    +0.000 A 
ATOM     29 CL   UNL     1       0.726   9.363  22.715  0.00  0.00    +0.000 Cl
ENDBRANCH  22  23
ENDBRANCH  21  22
ENDBRANCH  20  21
ENDBRANCH   5  19
TORSDOF 6
ENDMDL
MODEL 6
REMARK VINA RESULT:      -8.2      0.798      1.400
REMARK  Name = 
REMARK  7 active torsions:
REMARK  status: ('A' for Active; 'I' for Inactive)
REMARK    1  A    between atoms: C_1  and  C_2
REMARK    2  A    between atoms: C_5  and  C_6
REMARK    3  A    between atoms: N_8  and  C_9
REMARK    4  A    between atoms: C_16  and  C_17
REMARK    5  A    between atoms: N_18  and  O_19
REMARK    6  A    between atoms: O_19  and  C_20
REMARK    7  A    between atoms: C_20  and  C_21
REMARK                            x       y       z     vdW  Elec       q    Type
REMARK                         _______ _______ _______ _____ _____    ______ ____
ROOT
ATOM      1  C   UNL     1       3.952   5.005  17.313  0.00  0.00    +0.000 A 
ATOM      2  N   UNL     1       4.483   4.279  16.315  0.00  0.00    +0.000 NA
ATOM      3  N   UNL     1       5.105   5.174  15.505  0.00  0.00    +0.000 N 
ATOM      4  C   UNL     1       4.920   6.461  15.949  0.00  0.00    +0.000 A 
ATOM      5  C   UNL     1       4.151   6.398  17.090  0.00  0.00    +0.000 A 
ENDROOT
BRANCH   1  10
ATOM      6  C   UNL     1       1.441   2.374  21.826  0.00  0.00    +0.000 C 
ATOM      7  C   UNL     1       2.092   3.060  20.661  0.00  0.00    +0.000 A 
ATOM      8  C   UNL     1       3.463   2.919  20.433  0.00  0.00    +0.000 A 
ATOM      9  C   UNL     1       4.062   3.544  19.337  0.00  0.00    +0.000 A 
ATOM     10  C   UNL     1       3.312   4.346  18.463  0.00  0.00    +0.000 A 
ATOM     11  C   UNL     1       1.936   4.473  18.689  0.00  0.00    +0.000 A 
ATOM     12  C   UNL     1       1.332   3.833  19.778  0.00  0.00    +0.000 A 
ENDBRANCH   1  10
BRANCH   3  13
ATOM     13  C   UNL     1       5.832   4.738  14.359  0.00  0.00    +0.000 A 
ATOM     14  C   UNL     1       7.105   5.266  14.102  0.00  0.00    +0.000 A 
ATOM     15  C   UNL     1       7.830   4.849  12.984  0.00  0.00    +0.000 A 
ATOM     16  C   UNL     1       7.289   3.906  12.113  0.00  0.00    +0.000 A 
ATOM     17  C   UNL     1       6.023   3.377  12.359  0.00  0.00    +0.000 A 
ATOM     18  C   UNL     1       5.293   3.787  13.478  0.00  0.00    +0.000 A 
ENDBRANCH   3  13
BRANCH   5  19
ATOM     19  C   UNL     1       3.685   7.511  17.878  0.00  0.00    +0.000 C 
ATOM     20  N   UNL     1       2.457   7.901  17.774  0.00  0.00    +0.000 NA
BRANCH  20  21
ATOM     21  O   UNL     1       2.288   9.052  18.568  0.00  0.00    +0.000 OA
BRANCH  21  22
ATOM     22  C   UNL     1       1.477   8.718  19.704  0.00  0.00    +0.000 C 
BRANCH  22  23
ATOM     23  C   UNL     1       0.464   9.808  19.978  0.00  0.00    +0.000 A 
ATOM     24  C   UNL     1      -0.200  10.446  18.914  0.00  0.00    +0.000 A 
ATOM     25  C   UNL     1      -1.136  11.456  19.150  0.00  0.00    +0.000 A 
ATOM     26  C   UNL     1      -1.438  11.840  20.451  0.00  0.00    +0.000 A 
ATOM     27  C   UNL     1      -0.823  11.191  21.520  0.00  0.00    +0.000 A 
ATOM     28  C   UNL     1       0.108  10.172  21.288  0.00  0.00    +0.000 A 
ATOM     29 CL   UNL     1       0.770   9.378  22.674  0.00  0.00    +0.000 Cl
ENDBRANCH  22  23
ENDBRANCH  21  22
ENDBRANCH  20  21
ENDBRANCH   5  19
TORSDOF 6
ENDMDL
MODEL 7
REMARK VINA RESULT:      -8.2      1.408      2.103
REMARK  Name = 
REMARK  7 active torsions:
REMARK  status: ('A' for Active; 'I' for Inactive)
REMARK    1  A    between atoms: C_1  and  C_2
REMARK    2  A    between atoms: C_5  and  C_6
REMARK    3  A    between atoms: N_8  and  C_9
REMARK    4  A    between atoms: C_16  and  C_17
REMARK    5  A    between atoms: N_18  and  O_19
REMARK    6  A    between atoms: O_19  and  C_20
REMARK    7  A    between atoms: C_20  and  C_21
REMARK                            x       y       z     vdW  Elec       q    Type
REMARK                         _______ _______ _______ _____ _____    ______ ____
ROOT
ATOM      1  C   UNL     1       3.942   5.089  17.316  0.00  0.00    +0.000 A 
ATOM      2  N   UNL     1       4.495   4.355  16.335  0.00  0.00    +0.000 NA
ATOM      3  N   UNL     1       5.107   5.245  15.514  0.00  0.00    +0.000 N 
ATOM      4  C   UNL     1       4.896   6.537  15.932  0.00  0.00    +0.000 A 
ATOM      5  C   UNL     1       4.119   6.482  17.067  0.00  0.00    +0.000 A 
ENDROOT
BRANCH   1  10
ATOM      6  C   UNL     1       1.436   2.500  21.854  0.00  0.00    +0.000 C 
ATOM      7  C   UNL     1       2.087   3.175  20.683  0.00  0.00    +0.000 A 
ATOM      8  C   UNL     1       3.430   2.938  20.387  0.00  0.00    +0.000 A 
ATOM      9  C   UNL     1       4.028   3.554  19.284  0.00  0.00    +0.000 A 
ATOM     10  C   UNL     1       3.305   4.441  18.473  0.00  0.00    +0.000 A 
ATOM     11  C   UNL     1       1.954   4.665  18.766  0.00  0.00    +0.000 A 
ATOM     12  C   UNL     1       1.351   4.035  19.862  0.00  0.00    +0.000 A 
ENDBRANCH   1  10
BRANCH   3  13
ATOM     13  C   UNL     1       5.853   4.801  14.383  0.00  0.00    +0.000 A 
ATOM     14  C   UNL     1       7.122   5.341  14.131  0.00  0.00    +0.000 A 
ATOM     15  C   UNL     1       7.864   4.916  13.027  0.00  0.00    +0.000 A 
ATOM     16  C   UNL     1       7.343   3.953  12.165  0.00  0.00    +0.000 A 
ATOM     17  C   UNL     1       6.081   3.412  12.406  0.00  0.00    +0.000 A 
ATOM     18  C   UNL     1       5.335   3.831  13.511  0.00  0.00    +0.000 A 
ENDBRANCH   3  13
BRANCH   5  19
ATOM     19  C   UNL     1       3.626   7.601  17.830  0.00  0.00    +0.000 C 
ATOM     20  N   UNL     1       2.699   8.355  17.337  0.00  0.00    +0.000 NA
BRANCH  20  21
ATOM     21  O   UNL     1       2.470   9.419  18.231  0.00  0.00    +0.000 OA
BRANCH  21  22
ATOM     22  C   UNL     1       1.306   9.123  19.018  0.00  0.00    +0.000 C 
BRANCH  22  23
ATOM     23  C   UNL     1       0.188  10.093  18.705  0.00  0.00    +0.000 A 
ATOM     24  C   UNL     1      -0.805   9.754  17.767  0.00  0.00    +0.000 A 
ATOM     25  C   UNL     1      -1.844  10.639  17.466  0.00  0.00    +0.000 A 
ATOM     26  C   UNL     1      -1.919  11.873  18.102  0.00  0.00    +0.000 A 
ATOM     27  C   UNL     1      -0.969  12.210  19.064  0.00  0.00    +0.000 A 
ATOM     28  C   UNL     1       0.067  11.321  19.377  0.00  0.00    +0.000 A 
ATOM     29 CL   UNL     1       1.160  11.794  20.630  0.00  0.00    +0.000 Cl
ENDBRANCH  22  23
ENDBRANCH  21  22
ENDBRANCH  20  21
ENDBRANCH   5  19
TORSDOF 6
ENDMDL
MODEL 8
REMARK VINA RESULT:      -8.2      1.628      2.374
REMARK  Name = 
REMARK  7 active torsions:
REMARK  status: ('A' for Active; 'I' for Inactive)
REMARK    1  A    between atoms: C_1  and  C_2
REMARK    2  A    between atoms: C_5  and  C_6
REMARK    3  A    between atoms: N_8  and  C_9
REMARK    4  A    between atoms: C_16  and  C_17
REMARK    5  A    between atoms: N_18  and  O_19
REMARK    6  A    between atoms: O_19  and  C_20
REMARK    7  A    between atoms: C_20  and  C_21
REMARK                            x       y       z     vdW  Elec       q    Type
REMARK                         _______ _______ _______ _____ _____    ______ ____
ROOT
ATOM      1  C   UNL     1       3.982   5.018  17.293  0.00  0.00    +0.000 A 
ATOM      2  N   UNL     1       4.503   4.290  16.290  0.00  0.00    +0.000 NA
ATOM      3  N   UNL     1       5.133   5.180  15.482  0.00  0.00    +0.000 N 
ATOM      4  C   UNL     1       4.965   6.467  15.932  0.00  0.00    +0.000 A 
ATOM      5  C   UNL     1       4.199   6.410  17.075  0.00  0.00    +0.000 A 
ENDROOT
BRANCH   1  10
ATOM      6  C   UNL     1       1.436   2.475  21.836  0.00  0.00    +0.000 C 
ATOM      7  C   UNL     1       2.094   3.128  20.656  0.00  0.00    +0.000 A 
ATOM      8  C   UNL     1       1.366   3.980  19.822  0.00  0.00    +0.000 A 
ATOM      9  C   UNL     1       1.987   4.601  18.736  0.00  0.00    +0.000 A 
ATOM     10  C   UNL     1       3.337   4.363  18.442  0.00  0.00    +0.000 A 
ATOM     11  C   UNL     1       4.066   3.519  19.290  0.00  0.00    +0.000 A 
ATOM     12  C   UNL     1       3.448   2.909  20.388  0.00  0.00    +0.000 A 
ENDBRANCH   1  10
BRANCH   3  13
ATOM     13  C   UNL     1       5.852   4.740  14.334  0.00  0.00    +0.000 A 
ATOM     14  C   UNL     1       7.125   5.266  14.067  0.00  0.00    +0.000 A 
ATOM     15  C   UNL     1       7.842   4.844  12.945  0.00  0.00    +0.000 A 
ATOM     16  C   UNL     1       7.293   3.900  12.080  0.00  0.00    +0.000 A 
ATOM     17  C   UNL     1       6.027   3.374  12.336  0.00  0.00    +0.000 A 
ATOM     18  C   UNL     1       5.306   3.788  13.458  0.00  0.00    +0.000 A 
ENDBRANCH   3  13
BRANCH   5  19
ATOM     19  C   UNL     1       3.748   7.525  17.869  0.00  0.00    +0.000 C 
ATOM     20  N   UNL     1       2.670   8.156  17.536  0.00  0.00    +0.000 NA
BRANCH  20  21
ATOM     21  O   UNL     1       2.508   9.249  18.408  0.00  0.00    +0.000 OA
BRANCH  21  22
ATOM     22  C   UNL     1       1.120   9.366  18.755  0.00  0.00    +0.000 C 
BRANCH  22  23
ATOM     23  C   UNL     1       0.663  10.805  18.663  0.00  0.00    +0.000 A 
ATOM     24  C   UNL     1       1.596  11.855  18.761  0.00  0.00    +0.000 A 
ATOM     25  C   UNL     1       1.190  13.190  18.680  0.00  0.00    +0.000 A 
ATOM     26  C   UNL     1      -0.151  13.503  18.488  0.00  0.00    +0.000 A 
ATOM     27  C   UNL     1      -1.084  12.477  18.346  0.00  0.00    +0.000 A 
ATOM     28  C   UNL     1      -0.679  11.139  18.416  0.00  0.00    +0.000 A 
ATOM     29 CL   UNL     1      -1.894   9.934  18.162  0.00  0.00    +0.000 Cl
ENDBRANCH  22  23
ENDBRANCH  21  22
ENDBRANCH  20  21
ENDBRANCH   5  19
TORSDOF 6
ENDMDL
MODEL 9
REMARK VINA RESULT:      -8.1      2.599      7.746
REMARK  Name = 
REMARK  7 active torsions:
REMARK  status: ('A' for Active; 'I' for Inactive)
REMARK    1  A    between atoms: C_1  and  C_2
REMARK    2  A    between atoms: C_5  and  C_6
REMARK    3  A    between atoms: N_8  and  C_9
REMARK    4  A    between atoms: C_16  and  C_17
REMARK    5  A    between atoms: N_18  and  O_19
REMARK    6  A    between atoms: O_19  and  C_20
REMARK    7  A    between atoms: C_20  and  C_21
REMARK                            x       y       z     vdW  Elec       q    Type
REMARK                         _______ _______ _______ _____ _____    ______ ____
ROOT
ATOM      1  C   UNL     1       2.271   6.869  19.235  0.00  0.00    +0.000 A 
ATOM      2  N   UNL     1       1.642   7.310  20.338  0.00  0.00    +0.000 NA
ATOM      3  N   UNL     1       1.358   8.616  20.098  0.00  0.00    +0.000 N 
ATOM      4  C   UNL     1       1.853   9.019  18.882  0.00  0.00    +0.000 A 
ATOM      5  C   UNL     1       2.481   7.934  18.311  0.00  0.00    +0.000 A 
ENDROOT
BRANCH   1  10
ATOM      6  C   UNL     1       3.645   1.273  18.610  0.00  0.00    +0.000 C 
ATOM      7  C   UNL     1       3.286   2.721  18.777  0.00  0.00    +0.000 A 
ATOM      8  C   UNL     1       4.054   3.551  19.595  0.00  0.00    +0.000 A 
ATOM      9  C   UNL     1       3.728   4.902  19.733  0.00  0.00    +0.000 A 
ATOM     10  C   UNL     1       2.611   5.446  19.081  0.00  0.00    +0.000 A 
ATOM     11  C   UNL     1       1.851   4.612  18.251  0.00  0.00    +0.000 A 
ATOM     12  C   UNL     1       2.188   3.261  18.100  0.00  0.00    +0.000 A 
ENDBRANCH   1  10
BRANCH   3  13
ATOM     13  C   UNL     1       0.633   9.390  21.050  0.00  0.00    +0.000 A 
ATOM     14  C   UNL     1       0.244  10.699  20.728  0.00  0.00    +0.000 A 
ATOM     15  C   UNL     1      -0.467  11.470  21.650  0.00  0.00    +0.000 A 
ATOM     16  C   UNL     1      -0.790  10.944  22.899  0.00  0.00    +0.000 A 
ATOM     17  C   UNL     1      -0.404   9.645  23.228  0.00  0.00    +0.000 A 
ATOM     18  C   UNL     1       0.304   8.867  22.310  0.00  0.00    +0.000 A 
ENDBRANCH   3  13
BRANCH   5  19
ATOM     19  C   UNL     1       3.170   7.903  17.045  0.00  0.00    +0.000 C 
ATOM     20  N   UNL     1       4.166   7.096  16.876  0.00  0.00    +0.000 NA
BRANCH  20  21
ATOM     21  O   UNL     1       4.716   7.331  15.602  0.00  0.00    +0.000 OA
BRANCH  21  22
ATOM     22  C   UNL     1       5.740   6.356  15.350  0.00  0.00    +0.000 C 
BRANCH  22  23
ATOM     23  C   UNL     1       6.538   6.082  16.605  0.00  0.00    +0.000 A 
ATOM     24  C   UNL     1       7.157   7.138  17.300  0.00  0.00    +0.000 A 
ATOM     25  C   UNL     1       7.900   6.901  18.460  0.00  0.00    +0.000 A 
ATOM     26  C   UNL     1       8.029   5.609  18.956  0.00  0.00    +0.000 A 
ATOM     27  C   UNL     1       7.390   4.555  18.306  0.00  0.00    +0.000 A 
ATOM     28  C   UNL     1       6.636   4.790  17.150  0.00  0.00    +0.000 A 
ATOM     29 CL   UNL     1       5.823   3.434  16.450  0.00  0.00    +0.000 Cl
ENDBRANCH  22  23
ENDBRANCH  21  22
ENDBRANCH  20  21
ENDBRANCH   5  19
TORSDOF 6
ENDMDL
