MODEL 1
REMARK VINA RESULT:      -8.5      0.000      0.000
REMARK  Name = 
REMARK  3 active torsions:
REMARK  status: ('A' for Active; 'I' for Inactive)
REMARK    1  A    between atoms: C_2  and  C_17
REMARK    2  A    between atoms: N_3  and  C_4
REMARK    3  A    between atoms: N_12  and  O_13
REMARK                            x       y       z     vdW  Elec       q    Type
REMARK                         _______ _______ _______ _____ _____    ______ ____
ROOT
ATOM      1  C   UNL     1       2.738   6.423  18.762  0.00  0.00    +0.000 A 
ATOM      2  C   UNL     1       2.281   5.116  18.555  0.00  0.00    +0.000 A 
ATOM      3  C   UNL     1       2.940   4.248  17.684  0.00  0.00    +0.000 A 
ATOM      4  C   UNL     1       4.088   4.666  17.009  0.00  0.00    +0.000 A 
ATOM      5  C   UNL     1       4.560   5.965  17.226  0.00  0.00    +0.000 A 
ATOM      6  C   UNL     1       3.860   6.859  18.055  0.00  0.00    +0.000 A 
ATOM      7  C   UNL     1       5.865   6.369  16.663  0.00  0.00    +0.000 C 
ATOM      8  O   UNL     1       6.316   7.493  16.886  0.00  0.00    +0.000 OA
ATOM      9  N   UNL     1       6.527   5.404  15.917  0.00  0.00    +0.000 N 
ATOM     10  C   UNL     1       5.980   4.264  15.354  0.00  0.00    +0.000 C 
ATOM     11  O   UNL     1       6.407   3.701  14.345  0.00  0.00    +0.000 OA
ATOM     12  C   UNL     1       4.793   3.703  16.098  0.00  0.00    +0.000 C 
ENDROOT
BRANCH   1  15
ATOM     13  O   UNL     1       1.455   8.964  18.185  0.00  0.00    +0.000 OA
ATOM     14  C   UNL     1       1.561   8.521  19.326  0.00  0.00    +0.000 C 
ATOM     15  N   UNL     1       2.125   7.307  19.680  0.00  0.00    +0.000 N 
ATOM     16  H   UNL     1       1.919   6.946  20.604  0.00  0.00    +0.000 HD
BRANCH  14  17
ATOM     17  C   UNL     1       0.967   9.340  20.410  0.00  0.00    +0.000 A 
ATOM     18  C   UNL     1       0.673   8.685  21.617  0.00  0.00    +0.000 A 
ATOM     19  C   UNL     1      -0.010   9.359  22.632  0.00  0.00    +0.000 A 
ATOM     20  C   UNL     1      -0.394  10.677  22.432  0.00  0.00    +0.000 A 
ATOM     21  F   UNL     1      -1.082  11.313  23.388  0.00  0.00    +0.000 F 
ATOM     22  C   UNL     1      -0.094  11.342  21.244  0.00  0.00    +0.000 A 
ATOM     23  C   UNL     1       0.592  10.674  20.224  0.00  0.00    +0.000 A 
ENDBRANCH  14  17
ENDBRANCH   1  15
BRANCH   9  24
ATOM     24  O   UNL     1       7.723   5.858  15.315  0.00  0.00    +0.000 OA
ATOM     25  H   UNL     1       7.432   6.000  14.394  0.00  0.00    +0.000 HD
ENDBRANCH   9  24
TORSDOF 3
ENDMDL
MODEL 2
REMARK VINA RESULT:      -8.1      0.256      1.018
REMARK  Name = 
REMARK  3 active torsions:
REMARK  status: ('A' for Active; 'I' for Inactive)
REMARK    1  A    between atoms: C_2  and  C_17
REMARK    2  A    between atoms: N_3  and  C_4
REMARK    3  A    between atoms: N_12  and  O_13
REMARK                            x       y       z     vdW  Elec       q    Type
REMARK                         _______ _______ _______ _____ _____    ______ ____
ROOT
ATOM      1  C   UNL     1       2.611   6.326  18.717  0.00  0.00    +0.000 A 
ATOM      2  C   UNL     1       2.201   5.007  18.488  0.00  0.00    +0.000 A 
ATOM      3  C   UNL     1       2.914   4.165  17.635  0.00  0.00    +0.000 A 
ATOM      4  C   UNL     1       4.071   4.621  17.001  0.00  0.00    +0.000 A 
ATOM      5  C   UNL     1       4.497   5.932  17.241  0.00  0.00    +0.000 A 
ATOM      6  C   UNL     1       3.743   6.799  18.051  0.00  0.00    +0.000 A 
ATOM      7  C   UNL     1       5.807   6.378  16.725  0.00  0.00    +0.000 C 
ATOM      8  O   UNL     1       6.217   7.513  16.969  0.00  0.00    +0.000 OA
ATOM      9  N   UNL     1       6.522   5.438  15.996  0.00  0.00    +0.000 N 
ATOM     10  C   UNL     1       6.029   4.286  15.409  0.00  0.00    +0.000 C 
ATOM     11  O   UNL     1       6.506   3.744  14.411  0.00  0.00    +0.000 OA
ATOM     12  C   UNL     1       4.835   3.686  16.109  0.00  0.00    +0.000 C 
ENDROOT
BRANCH   1  15
ATOM     13  O   UNL     1       1.444   8.924  18.151  0.00  0.00    +0.000 OA
ATOM     14  C   UNL     1       1.440   8.429  19.275  0.00  0.00    +0.000 C 
ATOM     15  N   UNL     1       1.942   7.185  19.619  0.00  0.00    +0.000 N 
ATOM     16  H   UNL     1       1.648   6.789  20.504  0.00  0.00    +0.000 HD
BRANCH  14  17
ATOM     17  C   UNL     1       0.773   9.215  20.341  0.00  0.00    +0.000 A 
ATOM     18  C   UNL     1       0.173  10.426  19.961  0.00  0.00    +0.000 A 
ATOM     19  C   UNL     1      -0.353  11.282  20.931  0.00  0.00    +0.000 A 
ATOM     20  C   UNL     1      -0.274  10.922  22.269  0.00  0.00    +0.000 A 
ATOM     21  F   UNL     1      -0.744  11.758  23.203  0.00  0.00    +0.000 F 
ATOM     22  C   UNL     1       0.307   9.715  22.657  0.00  0.00    +0.000 A 
ATOM     23  C   UNL     1       0.834   8.852  21.690  0.00  0.00    +0.000 A 
ENDBRANCH  14  17
ENDBRANCH   1  15
BRANCH   9  24
ATOM     24  O   UNL     1       7.724   5.932  15.438  0.00  0.00    +0.000 OA
ATOM     25  H   UNL     1       8.239   6.135  16.242  0.00  0.00    +0.000 HD
ENDBRANCH   9  24
TORSDOF 3
ENDMDL
MODEL 3
REMARK VINA RESULT:      -7.9      0.991      1.392
REMARK  Name = 
REMARK  3 active torsions:
REMARK  status: ('A' for Active; 'I' for Inactive)
REMARK    1  A    between atoms: C_2  and  C_17
REMARK    2  A    between atoms: N_3  and  C_4
REMARK    3  A    between atoms: N_12  and  O_13
REMARK                            x       y       z     vdW  Elec       q    Type
REMARK                         _______ _______ _______ _____ _____    ______ ____
ROOT
ATOM      1  C   UNL     1       2.492   6.976  18.517  0.00  0.00    +0.000 A 
ATOM      2  C   UNL     1       2.021   5.657  18.481  0.00  0.00    +0.000 A 
ATOM      3  C   UNL     1       2.721   4.658  17.805  0.00  0.00    +0.000 A 
ATOM      4  C   UNL     1       3.923   4.952  17.161  0.00  0.00    +0.000 A 
ATOM      5  C   UNL     1       4.408   6.264  17.209  0.00  0.00    +0.000 A 
ATOM      6  C   UNL     1       3.671   7.284  17.836  0.00  0.00    +0.000 A 
ATOM      7  C   UNL     1       5.758   6.561  16.688  0.00  0.00    +0.000 C 
ATOM      8  O   UNL     1       6.218   7.700  16.768  0.00  0.00    +0.000 OA
ATOM      9  N   UNL     1       6.449   5.484  16.151  0.00  0.00    +0.000 N 
ATOM     10  C   UNL     1       5.919   4.276  15.732  0.00  0.00    +0.000 C 
ATOM     11  O   UNL     1       6.404   3.559  14.856  0.00  0.00    +0.000 OA
ATOM     12  C   UNL     1       4.670   3.851  16.464  0.00  0.00    +0.000 C 
ENDROOT
BRANCH   1  15
ATOM     13  O   UNL     1       1.378   6.814  21.193  0.00  0.00    +0.000 OA
ATOM     14  C   UNL     1       1.301   7.830  20.507  0.00  0.00    +0.000 C 
ATOM     15  N   UNL     1       1.835   7.999  19.240  0.00  0.00    +0.000 N 
ATOM     16  H   UNL     1       1.932   8.946  18.894  0.00  0.00    +0.000 HD
BRANCH  14  17
ATOM     17  C   UNL     1       0.632   8.999  21.126  0.00  0.00    +0.000 A 
ATOM     18  C   UNL     1       0.778  10.235  20.478  0.00  0.00    +0.000 A 
ATOM     19  C   UNL     1       0.290  11.401  21.075  0.00  0.00    +0.000 A 
ATOM     20  C   UNL     1      -0.334  11.320  22.311  0.00  0.00    +0.000 A 
ATOM     21  F   UNL     1      -0.769  12.441  22.902  0.00  0.00    +0.000 F 
ATOM     22  C   UNL     1      -0.498  10.095  22.957  0.00  0.00    +0.000 A 
ATOM     23  C   UNL     1      -0.014   8.924  22.365  0.00  0.00    +0.000 A 
ENDBRANCH  14  17
ENDBRANCH   1  15
BRANCH   9  24
ATOM     24  O   UNL     1       7.696   5.826  15.577  0.00  0.00    +0.000 OA
ATOM     25  H   UNL     1       8.274   5.831  16.364  0.00  0.00    +0.000 HD
ENDBRANCH   9  24
TORSDOF 3
ENDMDL
MODEL 4
REMARK VINA RESULT:      -7.9      3.966      8.551
REMARK  Name = 
REMARK  3 active torsions:
REMARK  status: ('A' for Active; 'I' for Inactive)
REMARK    1  A    between atoms: C_2  and  C_17
REMARK    2  A    between atoms: N_3  and  C_4
REMARK    3  A    between atoms: N_12  and  O_13
REMARK                            x       y       z     vdW  Elec       q    Type
REMARK                         _______ _______ _______ _____ _____    ______ ____
ROOT
ATOM      1  C   UNL     1       3.738   5.762  17.627  0.00  0.00    +0.000 A 
ATOM      2  C   UNL     1       3.523   5.039  18.808  0.00  0.00    +0.000 A 
ATOM      3  C   UNL     1       2.836   5.600  19.885  0.00  0.00    +0.000 A 
ATOM      4  C   UNL     1       2.331   6.898  19.799  0.00  0.00    +0.000 A 
ATOM      5  C   UNL     1       2.526   7.618  18.616  0.00  0.00    +0.000 A 
ATOM      6  C   UNL     1       3.273   7.076  17.555  0.00  0.00    +0.000 A 
ATOM      7  C   UNL     1       1.852   8.921  18.437  0.00  0.00    +0.000 C 
ATOM      8  O   UNL     1       1.976   9.544  17.381  0.00  0.00    +0.000 OA
ATOM      9  N   UNL     1       1.076   9.351  19.503  0.00  0.00    +0.000 N 
ATOM     10  C   UNL     1       1.130   8.901  20.810  0.00  0.00    +0.000 C 
ATOM     11  O   UNL     1       0.826   9.570  21.799  0.00  0.00    +0.000 OA
ATOM     12  C   UNL     1       1.573   7.467  20.963  0.00  0.00    +0.000 C 
ENDROOT
BRANCH   1  15
ATOM     13  O   UNL     1       6.241   6.602  16.419  0.00  0.00    +0.000 OA
ATOM     14  C   UNL     1       5.563   5.685  15.964  0.00  0.00    +0.000 C 
ATOM     15  N   UNL     1       4.380   5.203  16.499  0.00  0.00    +0.000 N 
ATOM     16  H   UNL     1       4.062   4.292  16.189  0.00  0.00    +0.000 HD
BRANCH  14  17
ATOM     17  C   UNL     1       6.103   4.993  14.769  0.00  0.00    +0.000 A 
ATOM     18  C   UNL     1       7.323   5.461  14.257  0.00  0.00    +0.000 A 
ATOM     19  C   UNL     1       7.823   4.949  13.058  0.00  0.00    +0.000 A 
ATOM     20  C   UNL     1       7.100   3.977  12.381  0.00  0.00    +0.000 A 
ATOM     21  F   UNL     1       7.559   3.511  11.212  0.00  0.00    +0.000 F 
ATOM     22  C   UNL     1       5.894   3.494  12.887  0.00  0.00    +0.000 A 
ATOM     23  C   UNL     1       5.389   4.001  14.089  0.00  0.00    +0.000 A 
ENDBRANCH  14  17
ENDBRANCH   1  15
BRANCH   9  24
ATOM     24  O   UNL     1       0.526  10.644  19.333  0.00  0.00    +0.000 OA
ATOM     25  H   UNL     1       1.328  11.171  19.155  0.00  0.00    +0.000 HD
ENDBRANCH   9  24
TORSDOF 3
ENDMDL
MODEL 5
REMARK VINA RESULT:      -7.8      2.788      3.692
REMARK  Name = 
REMARK  3 active torsions:
REMARK  status: ('A' for Active; 'I' for Inactive)
REMARK    1  A    between atoms: C_2  and  C_17
REMARK    2  A    between atoms: N_3  and  C_4
REMARK    3  A    between atoms: N_12  and  O_13
REMARK                            x       y       z     vdW  Elec       q    Type
REMARK                         _______ _______ _______ _____ _____    ______ ____
ROOT
ATOM      1  C   UNL     1       1.968   7.393  19.916  0.00  0.00    +0.000 A 
ATOM      2  C   UNL     1       2.739   7.633  18.771  0.00  0.00    +0.000 A 
ATOM      3  C   UNL     1       3.217   6.582  17.988  0.00  0.00    +0.000 A 
ATOM      4  C   UNL     1       2.921   5.261  18.325  0.00  0.00    +0.000 A 
ATOM      5  C   UNL     1       2.136   5.016  19.457  0.00  0.00    +0.000 A 
ATOM      6  C   UNL     1       1.707   6.071  20.281  0.00  0.00    +0.000 A 
ATOM      7  C   UNL     1       1.664   3.643  19.732  0.00  0.00    +0.000 C 
ATOM      8  O   UNL     1       0.932   3.420  20.697  0.00  0.00    +0.000 OA
ATOM      9  N   UNL     1       2.072   2.671  18.830  0.00  0.00    +0.000 N 
ATOM     10  C   UNL     1       3.121   2.754  17.931  0.00  0.00    +0.000 C 
ATOM     11  O   UNL     1       3.767   1.793  17.509  0.00  0.00    +0.000 OA
ATOM     12  C   UNL     1       3.426   4.151  17.449  0.00  0.00    +0.000 C 
ENDROOT
BRANCH   1  15
ATOM     13  O   UNL     1       0.435   9.678  18.991  0.00  0.00    +0.000 OA
ATOM     14  C   UNL     1       0.726   9.513  20.172  0.00  0.00    +0.000 C 
ATOM     15  N   UNL     1       1.422   8.437  20.697  0.00  0.00    +0.000 N 
ATOM     16  H   UNL     1       1.370   8.288  21.698  0.00  0.00    +0.000 HD
BRANCH  14  17
ATOM     17  C   UNL     1       0.226  10.533  21.126  0.00  0.00    +0.000 A 
ATOM     18  C   UNL     1      -0.504  10.069  22.232  0.00  0.00    +0.000 A 
ATOM     19  C   UNL     1      -1.120  10.977  23.095  0.00  0.00    +0.000 A 
ATOM     20  C   UNL     1      -1.003  12.337  22.846  0.00  0.00    +0.000 A 
ATOM     21  F   UNL     1      -1.624  13.209  23.651  0.00  0.00    +0.000 F 
ATOM     22  C   UNL     1      -0.269  12.810  21.759  0.00  0.00    +0.000 A 
ATOM     23  C   UNL     1       0.353  11.906  20.891  0.00  0.00    +0.000 A 
ENDBRANCH  14  17
ENDBRANCH   1  15
BRANCH   9  24
ATOM     24  O   UNL     1       1.681   1.357  19.180  0.00  0.00    +0.000 OA
ATOM     25  H   UNL     1       1.342   1.025  18.327  0.00  0.00    +0.000 HD
ENDBRANCH   9  24
TORSDOF 3
ENDMDL
MODEL 6
REMARK VINA RESULT:      -7.6      4.741      6.715
REMARK  Name = 
REMARK  3 active torsions:
REMARK  status: ('A' for Active; 'I' for Inactive)
REMARK    1  A    between atoms: C_2  and  C_17
REMARK    2  A    between atoms: N_3  and  C_4
REMARK    3  A    between atoms: N_12  and  O_13
REMARK                            x       y       z     vdW  Elec       q    Type
REMARK                         _______ _______ _______ _____ _____    ______ ____
ROOT
ATOM      1  C   UNL     1       6.536   7.024  17.195  0.00  0.00    +0.000 A 
ATOM      2  C   UNL     1       7.128   5.952  16.515  0.00  0.00    +0.000 A 
ATOM      3  C   UNL     1       6.464   4.735  16.365  0.00  0.00    +0.000 A 
ATOM      4  C   UNL     1       5.178   4.566  16.880  0.00  0.00    +0.000 A 
ATOM      5  C   UNL     1       4.573   5.640  17.544  0.00  0.00    +0.000 A 
ATOM      6  C   UNL     1       5.268   6.845  17.750  0.00  0.00    +0.000 A 
ATOM      7  C   UNL     1       3.153   5.544  17.941  0.00  0.00    +0.000 C 
ATOM      8  O   UNL     1       2.594   6.498  18.482  0.00  0.00    +0.000 OA
ATOM      9  N   UNL     1       2.520   4.348  17.636  0.00  0.00    +0.000 N 
ATOM     10  C   UNL     1       3.121   3.138  17.336  0.00  0.00    +0.000 C 
ATOM     11  O   UNL     1       2.620   2.031  17.542  0.00  0.00    +0.000 OA
ATOM     12  C   UNL     1       4.475   3.255  16.681  0.00  0.00    +0.000 C 
ENDROOT
BRANCH   1  15
ATOM     13  O   UNL     1       8.675   7.775  19.009  0.00  0.00    +0.000 OA
ATOM     14  C   UNL     1       8.157   8.573  18.232  0.00  0.00    +0.000 C 
ATOM     15  N   UNL     1       7.160   8.287  17.314  0.00  0.00    +0.000 N 
ATOM     16  H   UNL     1       7.006   8.953  16.567  0.00  0.00    +0.000 HD
BRANCH  14  17
ATOM     17  C   UNL     1       8.702   9.952  18.239  0.00  0.00    +0.000 A 
ATOM     18  C   UNL     1       9.737  10.225  19.148  0.00  0.00    +0.000 A 
ATOM     19  C   UNL     1      10.205  11.531  19.306  0.00  0.00    +0.000 A 
ATOM     20  C   UNL     1       9.635  12.551  18.556  0.00  0.00    +0.000 A 
ATOM     21  F   UNL     1      10.057  13.810  18.733  0.00  0.00    +0.000 F 
ATOM     22  C   UNL     1       8.618  12.290  17.640  0.00  0.00    +0.000 A 
ATOM     23  C   UNL     1       8.146  10.983  17.475  0.00  0.00    +0.000 A 
ENDBRANCH  14  17
ENDBRANCH   1  15
BRANCH   9  24
ATOM     24  O   UNL     1       1.193   4.258  18.117  0.00  0.00    +0.000 OA
ATOM     25  H   UNL     1       0.684   4.304  17.285  0.00  0.00    +0.000 HD
ENDBRANCH   9  24
TORSDOF 3
ENDMDL
MODEL 7
REMARK VINA RESULT:      -7.6      4.039      8.568
REMARK  Name = 
REMARK  3 active torsions:
REMARK  status: ('A' for Active; 'I' for Inactive)
REMARK    1  A    between atoms: C_2  and  C_17
REMARK    2  A    between atoms: N_3  and  C_4
REMARK    3  A    between atoms: N_12  and  O_13
REMARK                            x       y       z     vdW  Elec       q    Type
REMARK                         _______ _______ _______ _____ _____    ______ ____
ROOT
ATOM      1  C   UNL     1       3.854   5.569  17.430  0.00  0.00    +0.000 A 
ATOM      2  C   UNL     1       3.678   4.761  18.561  0.00  0.00    +0.000 A 
ATOM      3  C   UNL     1       3.018   5.236  19.694  0.00  0.00    +0.000 A 
ATOM      4  C   UNL     1       2.500   6.532  19.716  0.00  0.00    +0.000 A 
ATOM      5  C   UNL     1       2.656   7.337  18.582  0.00  0.00    +0.000 A 
ATOM      6  C   UNL     1       3.377   6.881  17.465  0.00  0.00    +0.000 A 
ATOM      7  C   UNL     1       1.967   8.643  18.516  0.00  0.00    +0.000 C 
ATOM      8  O   UNL     1       2.056   9.341  17.506  0.00  0.00    +0.000 OA
ATOM      9  N   UNL     1       1.217   8.988  19.631  0.00  0.00    +0.000 N 
ATOM     10  C   UNL     1       1.311   8.446  20.901  0.00  0.00    +0.000 C 
ATOM     11  O   UNL     1       1.030   9.038  21.943  0.00  0.00    +0.000 OA
ATOM     12  C   UNL     1       1.770   7.009  20.938  0.00  0.00    +0.000 C 
ENDROOT
BRANCH   1  15
ATOM     13  O   UNL     1       6.240   6.609  16.143  0.00  0.00    +0.000 OA
ATOM     14  C   UNL     1       5.594   5.673  15.679  0.00  0.00    +0.000 C 
ATOM     15  N   UNL     1       4.469   5.098  16.247  0.00  0.00    +0.000 N 
ATOM     16  H   UNL     1       4.189   4.185  15.911  0.00  0.00    +0.000 HD
BRANCH  14  17
ATOM     17  C   UNL     1       6.111   5.068  14.428  0.00  0.00    +0.000 A 
ATOM     18  C   UNL     1       5.332   4.060  13.837  0.00  0.00    +0.000 A 
ATOM     19  C   UNL     1       5.821   3.353  12.736  0.00  0.00    +0.000 A 
ATOM     20  C   UNL     1       7.080   3.656  12.238  0.00  0.00    +0.000 A 
ATOM     21  F   UNL     1       7.566   2.954  11.207  0.00  0.00    +0.000 F 
ATOM     22  C   UNL     1       7.856   4.665  12.808  0.00  0.00    +0.000 A 
ATOM     23  C   UNL     1       7.372   5.379  13.909  0.00  0.00    +0.000 A 
ENDBRANCH  14  17
ENDBRANCH   1  15
BRANCH   9  24
ATOM     24  O   UNL     1       0.653  10.283  19.570  0.00  0.00    +0.000 OA
ATOM     25  H   UNL     1       1.428  10.817  19.310  0.00  0.00    +0.000 HD
ENDBRANCH   9  24
TORSDOF 3
ENDMDL
MODEL 8
REMARK VINA RESULT:      -7.5      2.026      2.819
REMARK  Name = 
REMARK  3 active torsions:
REMARK  status: ('A' for Active; 'I' for Inactive)
REMARK    1  A    between atoms: C_2  and  C_17
REMARK    2  A    between atoms: N_3  and  C_4
REMARK    3  A    between atoms: N_12  and  O_13
REMARK                            x       y       z     vdW  Elec       q    Type
REMARK                         _______ _______ _______ _____ _____    ______ ____
ROOT
ATOM      1  C   UNL     1       2.316   7.606  19.236  0.00  0.00    +0.000 A 
ATOM      2  C   UNL     1       2.894   8.227  18.122  0.00  0.00    +0.000 A 
ATOM      3  C   UNL     1       3.675   7.507  17.217  0.00  0.00    +0.000 A 
ATOM      4  C   UNL     1       3.882   6.140  17.398  0.00  0.00    +0.000 A 
ATOM      5  C   UNL     1       3.291   5.510  18.499  0.00  0.00    +0.000 A 
ATOM      6  C   UNL     1       2.558   6.247  19.445  0.00  0.00    +0.000 A 
ATOM      7  C   UNL     1       3.350   4.038  18.614  0.00  0.00    +0.000 C 
ATOM      8  O   UNL     1       2.793   3.466  19.551  0.00  0.00    +0.000 OA
ATOM      9  N   UNL     1       4.031   3.379  17.601  0.00  0.00    +0.000 N 
ATOM     10  C   UNL     1       4.938   3.927  16.710  0.00  0.00    +0.000 C 
ATOM     11  O   UNL     1       5.860   3.312  16.173  0.00  0.00    +0.000 OA
ATOM     12  C   UNL     1       4.704   5.384  16.394  0.00  0.00    +0.000 C 
ENDROOT
BRANCH   1  15
ATOM     13  O   UNL     1       0.573   9.856  18.663  0.00  0.00    +0.000 OA
ATOM     14  C   UNL     1       0.693   9.385  19.791  0.00  0.00    +0.000 C 
ATOM     15  N   UNL     1       1.474   8.295  20.139  0.00  0.00    +0.000 N 
ATOM     16  H   UNL     1       1.288   7.851  21.031  0.00  0.00    +0.000 HD
BRANCH  14  17
ATOM     17  C   UNL     1      -0.127  10.005  20.859  0.00  0.00    +0.000 A 
ATOM     18  C   UNL     1      -0.790  11.201  20.541  0.00  0.00    +0.000 A 
ATOM     19  C   UNL     1      -1.469  11.911  21.533  0.00  0.00    +0.000 A 
ATOM     20  C   UNL     1      -1.477  11.423  22.833  0.00  0.00    +0.000 A 
ATOM     21  F   UNL     1      -2.096  12.121  23.793  0.00  0.00    +0.000 F 
ATOM     22  C   UNL     1      -0.835  10.229  23.157  0.00  0.00    +0.000 A 
ATOM     23  C   UNL     1      -0.155   9.511  22.167  0.00  0.00    +0.000 A 
ENDBRANCH  14  17
ENDBRANCH   1  15
BRANCH   9  24
ATOM     24  O   UNL     1       4.148   1.983  17.796  0.00  0.00    +0.000 OA
ATOM     25  H   UNL     1       3.543   1.844  18.549  0.00  0.00    +0.000 HD
ENDBRANCH   9  24
TORSDOF 3
ENDMDL
MODEL 9
REMARK VINA RESULT:      -7.5      2.673      3.776
REMARK  Name = 
REMARK  3 active torsions:
REMARK  status: ('A' for Active; 'I' for Inactive)
REMARK    1  A    between atoms: C_2  and  C_17
REMARK    2  A    between atoms: N_3  and  C_4
REMARK    3  A    between atoms: N_12  and  O_13
REMARK                            x       y       z     vdW  Elec       q    Type
REMARK                         _______ _______ _______ _____ _____    ______ ____
ROOT
ATOM      1  C   UNL     1       1.483   8.641  19.390  0.00  0.00    +0.000 A 
ATOM      2  C   UNL     1       2.186   8.874  18.201  0.00  0.00    +0.000 A 
ATOM      3  C   UNL     1       3.105   7.946  17.712  0.00  0.00    +0.000 A 
ATOM      4  C   UNL     1       3.332   6.751  18.395  0.00  0.00    +0.000 A 
ATOM      5  C   UNL     1       2.619   6.505  19.573  0.00  0.00    +0.000 A 
ATOM      6  C   UNL     1       1.740   7.467  20.100  0.00  0.00    +0.000 A 
ATOM      7  C   UNL     1       2.711   5.177  20.216  0.00  0.00    +0.000 C 
ATOM      8  O   UNL     1       2.052   4.930  21.227  0.00  0.00    +0.000 OA
ATOM      9  N   UNL     1       3.545   4.261  19.593  0.00  0.00    +0.000 N 
ATOM     10  C   UNL     1       4.545   4.531  18.675  0.00  0.00    +0.000 C 
ATOM     11  O   UNL     1       5.552   3.841  18.505  0.00  0.00    +0.000 OA
ATOM     12  C   UNL     1       4.308   5.759  17.832  0.00  0.00    +0.000 C 
ENDROOT
BRANCH   1  15
ATOM     13  O   UNL     1       1.465  10.011  21.950  0.00  0.00    +0.000 OA
ATOM     14  C   UNL     1       0.553  10.124  21.134  0.00  0.00    +0.000 C 
ATOM     15  N   UNL     1       0.503   9.535  19.882  0.00  0.00    +0.000 N 
ATOM     16  H   UNL     1      -0.160   9.909  19.214  0.00  0.00    +0.000 HD
BRANCH  14  17
ATOM     17  C   UNL     1      -0.559  11.031  21.506  0.00  0.00    +0.000 A 
ATOM     18  C   UNL     1      -0.974  11.015  22.848  0.00  0.00    +0.000 A 
ATOM     19  C   UNL     1      -2.101  11.740  23.241  0.00  0.00    +0.000 A 
ATOM     20  C   UNL     1      -2.803  12.471  22.292  0.00  0.00    +0.000 A 
ATOM     21  F   UNL     1      -3.906  13.136  22.660  0.00  0.00    +0.000 F 
ATOM     22  C   UNL     1      -2.392  12.505  20.961  0.00  0.00    +0.000 A 
ATOM     23  C   UNL     1      -1.263  11.784  20.561  0.00  0.00    +0.000 A 
ENDBRANCH  14  17
ENDBRANCH   1  15
BRANCH   9  24
ATOM     24  O   UNL     1       3.682   3.037  20.290  0.00  0.00    +0.000 OA
ATOM     25  H   UNL     1       2.872   2.568  20.012  0.00  0.00    +0.000 HD
ENDBRANCH   9  24
TORSDOF 3
ENDMDL
