MODEL 1
REMARK VINA RESULT:      -6.0      0.000      0.000
REMARK  Name = 
REMARK  9 active torsions:
REMARK  status: ('A' for Active; 'I' for Inactive)
REMARK    1  A    between atoms: C_1  and  N_2
REMARK    2  A    between atoms: N_2  and  C_3
REMARK    3  A    between atoms: N_2  and  C_4
REMARK    4  A    between atoms: C_4  and  C_5
REMARK    5  A    between atoms: C_5  and  N_6
REMARK    6  A    between atoms: N_6  and  C_7
REMARK    7  A    between atoms: C_7  and  C_8
REMARK    8  A    between atoms: C_8  and  S_9
REMARK    9  A    between atoms: S_9  and  C_12
REMARK                            x       y       z     vdW  Elec       q    Type
REMARK                         _______ _______ _______ _____ _____    ______ ____
ROOT
ATOM      1  C   UNL     1       5.424   5.354  16.972  0.00  0.00    +0.000 C 
ENDROOT
BRANCH   1   2
ATOM      2  S   UNL     1       7.116   5.388  16.404  0.00  0.00    +0.000 S 
ATOM      3  O   UNL     1       7.570   6.767  16.371  0.00  0.00    +0.000 OA
ATOM      4  O   UNL     1       7.870   4.378  17.122  0.00  0.00    +0.000 OA
BRANCH   2   5
ATOM      5  C   UNL     1       6.967   4.847  14.723  0.00  0.00    +0.000 A 
ATOM      6  C   UNL     1       7.780   5.416  13.742  0.00  0.00    +0.000 A 
ATOM      7  C   UNL     1       7.637   5.008  12.418  0.00  0.00    +0.000 A 
ATOM      8  C   UNL     1       6.694   4.034  12.086  0.00  0.00    +0.000 A 
ATOM      9  C   UNL     1       5.900   3.453  13.076  0.00  0.00    +0.000 A 
ATOM     10  C   UNL     1       6.036   3.854  14.403  0.00  0.00    +0.000 A 
ENDBRANCH   2   5
ENDBRANCH   1   2
BRANCH   1  11
ATOM     11  C   UNL     1       5.400   4.915  18.425  0.00  0.00    +0.000 C 
BRANCH  11  12
ATOM     12  N   UNL     1       5.406   3.449  18.545  0.00  0.00    +0.000 NA
ATOM     13  H   UNL     1       5.103   3.050  17.650  0.00  0.00    +0.000 HD
BRANCH  12  14
ATOM     14  C   UNL     1       4.404   3.012  19.537  0.00  0.00    +0.000 C 
BRANCH  14  15
ATOM     15  C   UNL     1       3.284   4.053  19.801  0.00  0.00    +0.000 C 
BRANCH  15  17
ATOM     16  C   UNL     1       0.894   4.003  20.215  0.00  0.00    +0.000 C 
ATOM     17  N   UNL     1       1.960   3.647  19.276  0.00  0.00    +0.000 NA
ATOM     18  C   UNL     1       1.718   4.307  17.988  0.00  0.00    +0.000 C 
ENDBRANCH  15  17
ENDBRANCH  14  15
ENDBRANCH  12  14
ENDBRANCH  11  12
ENDBRANCH   1  11
TORSDOF 7
ENDMDL
MODEL 2
REMARK VINA RESULT:      -5.9      1.021      1.137
REMARK  Name = 
REMARK  9 active torsions:
REMARK  status: ('A' for Active; 'I' for Inactive)
REMARK    1  A    between atoms: C_1  and  N_2
REMARK    2  A    between atoms: N_2  and  C_3
REMARK    3  A    between atoms: N_2  and  C_4
REMARK    4  A    between atoms: C_4  and  C_5
REMARK    5  A    between atoms: C_5  and  N_6
REMARK    6  A    between atoms: N_6  and  C_7
REMARK    7  A    between atoms: C_7  and  C_8
REMARK    8  A    between atoms: C_8  and  S_9
REMARK    9  A    between atoms: S_9  and  C_12
REMARK                            x       y       z     vdW  Elec       q    Type
REMARK                         _______ _______ _______ _____ _____    ______ ____
ROOT
ATOM      1  C   UNL     1       5.094   4.021  16.556  0.00  0.00    +0.000 C 
ENDROOT
BRANCH   1   2
ATOM      2  S   UNL     1       6.513   5.029  16.156  0.00  0.00    +0.000 S 
ATOM      3  O   UNL     1       6.139   6.427  16.274  0.00  0.00    +0.000 OA
ATOM      4  O   UNL     1       7.667   4.510  16.864  0.00  0.00    +0.000 OA
BRANCH   2   5
ATOM      5  C   UNL     1       6.748   4.693  14.433  0.00  0.00    +0.000 A 
ATOM      6  C   UNL     1       7.696   5.423  13.713  0.00  0.00    +0.000 A 
ATOM      7  C   UNL     1       7.855   5.176  12.352  0.00  0.00    +0.000 A 
ATOM      8  C   UNL     1       7.078   4.202  11.724  0.00  0.00    +0.000 A 
ATOM      9  C   UNL     1       6.149   3.460  12.455  0.00  0.00    +0.000 A 
ATOM     10  C   UNL     1       5.981   3.700  13.817  0.00  0.00    +0.000 A 
ENDBRANCH   2   5
ENDBRANCH   1   2
BRANCH   1  11
ATOM     11  C   UNL     1       4.714   4.255  18.006  0.00  0.00    +0.000 C 
BRANCH  11  12
ATOM     12  N   UNL     1       5.335   3.259  18.893  0.00  0.00    +0.000 NA
ATOM     13  H   UNL     1       5.668   2.477  18.319  0.00  0.00    +0.000 HD
BRANCH  12  14
ATOM     14  C   UNL     1       4.326   2.685  19.805  0.00  0.00    +0.000 C 
BRANCH  14  15
ATOM     15  C   UNL     1       2.878   2.734  19.252  0.00  0.00    +0.000 C 
BRANCH  15  17
ATOM     16  C   UNL     1       2.273   2.683  21.601  0.00  0.00    +0.000 C 
ATOM     17  N   UNL     1       1.868   3.123  20.263  0.00  0.00    +0.000 NA
ATOM     18  C   UNL     1       1.702   4.581  20.257  0.00  0.00    +0.000 C 
ENDBRANCH  15  17
ENDBRANCH  14  15
ENDBRANCH  12  14
ENDBRANCH  11  12
ENDBRANCH   1  11
TORSDOF 7
ENDMDL
MODEL 3
REMARK VINA RESULT:      -5.8      0.770      1.614
REMARK  Name = 
REMARK  9 active torsions:
REMARK  status: ('A' for Active; 'I' for Inactive)
REMARK    1  A    between atoms: C_1  and  N_2
REMARK    2  A    between atoms: N_2  and  C_3
REMARK    3  A    between atoms: N_2  and  C_4
REMARK    4  A    between atoms: C_4  and  C_5
REMARK    5  A    between atoms: C_5  and  N_6
REMARK    6  A    between atoms: N_6  and  C_7
REMARK    7  A    between atoms: C_7  and  C_8
REMARK    8  A    between atoms: C_8  and  S_9
REMARK    9  A    between atoms: S_9  and  C_12
REMARK                            x       y       z     vdW  Elec       q    Type
REMARK                         _______ _______ _______ _____ _____    ______ ____
ROOT
ATOM      1  C   UNL     1       5.422   4.336  16.917  0.00  0.00    +0.000 C 
ENDROOT
BRANCH   1   2
ATOM      2  S   UNL     1       6.924   5.082  16.303  0.00  0.00    +0.000 S 
ATOM      3  O   UNL     1       6.812   6.524  16.427  0.00  0.00    +0.000 OA
ATOM      4  O   UNL     1       8.058   4.377  16.868  0.00  0.00    +0.000 OA
BRANCH   2   5
ATOM      5  C   UNL     1       6.863   4.699  14.574  0.00  0.00    +0.000 A 
ATOM      6  C   UNL     1       5.936   3.765  14.108  0.00  0.00    +0.000 A 
ATOM      7  C   UNL     1       5.914   3.446  12.753  0.00  0.00    +0.000 A 
ATOM      8  C   UNL     1       6.806   4.065  11.875  0.00  0.00    +0.000 A 
ATOM      9  C   UNL     1       7.715   5.014  12.345  0.00  0.00    +0.000 A 
ATOM     10  C   UNL     1       7.746   5.340  13.700  0.00  0.00    +0.000 A 
ENDBRANCH   2   5
ENDBRANCH   1   2
BRANCH   1  11
ATOM     11  C   UNL     1       5.193   4.790  18.346  0.00  0.00    +0.000 C 
BRANCH  11  12
ATOM     12  N   UNL     1       5.437   3.701  19.304  0.00  0.00    +0.000 NA
ATOM     13  H   UNL     1       6.231   3.146  18.966  0.00  0.00    +0.000 HD
BRANCH  12  14
ATOM     14  C   UNL     1       4.286   2.777  19.334  0.00  0.00    +0.000 C 
BRANCH  14  15
ATOM     15  C   UNL     1       2.968   3.430  19.826  0.00  0.00    +0.000 C 
BRANCH  15  17
ATOM     16  C   UNL     1       2.245   2.500  17.705  0.00  0.00    +0.000 C 
ATOM     17  N   UNL     1       1.833   3.255  18.891  0.00  0.00    +0.000 NA
ATOM     18  C   UNL     1       0.742   2.546  19.568  0.00  0.00    +0.000 C 
ENDBRANCH  15  17
ENDBRANCH  14  15
ENDBRANCH  12  14
ENDBRANCH  11  12
ENDBRANCH   1  11
TORSDOF 7
ENDMDL
MODEL 4
REMARK VINA RESULT:      -5.7      0.690      1.424
REMARK  Name = 
REMARK  9 active torsions:
REMARK  status: ('A' for Active; 'I' for Inactive)
REMARK    1  A    between atoms: C_1  and  N_2
REMARK    2  A    between atoms: N_2  and  C_3
REMARK    3  A    between atoms: N_2  and  C_4
REMARK    4  A    between atoms: C_4  and  C_5
REMARK    5  A    between atoms: C_5  and  N_6
REMARK    6  A    between atoms: N_6  and  C_7
REMARK    7  A    between atoms: C_7  and  C_8
REMARK    8  A    between atoms: C_8  and  S_9
REMARK    9  A    between atoms: S_9  and  C_12
REMARK                            x       y       z     vdW  Elec       q    Type
REMARK                         _______ _______ _______ _____ _____    ______ ____
ROOT
ATOM      1  C   UNL     1       5.441   5.081  16.904  0.00  0.00    +0.000 C 
ENDROOT
BRANCH   1   2
ATOM      2  S   UNL     1       7.120   5.236  16.318  0.00  0.00    +0.000 S 
ATOM      3  O   UNL     1       7.501   6.636  16.359  0.00  0.00    +0.000 OA
ATOM      4  O   UNL     1       7.936   4.229  16.970  0.00  0.00    +0.000 OA
BRANCH   2   5
ATOM      5  C   UNL     1       6.975   4.782  14.612  0.00  0.00    +0.000 A 
ATOM      6  C   UNL     1       6.034   3.823  14.232  0.00  0.00    +0.000 A 
ATOM      7  C   UNL     1       5.944   3.449  12.894  0.00  0.00    +0.000 A 
ATOM      8  C   UNL     1       6.784   4.038  11.947  0.00  0.00    +0.000 A 
ATOM      9  C   UNL     1       7.707   5.013  12.330  0.00  0.00    +0.000 A 
ATOM     10  C   UNL     1       7.805   5.394  13.667  0.00  0.00    +0.000 A 
ENDBRANCH   2   5
ENDBRANCH   1   2
BRANCH   1  11
ATOM     11  C   UNL     1       5.453   4.420  18.269  0.00  0.00    +0.000 C 
BRANCH  11  12
ATOM     12  N   UNL     1       4.944   5.325  19.311  0.00  0.00    +0.000 NA
ATOM     13  H   UNL     1       5.549   5.244  20.134  0.00  0.00    +0.000 HD
BRANCH  12  14
ATOM     14  C   UNL     1       3.604   4.892  19.756  0.00  0.00    +0.000 C 
BRANCH  14  15
ATOM     15  C   UNL     1       3.285   3.407  19.440  0.00  0.00    +0.000 C 
BRANCH  15  17
ATOM     16  C   UNL     1       0.901   3.189  19.836  0.00  0.00    +0.000 C 
ATOM     17  N   UNL     1       1.956   3.204  18.819  0.00  0.00    +0.000 NA
ATOM     18  C   UNL     1       1.693   4.280  17.857  0.00  0.00    +0.000 C 
ENDBRANCH  15  17
ENDBRANCH  14  15
ENDBRANCH  12  14
ENDBRANCH  11  12
ENDBRANCH   1  11
TORSDOF 7
ENDMDL
MODEL 5
REMARK VINA RESULT:      -5.7      4.271      6.529
REMARK  Name = 
REMARK  9 active torsions:
REMARK  status: ('A' for Active; 'I' for Inactive)
REMARK    1  A    between atoms: C_1  and  N_2
REMARK    2  A    between atoms: N_2  and  C_3
REMARK    3  A    between atoms: N_2  and  C_4
REMARK    4  A    between atoms: C_4  and  C_5
REMARK    5  A    between atoms: C_5  and  N_6
REMARK    6  A    between atoms: N_6  and  C_7
REMARK    7  A    between atoms: C_7  and  C_8
REMARK    8  A    between atoms: C_8  and  S_9
REMARK    9  A    between atoms: S_9  and  C_12
REMARK                            x       y       z     vdW  Elec       q    Type
REMARK                         _______ _______ _______ _____ _____    ______ ____
ROOT
ATOM      1  C   UNL     1       3.205   2.497  18.305  0.00  0.00    +0.000 C 
ENDROOT
BRANCH   1   2
ATOM      2  S   UNL     1       1.699   2.975  19.138  0.00  0.00    +0.000 S 
ATOM      3  O   UNL     1       0.578   2.733  18.248  0.00  0.00    +0.000 OA
ATOM      4  O   UNL     1       1.712   2.422  20.479  0.00  0.00    +0.000 OA
BRANCH   2   5
ATOM      5  C   UNL     1       1.883   4.731  19.283  0.00  0.00    +0.000 A 
ATOM      6  C   UNL     1       2.259   5.479  18.165  0.00  0.00    +0.000 A 
ATOM      7  C   UNL     1       2.430   6.855  18.292  0.00  0.00    +0.000 A 
ATOM      8  C   UNL     1       2.219   7.473  19.525  0.00  0.00    +0.000 A 
ATOM      9  C   UNL     1       1.821   6.723  20.633  0.00  0.00    +0.000 A 
ATOM     10  C   UNL     1       1.647   5.345  20.516  0.00  0.00    +0.000 A 
ENDBRANCH   2   5
ENDBRANCH   1   2
BRANCH   1  11
ATOM     11  C   UNL     1       4.168   1.914  19.323  0.00  0.00    +0.000 C 
BRANCH  11  12
ATOM     12  N   UNL     1       5.194   2.893  19.715  0.00  0.00    +0.000 NA
ATOM     13  H   UNL     1       4.878   3.368  20.568  0.00  0.00    +0.000 HD
BRANCH  12  14
ATOM     14  C   UNL     1       5.314   3.948  18.690  0.00  0.00    +0.000 C 
BRANCH  14  15
ATOM     15  C   UNL     1       6.040   5.227  19.185  0.00  0.00    +0.000 C 
BRANCH  15  17
ATOM     16  C   UNL     1       7.666   4.466  17.552  0.00  0.00    +0.000 C 
ATOM     17  N   UNL     1       7.437   5.339  18.706  0.00  0.00    +0.000 NA
ATOM     18  C   UNL     1       7.718   6.730  18.330  0.00  0.00    +0.000 C 
ENDBRANCH  15  17
ENDBRANCH  14  15
ENDBRANCH  12  14
ENDBRANCH  11  12
ENDBRANCH   1  11
TORSDOF 7
ENDMDL
MODEL 6
REMARK VINA RESULT:      -5.6      2.865      3.734
REMARK  Name = 
REMARK  9 active torsions:
REMARK  status: ('A' for Active; 'I' for Inactive)
REMARK    1  A    between atoms: C_1  and  N_2
REMARK    2  A    between atoms: N_2  and  C_3
REMARK    3  A    between atoms: N_2  and  C_4
REMARK    4  A    between atoms: C_4  and  C_5
REMARK    5  A    between atoms: C_5  and  N_6
REMARK    6  A    between atoms: N_6  and  C_7
REMARK    7  A    between atoms: C_7  and  C_8
REMARK    8  A    between atoms: C_8  and  S_9
REMARK    9  A    between atoms: S_9  and  C_12
REMARK                            x       y       z     vdW  Elec       q    Type
REMARK                         _______ _______ _______ _____ _____    ______ ____
ROOT
ATOM      1  C   UNL     1       4.062   4.877  16.979  0.00  0.00    +0.000 C 
ENDROOT
BRANCH   1   2
ATOM      2  S   UNL     1       5.579   5.009  16.046  0.00  0.00    +0.000 S 
ATOM      3  O   UNL     1       6.131   3.679  15.863  0.00  0.00    +0.000 OA
ATOM      4  O   UNL     1       5.353   5.879  14.908  0.00  0.00    +0.000 OA
BRANCH   2   5
ATOM      5  C   UNL     1       6.646   5.868  17.170  0.00  0.00    +0.000 A 
ATOM      6  C   UNL     1       6.923   7.220  16.959  0.00  0.00    +0.000 A 
ATOM      7  C   UNL     1       7.786   7.882  17.829  0.00  0.00    +0.000 A 
ATOM      8  C   UNL     1       8.358   7.196  18.902  0.00  0.00    +0.000 A 
ATOM      9  C   UNL     1       8.058   5.849  19.119  0.00  0.00    +0.000 A 
ATOM     10  C   UNL     1       7.196   5.178  18.255  0.00  0.00    +0.000 A 
ENDBRANCH   2   5
ENDBRANCH   1   2
BRANCH   1  11
ATOM     11  C   UNL     1       3.802   3.416  17.294  0.00  0.00    +0.000 C 
BRANCH  11  12
ATOM     12  N   UNL     1       4.453   3.012  18.550  0.00  0.00    +0.000 NA
ATOM     13  H   UNL     1       5.217   2.366  18.325  0.00  0.00    +0.000 HD
BRANCH  12  14
ATOM     14  C   UNL     1       3.513   2.243  19.390  0.00  0.00    +0.000 C 
BRANCH  14  15
ATOM     15  C   UNL     1       2.019   2.534  19.091  0.00  0.00    +0.000 C 
BRANCH  15  17
ATOM     16  C   UNL     1       1.727   2.620  21.498  0.00  0.00    +0.000 C 
ATOM     17  N   UNL     1       1.305   3.184  20.213  0.00  0.00    +0.000 NA
ATOM     18  C   UNL     1       1.575   4.626  20.200  0.00  0.00    +0.000 C 
ENDBRANCH  15  17
ENDBRANCH  14  15
ENDBRANCH  12  14
ENDBRANCH  11  12
ENDBRANCH   1  11
TORSDOF 7
ENDMDL
MODEL 7
REMARK VINA RESULT:      -5.6      2.232      3.029
REMARK  Name = 
REMARK  9 active torsions:
REMARK  status: ('A' for Active; 'I' for Inactive)
REMARK    1  A    between atoms: C_1  and  N_2
REMARK    2  A    between atoms: N_2  and  C_3
REMARK    3  A    between atoms: N_2  and  C_4
REMARK    4  A    between atoms: C_4  and  C_5
REMARK    5  A    between atoms: C_5  and  N_6
REMARK    6  A    between atoms: N_6  and  C_7
REMARK    7  A    between atoms: C_7  and  C_8
REMARK    8  A    between atoms: C_8  and  S_9
REMARK    9  A    between atoms: S_9  and  C_12
REMARK                            x       y       z     vdW  Elec       q    Type
REMARK                         _______ _______ _______ _____ _____    ______ ____
ROOT
ATOM      1  C   UNL     1       4.620   3.210  19.223  0.00  0.00    +0.000 C 
ENDROOT
BRANCH   1   2
ATOM      2  S   UNL     1       5.274   4.866  19.088  0.00  0.00    +0.000 S 
ATOM      3  O   UNL     1       4.201   5.812  19.335  0.00  0.00    +0.000 OA
ATOM      4  O   UNL     1       6.513   4.941  19.838  0.00  0.00    +0.000 OA
BRANCH   2   5
ATOM      5  C   UNL     1       5.684   4.977  17.368  0.00  0.00    +0.000 A 
ATOM      6  C   UNL     1       6.789   4.279  16.877  0.00  0.00    +0.000 A 
ATOM      7  C   UNL     1       7.124   4.394  15.531  0.00  0.00    +0.000 A 
ATOM      8  C   UNL     1       6.353   5.195  14.685  0.00  0.00    +0.000 A 
ATOM      9  C   UNL     1       5.236   5.872  15.178  0.00  0.00    +0.000 A 
ATOM     10  C   UNL     1       4.893   5.763  16.525  0.00  0.00    +0.000 A 
ENDBRANCH   2   5
ENDBRANCH   1   2
BRANCH   1  11
ATOM     11  C   UNL     1       3.593   2.994  18.127  0.00  0.00    +0.000 C 
BRANCH  11  12
ATOM     12  N   UNL     1       2.936   1.684  18.255  0.00  0.00    +0.000 NA
ATOM     13  H   UNL     1       2.543   1.429  17.343  0.00  0.00    +0.000 HD
BRANCH  12  14
ATOM     14  C   UNL     1       1.786   1.775  19.176  0.00  0.00    +0.000 C 
BRANCH  14  15
ATOM     15  C   UNL     1       1.122   3.177  19.217  0.00  0.00    +0.000 C 
BRANCH  15  17
ATOM     16  C   UNL     1       1.666   2.884  21.564  0.00  0.00    +0.000 C 
ATOM     17  N   UNL     1       0.957   3.715  20.587  0.00  0.00    +0.000 NA
ATOM     18  C   UNL     1       1.477   5.086  20.642  0.00  0.00    +0.000 C 
ENDBRANCH  15  17
ENDBRANCH  14  15
ENDBRANCH  12  14
ENDBRANCH  11  12
ENDBRANCH   1  11
TORSDOF 7
ENDMDL
MODEL 8
REMARK VINA RESULT:      -5.5      1.109      1.361
REMARK  Name = 
REMARK  9 active torsions:
REMARK  status: ('A' for Active; 'I' for Inactive)
REMARK    1  A    between atoms: C_1  and  N_2
REMARK    2  A    between atoms: N_2  and  C_3
REMARK    3  A    between atoms: N_2  and  C_4
REMARK    4  A    between atoms: C_4  and  C_5
REMARK    5  A    between atoms: C_5  and  N_6
REMARK    6  A    between atoms: N_6  and  C_7
REMARK    7  A    between atoms: C_7  and  C_8
REMARK    8  A    between atoms: C_8  and  S_9
REMARK    9  A    between atoms: S_9  and  C_12
REMARK                            x       y       z     vdW  Elec       q    Type
REMARK                         _______ _______ _______ _____ _____    ______ ____
ROOT
ATOM      1  C   UNL     1       5.417   4.838  17.053  0.00  0.00    +0.000 C 
ENDROOT
BRANCH   1   2
ATOM      2  S   UNL     1       7.032   5.246  16.411  0.00  0.00    +0.000 S 
ATOM      3  O   UNL     1       7.191   6.689  16.432  0.00  0.00    +0.000 OA
ATOM      4  O   UNL     1       8.016   4.386  17.039  0.00  0.00    +0.000 OA
BRANCH   2   5
ATOM      5  C   UNL     1       6.904   4.759  14.712  0.00  0.00    +0.000 A 
ATOM      6  C   UNL     1       7.783   5.300  13.773  0.00  0.00    +0.000 A 
ATOM      7  C   UNL     1       7.659   4.936  12.434  0.00  0.00    +0.000 A 
ATOM      8  C   UNL     1       6.668   4.032  12.046  0.00  0.00    +0.000 A 
ATOM      9  C   UNL     1       5.807   3.478  12.995  0.00  0.00    +0.000 A 
ATOM     10  C   UNL     1       5.924   3.836  14.337  0.00  0.00    +0.000 A 
ENDBRANCH   2   5
ENDBRANCH   1   2
BRANCH   1  11
ATOM     11  C   UNL     1       4.807   6.078  17.679  0.00  0.00    +0.000 C 
BRANCH  11  12
ATOM     12  N   UNL     1       3.978   5.739  18.846  0.00  0.00    +0.000 NA
ATOM     13  H   UNL     1       4.211   6.386  19.607  0.00  0.00    +0.000 HD
BRANCH  12  14
ATOM     14  C   UNL     1       4.322   4.393  19.346  0.00  0.00    +0.000 C 
BRANCH  14  15
ATOM     15  C   UNL     1       3.092   3.544  19.764  0.00  0.00    +0.000 C 
BRANCH  15  17
ATOM     16  C   UNL     1       2.932   2.057  17.853  0.00  0.00    +0.000 C 
ATOM     17  N   UNL     1       2.257   3.106  18.623  0.00  0.00    +0.000 NA
ATOM     18  C   UNL     1       0.973   2.599  19.119  0.00  0.00    +0.000 C 
ENDBRANCH  15  17
ENDBRANCH  14  15
ENDBRANCH  12  14
ENDBRANCH  11  12
ENDBRANCH   1  11
TORSDOF 7
ENDMDL
MODEL 9
REMARK VINA RESULT:      -5.5      1.138      1.306
REMARK  Name = 
REMARK  9 active torsions:
REMARK  status: ('A' for Active; 'I' for Inactive)
REMARK    1  A    between atoms: C_1  and  N_2
REMARK    2  A    between atoms: N_2  and  C_3
REMARK    3  A    between atoms: N_2  and  C_4
REMARK    4  A    between atoms: C_4  and  C_5
REMARK    5  A    between atoms: C_5  and  N_6
REMARK    6  A    between atoms: N_6  and  C_7
REMARK    7  A    between atoms: C_7  and  C_8
REMARK    8  A    between atoms: C_8  and  S_9
REMARK    9  A    between atoms: S_9  and  C_12
REMARK                            x       y       z     vdW  Elec       q    Type
REMARK                         _______ _______ _______ _____ _____    ______ ____
ROOT
ATOM      1  C   UNL     1       6.977   4.437  17.399  0.00  0.00    +0.000 C 
ENDROOT
BRANCH   1   2
ATOM      2  S   UNL     1       6.572   5.793  16.309  0.00  0.00    +0.000 S 
ATOM      3  O   UNL     1       5.193   6.183  16.543  0.00  0.00    +0.000 OA
ATOM      4  O   UNL     1       7.638   6.774  16.369  0.00  0.00    +0.000 OA
BRANCH   2   5
ATOM      5  C   UNL     1       6.636   5.031  14.711  0.00  0.00    +0.000 A 
ATOM      6  C   UNL     1       7.654   5.382  13.822  0.00  0.00    +0.000 A 
ATOM      7  C   UNL     1       7.683   4.803  12.556  0.00  0.00    +0.000 A 
ATOM      8  C   UNL     1       6.705   3.876  12.191  0.00  0.00    +0.000 A 
ATOM      9  C   UNL     1       5.703   3.513  13.093  0.00  0.00    +0.000 A 
ATOM     10  C   UNL     1       5.666   4.088  14.362  0.00  0.00    +0.000 A 
ENDBRANCH   2   5
ENDBRANCH   1   2
BRANCH   1  11
ATOM     11  C   UNL     1       5.972   4.400  18.535  0.00  0.00    +0.000 C 
BRANCH  11  12
ATOM     12  N   UNL     1       4.857   3.488  18.239  0.00  0.00    +0.000 NA
ATOM     13  H   UNL     1       4.064   4.044  17.901  0.00  0.00    +0.000 HD
BRANCH  12  14
ATOM     14  C   UNL     1       4.387   2.833  19.477  0.00  0.00    +0.000 C 
BRANCH  14  15
ATOM     15  C   UNL     1       3.105   3.468  20.076  0.00  0.00    +0.000 C 
BRANCH  15  17
ATOM     16  C   UNL     1       1.354   2.700  21.571  0.00  0.00    +0.000 C 
ATOM     17  N   UNL     1       1.999   2.502  20.270  0.00  0.00    +0.000 NA
ATOM     18  C   UNL     1       1.007   2.670  19.202  0.00  0.00    +0.000 C 
ENDBRANCH  15  17
ENDBRANCH  14  15
ENDBRANCH  12  14
ENDBRANCH  11  12
ENDBRANCH   1  11
TORSDOF 7
ENDMDL
