MODEL 1
REMARK VINA RESULT:      -5.6      0.000      0.000
REMARK  Name = 
REMARK  5 active torsions:
REMARK  status: ('A' for Active; 'I' for Inactive)
REMARK    1  A    between atoms: C_1  and  O_2
REMARK    2  A    between atoms: O_2  and  C_3
REMARK    3  A    between atoms: C_3  and  C_5
REMARK    4  A    between atoms: C_5  and  N_6
REMARK    5  A    between atoms: C_7  and  C_9
REMARK                            x       y       z     vdW  Elec       q    Type
REMARK                         _______ _______ _______ _____ _____    ______ ____
ROOT
ATOM      1  N   UNL     1       6.058   4.098  18.278  0.00  0.00    +0.000 N 
ATOM      2  C   UNL     1       4.875   4.312  17.614  0.00  0.00    +0.000 C 
ATOM      3  O   UNL     1       4.785   5.115  16.688  0.00  0.00    +0.000 OA
ATOM      4  H   UNL     1       6.077   3.411  19.028  0.00  0.00    +0.000 HD
ENDROOT
BRANCH   2   5
ATOM      5  C   UNL     1       3.770   3.516  18.103  0.00  0.00    +0.000 A 
ATOM      6  C   UNL     1       2.662   2.999  17.456  0.00  0.00    +0.000 A 
ATOM      7  C   UNL     1       1.905   2.309  18.432  0.00  0.00    +0.000 A 
ATOM      8  C   UNL     1       2.591   2.444  19.616  0.00  0.00    +0.000 A 
ATOM      9  O   UNL     1       3.723   3.170  19.430  0.00  0.00    +0.000 OA
ENDBRANCH   2   5
BRANCH   1  10
ATOM     10  C   UNL     1       7.272   4.821  17.952  0.00  0.00    +0.000 C 
BRANCH  10  11
ATOM     11  C   UNL     1       7.704   5.686  19.124  0.00  0.00    +0.000 C 
ATOM     12  O   UNL     1       7.668   5.336  20.298  0.00  0.00    +0.000 OA
BRANCH  11  14
ATOM     13  C   UNL     1       7.495   7.340  17.481  0.00  0.00    +0.000 C 
ATOM     14  O   UNL     1       8.137   6.900  18.679  0.00  0.00    +0.000 OA
ENDBRANCH  11  14
ENDBRANCH  10  11
ENDBRANCH   1  10
TORSDOF 4
ENDMDL
MODEL 2
REMARK VINA RESULT:      -5.4      1.664      2.252
REMARK  Name = 
REMARK  5 active torsions:
REMARK  status: ('A' for Active; 'I' for Inactive)
REMARK    1  A    between atoms: C_1  and  O_2
REMARK    2  A    between atoms: O_2  and  C_3
REMARK    3  A    between atoms: C_3  and  C_5
REMARK    4  A    between atoms: C_5  and  N_6
REMARK    5  A    between atoms: C_7  and  C_9
REMARK                            x       y       z     vdW  Elec       q    Type
REMARK                         _______ _______ _______ _____ _____    ______ ____
ROOT
ATOM      1  N   UNL     1       5.800   3.982  17.211  0.00  0.00    +0.000 N 
ATOM      2  C   UNL     1       5.178   4.017  18.436  0.00  0.00    +0.000 C 
ATOM      3  O   UNL     1       5.728   4.480  19.431  0.00  0.00    +0.000 OA
ATOM      4  H   UNL     1       5.291   3.598  16.419  0.00  0.00    +0.000 HD
ENDROOT
BRANCH   2   5
ATOM      5  C   UNL     1       3.840   3.464  18.436  0.00  0.00    +0.000 A 
ATOM      6  C   UNL     1       3.365   2.227  18.039  0.00  0.00    +0.000 A 
ATOM      7  C   UNL     1       1.966   2.240  18.252  0.00  0.00    +0.000 A 
ATOM      8  C   UNL     1       1.668   3.481  18.763  0.00  0.00    +0.000 A 
ATOM      9  O   UNL     1       2.794   4.230  18.883  0.00  0.00    +0.000 OA
ENDBRANCH   2   5
BRANCH   1  10
ATOM     10  C   UNL     1       7.153   4.464  17.015  0.00  0.00    +0.000 C 
BRANCH  10  11
ATOM     11  C   UNL     1       7.178   5.555  15.958  0.00  0.00    +0.000 C 
ATOM     12  O   UNL     1       7.569   5.399  14.806  0.00  0.00    +0.000 OA
BRANCH  11  14
ATOM     13  C   UNL     1       7.470   7.227  17.568  0.00  0.00    +0.000 C 
ATOM     14  O   UNL     1       6.702   6.723  16.474  0.00  0.00    +0.000 OA
ENDBRANCH  11  14
ENDBRANCH  10  11
ENDBRANCH   1  10
TORSDOF 4
ENDMDL
MODEL 3
REMARK VINA RESULT:      -5.4      1.812      2.337
REMARK  Name = 
REMARK  5 active torsions:
REMARK  status: ('A' for Active; 'I' for Inactive)
REMARK    1  A    between atoms: C_1  and  O_2
REMARK    2  A    between atoms: O_2  and  C_3
REMARK    3  A    between atoms: C_3  and  C_5
REMARK    4  A    between atoms: C_5  and  N_6
REMARK    5  A    between atoms: C_7  and  C_9
REMARK                            x       y       z     vdW  Elec       q    Type
REMARK                         _______ _______ _______ _____ _____    ______ ____
ROOT
ATOM      1  N   UNL     1       6.045   4.020  17.752  0.00  0.00    +0.000 N 
ATOM      2  C   UNL     1       5.256   4.307  18.840  0.00  0.00    +0.000 C 
ATOM      3  O   UNL     1       5.538   5.205  19.629  0.00  0.00    +0.000 OA
ATOM      4  H   UNL     1       5.756   3.273  17.125  0.00  0.00    +0.000 HD
ENDROOT
BRANCH   2   5
ATOM      5  C   UNL     1       4.088   3.461  18.961  0.00  0.00    +0.000 A 
ATOM      6  C   UNL     1       3.443   2.659  18.037  0.00  0.00    +0.000 A 
ATOM      7  C   UNL     1       2.345   2.068  18.706  0.00  0.00    +0.000 A 
ATOM      8  C   UNL     1       2.381   2.543  19.996  0.00  0.00    +0.000 A 
ATOM      9  O   UNL     1       3.432   3.385  20.164  0.00  0.00    +0.000 OA
ENDBRANCH   2   5
BRANCH   1  10
ATOM     10  C   UNL     1       7.273   4.739  17.475  0.00  0.00    +0.000 C 
BRANCH  10  11
ATOM     11  C   UNL     1       7.036   5.803  16.416  0.00  0.00    +0.000 C 
ATOM     12  O   UNL     1       6.388   6.829  16.593  0.00  0.00    +0.000 OA
BRANCH  11  14
ATOM     13  C   UNL     1       6.798   4.768  14.332  0.00  0.00    +0.000 C 
ATOM     14  O   UNL     1       7.650   5.453  15.250  0.00  0.00    +0.000 OA
ENDBRANCH  11  14
ENDBRANCH  10  11
ENDBRANCH   1  10
TORSDOF 4
ENDMDL
MODEL 4
REMARK VINA RESULT:      -5.3      2.045      3.078
REMARK  Name = 
REMARK  5 active torsions:
REMARK  status: ('A' for Active; 'I' for Inactive)
REMARK    1  A    between atoms: C_1  and  O_2
REMARK    2  A    between atoms: O_2  and  C_3
REMARK    3  A    between atoms: C_3  and  C_5
REMARK    4  A    between atoms: C_5  and  N_6
REMARK    5  A    between atoms: C_7  and  C_9
REMARK                            x       y       z     vdW  Elec       q    Type
REMARK                         _______ _______ _______ _____ _____    ______ ____
ROOT
ATOM      1  N   UNL     1       6.062   4.053  17.810  0.00  0.00    +0.000 N 
ATOM      2  C   UNL     1       5.586   4.554  18.998  0.00  0.00    +0.000 C 
ATOM      3  O   UNL     1       6.170   5.445  19.609  0.00  0.00    +0.000 OA
ATOM      4  H   UNL     1       5.529   3.325  17.342  0.00  0.00    +0.000 HD
ENDROOT
BRANCH   2   5
ATOM      5  C   UNL     1       4.355   3.939  19.448  0.00  0.00    +0.000 A 
ATOM      6  C   UNL     1       3.932   2.622  19.424  0.00  0.00    +0.000 A 
ATOM      7  C   UNL     1       2.634   2.600  19.987  0.00  0.00    +0.000 A 
ATOM      8  C   UNL     1       2.339   3.901  20.320  0.00  0.00    +0.000 A 
ATOM      9  O   UNL     1       3.373   4.720  20.002  0.00  0.00    +0.000 OA
ENDBRANCH   2   5
BRANCH   1  10
ATOM     10  C   UNL     1       7.296   4.523  17.211  0.00  0.00    +0.000 C 
BRANCH  10  11
ATOM     11  C   UNL     1       7.107   4.753  15.721  0.00  0.00    +0.000 C 
ATOM     12  O   UNL     1       7.698   5.606  15.068  0.00  0.00    +0.000 OA
BRANCH  11  14
ATOM     13  C   UNL     1       6.129   3.855  13.794  0.00  0.00    +0.000 C 
ATOM     14  O   UNL     1       6.192   3.875  15.221  0.00  0.00    +0.000 OA
ENDBRANCH  11  14
ENDBRANCH  10  11
ENDBRANCH   1  10
TORSDOF 4
ENDMDL
MODEL 5
REMARK VINA RESULT:      -5.3      1.618      1.772
REMARK  Name = 
REMARK  5 active torsions:
REMARK  status: ('A' for Active; 'I' for Inactive)
REMARK    1  A    between atoms: C_1  and  O_2
REMARK    2  A    between atoms: O_2  and  C_3
REMARK    3  A    between atoms: C_3  and  C_5
REMARK    4  A    between atoms: C_5  and  N_6
REMARK    5  A    between atoms: C_7  and  C_9
REMARK                            x       y       z     vdW  Elec       q    Type
REMARK                         _______ _______ _______ _____ _____    ______ ____
ROOT
ATOM      1  N   UNL     1       5.390   4.873  18.642  0.00  0.00    +0.000 N 
ATOM      2  C   UNL     1       4.230   5.107  17.944  0.00  0.00    +0.000 C 
ATOM      3  O   UNL     1       4.139   6.014  17.120  0.00  0.00    +0.000 OA
ATOM      4  H   UNL     1       5.412   4.100  19.302  0.00  0.00    +0.000 HD
ENDROOT
BRANCH   2   5
ATOM      5  C   UNL     1       3.151   4.200  18.270  0.00  0.00    +0.000 A 
ATOM      6  C   UNL     1       1.856   4.114  17.791  0.00  0.00    +0.000 A 
ATOM      7  C   UNL     1       1.239   3.040  18.476  0.00  0.00    +0.000 A 
ATOM      8  C   UNL     1       2.188   2.534  19.332  0.00  0.00    +0.000 A 
ATOM      9  O   UNL     1       3.351   3.225  19.215  0.00  0.00    +0.000 OA
ENDBRANCH   2   5
BRANCH   1  10
ATOM     10  C   UNL     1       6.574   5.693  18.474  0.00  0.00    +0.000 C 
BRANCH  10  11
ATOM     11  C   UNL     1       7.503   5.076  17.442  0.00  0.00    +0.000 C 
ATOM     12  O   UNL     1       8.235   4.114  17.651  0.00  0.00    +0.000 OA
BRANCH  11  14
ATOM     13  C   UNL     1       6.952   4.929  15.173  0.00  0.00    +0.000 C 
ATOM     14  O   UNL     1       7.401   5.743  16.258  0.00  0.00    +0.000 OA
ENDBRANCH  11  14
ENDBRANCH  10  11
ENDBRANCH   1  10
TORSDOF 4
ENDMDL
MODEL 6
REMARK VINA RESULT:      -5.3      1.835      2.577
REMARK  Name = 
REMARK  5 active torsions:
REMARK  status: ('A' for Active; 'I' for Inactive)
REMARK    1  A    between atoms: C_1  and  O_2
REMARK    2  A    between atoms: O_2  and  C_3
REMARK    3  A    between atoms: C_3  and  C_5
REMARK    4  A    between atoms: C_5  and  N_6
REMARK    5  A    between atoms: C_7  and  C_9
REMARK                            x       y       z     vdW  Elec       q    Type
REMARK                         _______ _______ _______ _____ _____    ______ ____
ROOT
ATOM      1  N   UNL     1       5.429   3.854  17.934  0.00  0.00    +0.000 N 
ATOM      2  C   UNL     1       4.486   4.372  18.789  0.00  0.00    +0.000 C 
ATOM      3  O   UNL     1       4.683   5.402  19.428  0.00  0.00    +0.000 OA
ATOM      4  H   UNL     1       5.206   3.005  17.421  0.00  0.00    +0.000 HD
ENDROOT
BRANCH   2   5
ATOM      5  C   UNL     1       3.264   3.599  18.859  0.00  0.00    +0.000 A 
ATOM      6  C   UNL     1       2.199   3.496  17.983  0.00  0.00    +0.000 A 
ATOM      7  C   UNL     1       1.274   2.600  18.570  0.00  0.00    +0.000 A 
ATOM      8  C   UNL     1       1.824   2.210  19.768  0.00  0.00    +0.000 A 
ATOM      9  O   UNL     1       3.031   2.805  19.953  0.00  0.00    +0.000 OA
ENDBRANCH   2   5
BRANCH   1  10
ATOM     10  C   UNL     1       6.728   4.471  17.749  0.00  0.00    +0.000 C 
BRANCH  10  11
ATOM     11  C   UNL     1       6.911   4.894  16.301  0.00  0.00    +0.000 C 
ATOM     12  O   UNL     1       7.495   5.910  15.941  0.00  0.00    +0.000 OA
BRANCH  11  14
ATOM     13  C   UNL     1       6.492   4.286  14.080  0.00  0.00    +0.000 C 
ATOM     14  O   UNL     1       6.338   3.980  15.467  0.00  0.00    +0.000 OA
ENDBRANCH  11  14
ENDBRANCH  10  11
ENDBRANCH   1  10
TORSDOF 4
ENDMDL
MODEL 7
REMARK VINA RESULT:      -5.3      1.902      2.617
REMARK  Name = 
REMARK  5 active torsions:
REMARK  status: ('A' for Active; 'I' for Inactive)
REMARK    1  A    between atoms: C_1  and  O_2
REMARK    2  A    between atoms: O_2  and  C_3
REMARK    3  A    between atoms: C_3  and  C_5
REMARK    4  A    between atoms: C_5  and  N_6
REMARK    5  A    between atoms: C_7  and  C_9
REMARK                            x       y       z     vdW  Elec       q    Type
REMARK                         _______ _______ _______ _____ _____    ______ ____
ROOT
ATOM      1  N   UNL     1       4.656   4.299  17.238  0.00  0.00    +0.000 N 
ATOM      2  C   UNL     1       4.653   4.145  18.603  0.00  0.00    +0.000 C 
ATOM      3  O   UNL     1       5.692   4.015  19.245  0.00  0.00    +0.000 OA
ATOM      4  H   UNL     1       3.766   4.416  16.760  0.00  0.00    +0.000 HD
ENDROOT
BRANCH   2   5
ATOM      5  C   UNL     1       3.332   4.150  19.195  0.00  0.00    +0.000 A 
ATOM      6  C   UNL     1       2.171   3.490  18.838  0.00  0.00    +0.000 A 
ATOM      7  C   UNL     1       1.178   3.877  19.770  0.00  0.00    +0.000 A 
ATOM      8  C   UNL     1       1.789   4.750  20.640  0.00  0.00    +0.000 A 
ATOM      9  O   UNL     1       3.093   4.921  20.305  0.00  0.00    +0.000 OA
ENDBRANCH   2   5
BRANCH   1  10
ATOM     10  C   UNL     1       5.880   4.293  16.460  0.00  0.00    +0.000 C 
BRANCH  10  11
ATOM     11  C   UNL     1       6.169   5.682  15.917  0.00  0.00    +0.000 C 
ATOM     12  O   UNL     1       5.396   6.332  15.221  0.00  0.00    +0.000 OA
BRANCH  11  14
ATOM     13  C   UNL     1       7.409   6.768  17.577  0.00  0.00    +0.000 C 
ATOM     14  O   UNL     1       7.404   6.097  16.317  0.00  0.00    +0.000 OA
ENDBRANCH  11  14
ENDBRANCH  10  11
ENDBRANCH   1  10
TORSDOF 4
ENDMDL
MODEL 8
REMARK VINA RESULT:      -5.3      1.512      2.078
REMARK  Name = 
REMARK  5 active torsions:
REMARK  status: ('A' for Active; 'I' for Inactive)
REMARK    1  A    between atoms: C_1  and  O_2
REMARK    2  A    between atoms: O_2  and  C_3
REMARK    3  A    between atoms: C_3  and  C_5
REMARK    4  A    between atoms: C_5  and  N_6
REMARK    5  A    between atoms: C_7  and  C_9
REMARK                            x       y       z     vdW  Elec       q    Type
REMARK                         _______ _______ _______ _____ _____    ______ ____
ROOT
ATOM      1  N   UNL     1       5.554   4.058  17.528  0.00  0.00    +0.000 N 
ATOM      2  C   UNL     1       4.667   4.515  18.472  0.00  0.00    +0.000 C 
ATOM      3  O   UNL     1       4.912   5.491  19.176  0.00  0.00    +0.000 OA
ATOM      4  H   UNL     1       5.292   3.253  16.964  0.00  0.00    +0.000 HD
ENDROOT
BRANCH   2   5
ATOM      5  C   UNL     1       3.442   3.748  18.553  0.00  0.00    +0.000 A 
ATOM      6  C   UNL     1       2.130   4.094  18.285  0.00  0.00    +0.000 A 
ATOM      7  C   UNL     1       1.344   2.947  18.547  0.00  0.00    +0.000 A 
ATOM      8  C   UNL     1       2.218   1.969  18.960  0.00  0.00    +0.000 A 
ATOM      9  O   UNL     1       3.491   2.440  18.965  0.00  0.00    +0.000 OA
ENDBRANCH   2   5
BRANCH   1  10
ATOM     10  C   UNL     1       6.848   4.677  17.316  0.00  0.00    +0.000 C 
BRANCH  10  11
ATOM     11  C   UNL     1       6.757   5.732  16.226  0.00  0.00    +0.000 C 
ATOM     12  O   UNL     1       5.947   5.714  15.306  0.00  0.00    +0.000 OA
BRANCH  11  14
ATOM     13  C   UNL     1       7.563   7.393  17.664  0.00  0.00    +0.000 C 
ATOM     14  O   UNL     1       7.700   6.697  16.424  0.00  0.00    +0.000 OA
ENDBRANCH  11  14
ENDBRANCH  10  11
ENDBRANCH   1  10
TORSDOF 4
ENDMDL
MODEL 9
REMARK VINA RESULT:      -5.3      1.725      2.566
REMARK  Name = 
REMARK  5 active torsions:
REMARK  status: ('A' for Active; 'I' for Inactive)
REMARK    1  A    between atoms: C_1  and  O_2
REMARK    2  A    between atoms: O_2  and  C_3
REMARK    3  A    between atoms: C_3  and  C_5
REMARK    4  A    between atoms: C_5  and  N_6
REMARK    5  A    between atoms: C_7  and  C_9
REMARK                            x       y       z     vdW  Elec       q    Type
REMARK                         _______ _______ _______ _____ _____    ______ ____
ROOT
ATOM      1  N   UNL     1       4.805   4.118  17.191  0.00  0.00    +0.000 N 
ATOM      2  C   UNL     1       4.642   3.914  18.540  0.00  0.00    +0.000 C 
ATOM      3  O   UNL     1       5.595   3.892  19.314  0.00  0.00    +0.000 OA
ATOM      4  H   UNL     1       3.978   4.140  16.599  0.00  0.00    +0.000 HD
ENDROOT
BRANCH   2   5
ATOM      5  C   UNL     1       3.265   3.730  18.947  0.00  0.00    +0.000 A 
ATOM      6  C   UNL     1       2.596   4.110  20.096  0.00  0.00    +0.000 A 
ATOM      7  C   UNL     1       1.262   3.657  19.960  0.00  0.00    +0.000 A 
ATOM      8  C   UNL     1       1.193   3.027  18.739  0.00  0.00    +0.000 A 
ATOM      9  O   UNL     1       2.398   3.067  18.115  0.00  0.00    +0.000 OA
ENDBRANCH   2   5
BRANCH   1  10
ATOM     10  C   UNL     1       6.111   4.295  16.587  0.00  0.00    +0.000 C 
BRANCH  10  11
ATOM     11  C   UNL     1       6.251   5.703  16.031  0.00  0.00    +0.000 C 
ATOM     12  O   UNL     1       5.415   6.259  15.326  0.00  0.00    +0.000 OA
BRANCH  11  14
ATOM     13  C   UNL     1       7.453   6.639  17.806  0.00  0.00    +0.000 C 
ATOM     14  O   UNL     1       7.432   6.253  16.431  0.00  0.00    +0.000 OA
ENDBRANCH  11  14
ENDBRANCH  10  11
ENDBRANCH   1  10
TORSDOF 4
ENDMDL
