MODEL 1
REMARK VINA RESULT:      -7.3      0.000      0.000
REMARK  Name = 
REMARK  6 active torsions:
REMARK  status: ('A' for Active; 'I' for Inactive)
REMARK    1  A    between atoms: C_1  and  C_2
REMARK    2  A    between atoms: N_6  and  C_7
REMARK    3  A    between atoms: C_12  and  C_14
REMARK    4  A    between atoms: C_14  and  O_15
REMARK    5  A    between atoms: O_15  and  C_16
REMARK    6  A    between atoms: C_16  and  C_17
REMARK                            x       y       z     vdW  Elec       q    Type
REMARK                         _______ _______ _______ _____ _____    ______ ____
ROOT
ATOM      1  C   UNL     1       2.951   5.123  18.859  0.00  0.00    +0.000 C 
ATOM      2  C   UNL     1       2.661   6.628  18.987  0.00  0.00    +0.000 C 
ATOM      3  C   UNL     1       3.231   7.348  17.750  0.00  0.00    +0.000 C 
ATOM      4  C   UNL     1       4.702   6.987  17.466  0.00  0.00    +0.000 C 
ATOM      5  N   UNL     1       4.934   5.541  17.559  0.00  0.00    +0.000 N 
ATOM      6  C   UNL     1       5.235   4.677  16.509  0.00  0.00    +0.000 C 
ATOM      7  O   UNL     1       5.246   3.454  16.654  0.00  0.00    +0.000 OA
ATOM      8  C   UNL     1       4.470   4.933  18.803  0.00  0.00    +0.000 C 
ENDROOT
BRANCH   1  14
ATOM      9  C   UNL     1       1.853   2.369  18.185  0.00  0.00    +0.000 C 
ATOM     10  C   UNL     1       1.885   2.966  19.547  0.00  0.00    +0.000 A 
ATOM     11  N   UNL     1       1.535   2.353  20.660  0.00  0.00    +0.000 NA
ATOM     12  C   UNL     1       1.757   3.251  21.668  0.00  0.00    +0.000 A 
ATOM     13  C   UNL     1       2.224   4.444  21.169  0.00  0.00    +0.000 A 
ATOM     14  N   UNL     1       2.327   4.245  19.820  0.00  0.00    +0.000 N 
ENDBRANCH   1  14
BRANCH   6  15
ATOM     15  C   UNL     1       5.451   5.265  15.118  0.00  0.00    +0.000 C 
BRANCH  15  16
ATOM     16  O   UNL     1       5.282   4.324  14.073  0.00  0.00    +0.000 OA
BRANCH  16  17
ATOM     17  C   UNL     1       6.542   3.877  13.556  0.00  0.00    +0.000 C 
BRANCH  17  18
ATOM     18  C   UNL     1       6.489   3.572  12.058  0.00  0.00    +0.000 C 
ATOM     19  F   UNL     1       6.989   2.356  11.753  0.00  0.00    +0.000 F 
ATOM     20  F   UNL     1       5.217   3.622  11.601  0.00  0.00    +0.000 F 
ATOM     21  F   UNL     1       7.205   4.489  11.364  0.00  0.00    +0.000 F 
ENDBRANCH  17  18
ENDBRANCH  16  17
ENDBRANCH  15  16
ENDBRANCH   6  15
TORSDOF 5
ENDMDL
MODEL 2
REMARK VINA RESULT:      -7.2      1.793      2.052
REMARK  Name = 
REMARK  6 active torsions:
REMARK  status: ('A' for Active; 'I' for Inactive)
REMARK    1  A    between atoms: C_1  and  C_2
REMARK    2  A    between atoms: N_6  and  C_7
REMARK    3  A    between atoms: C_12  and  C_14
REMARK    4  A    between atoms: C_14  and  O_15
REMARK    5  A    between atoms: O_15  and  C_16
REMARK    6  A    between atoms: C_16  and  C_17
REMARK                            x       y       z     vdW  Elec       q    Type
REMARK                         _______ _______ _______ _____ _____    ______ ____
ROOT
ATOM      1  C   UNL     1       3.189   5.025  18.724  0.00  0.00    +0.000 C 
ATOM      2  C   UNL     1       2.518   6.291  18.167  0.00  0.00    +0.000 C 
ATOM      3  C   UNL     1       3.507   6.998  17.220  0.00  0.00    +0.000 C 
ATOM      4  C   UNL     1       4.895   7.215  17.850  0.00  0.00    +0.000 C 
ATOM      5  N   UNL     1       5.377   6.010  18.535  0.00  0.00    +0.000 N 
ATOM      6  C   UNL     1       6.440   5.200  18.142  0.00  0.00    +0.000 C 
ATOM      7  O   UNL     1       6.665   4.115  18.682  0.00  0.00    +0.000 OA
ATOM      8  C   UNL     1       4.438   5.449  19.502  0.00  0.00    +0.000 C 
ENDROOT
BRANCH   1  14
ATOM      9  C   UNL     1       2.686   2.131  17.939  0.00  0.00    +0.000 C 
ATOM     10  C   UNL     1       2.176   2.781  19.176  0.00  0.00    +0.000 A 
ATOM     11  N   UNL     1       1.521   2.175  20.145  0.00  0.00    +0.000 NA
ATOM     12  C   UNL     1       1.281   3.133  21.092  0.00  0.00    +0.000 A 
ATOM     13  C   UNL     1       1.768   4.353  20.689  0.00  0.00    +0.000 A 
ATOM     14  N   UNL     1       2.360   4.115  19.480  0.00  0.00    +0.000 N 
ENDBRANCH   1  14
BRANCH   6  15
ATOM     15  C   UNL     1       7.279   5.623  16.941  0.00  0.00    +0.000 C 
BRANCH  15  16
ATOM     16  O   UNL     1       7.616   4.551  16.079  0.00  0.00    +0.000 OA
BRANCH  16  17
ATOM     17  C   UNL     1       7.117   4.764  14.752  0.00  0.00    +0.000 C 
BRANCH  17  18
ATOM     18  C   UNL     1       5.600   4.594  14.661  0.00  0.00    +0.000 C 
ATOM     19  F   UNL     1       5.103   3.791  15.627  0.00  0.00    +0.000 F 
ATOM     20  F   UNL     1       4.974   5.789  14.758  0.00  0.00    +0.000 F 
ATOM     21  F   UNL     1       5.255   4.053  13.469  0.00  0.00    +0.000 F 
ENDBRANCH  17  18
ENDBRANCH  16  17
ENDBRANCH  15  16
ENDBRANCH   6  15
TORSDOF 5
ENDMDL
MODEL 3
REMARK VINA RESULT:      -7.0      0.716      1.003
REMARK  Name = 
REMARK  6 active torsions:
REMARK  status: ('A' for Active; 'I' for Inactive)
REMARK    1  A    between atoms: C_1  and  C_2
REMARK    2  A    between atoms: N_6  and  C_7
REMARK    3  A    between atoms: C_12  and  C_14
REMARK    4  A    between atoms: C_14  and  O_15
REMARK    5  A    between atoms: O_15  and  C_16
REMARK    6  A    between atoms: C_16  and  C_17
REMARK                            x       y       z     vdW  Elec       q    Type
REMARK                         _______ _______ _______ _____ _____    ______ ____
ROOT
ATOM      1  C   UNL     1       3.158   5.109  18.520  0.00  0.00    +0.000 C 
ATOM      2  C   UNL     1       2.902   6.623  18.601  0.00  0.00    +0.000 C 
ATOM      3  C   UNL     1       3.678   7.317  17.465  0.00  0.00    +0.000 C 
ATOM      4  C   UNL     1       5.162   6.905  17.409  0.00  0.00    +0.000 C 
ATOM      5  N   UNL     1       5.329   5.453  17.538  0.00  0.00    +0.000 N 
ATOM      6  C   UNL     1       5.758   4.574  16.546  0.00  0.00    +0.000 C 
ATOM      7  O   UNL     1       5.705   3.352  16.693  0.00  0.00    +0.000 OA
ATOM      8  C   UNL     1       4.661   4.869  18.697  0.00  0.00    +0.000 C 
ENDROOT
BRANCH   1  14
ATOM      9  C   UNL     1       2.389   2.249  17.833  0.00  0.00    +0.000 C 
ATOM     10  C   UNL     1       2.065   2.936  19.111  0.00  0.00    +0.000 A 
ATOM     11  N   UNL     1       1.489   2.378  20.156  0.00  0.00    +0.000 NA
ATOM     12  C   UNL     1       1.420   3.354  21.112  0.00  0.00    +0.000 A 
ATOM     13  C   UNL     1       1.933   4.539  20.642  0.00  0.00    +0.000 A 
ATOM     14  N   UNL     1       2.366   4.258  19.376  0.00  0.00    +0.000 N 
ENDBRANCH   1  14
BRANCH   6  15
ATOM     15  C   UNL     1       6.203   5.146  15.204  0.00  0.00    +0.000 C 
BRANCH  15  16
ATOM     16  O   UNL     1       6.484   4.156  14.231  0.00  0.00    +0.000 OA
BRANCH  16  17
ATOM     17  C   UNL     1       5.304   3.770  13.514  0.00  0.00    +0.000 C 
BRANCH  17  18
ATOM     18  C   UNL     1       5.600   3.368  12.069  0.00  0.00    +0.000 C 
ATOM     19  F   UNL     1       6.715   3.952  11.580  0.00  0.00    +0.000 F 
ATOM     20  F   UNL     1       5.757   2.029  11.963  0.00  0.00    +0.000 F 
ATOM     21  F   UNL     1       4.572   3.720  11.260  0.00  0.00    +0.000 F 
ENDBRANCH  17  18
ENDBRANCH  16  17
ENDBRANCH  15  16
ENDBRANCH   6  15
TORSDOF 5
ENDMDL
MODEL 4
REMARK VINA RESULT:      -7.0      1.515      1.780
REMARK  Name = 
REMARK  6 active torsions:
REMARK  status: ('A' for Active; 'I' for Inactive)
REMARK    1  A    between atoms: C_1  and  C_2
REMARK    2  A    between atoms: N_6  and  C_7
REMARK    3  A    between atoms: C_12  and  C_14
REMARK    4  A    between atoms: C_14  and  O_15
REMARK    5  A    between atoms: O_15  and  C_16
REMARK    6  A    between atoms: C_16  and  C_17
REMARK                            x       y       z     vdW  Elec       q    Type
REMARK                         _______ _______ _______ _____ _____    ______ ____
ROOT
ATOM      1  C   UNL     1       3.263   5.020  18.731  0.00  0.00    +0.000 C 
ATOM      2  C   UNL     1       2.568   6.271  18.167  0.00  0.00    +0.000 C 
ATOM      3  C   UNL     1       3.525   6.965  17.178  0.00  0.00    +0.000 C 
ATOM      4  C   UNL     1       4.929   7.204  17.765  0.00  0.00    +0.000 C 
ATOM      5  N   UNL     1       5.438   6.016  18.460  0.00  0.00    +0.000 N 
ATOM      6  C   UNL     1       6.495   5.205  18.055  0.00  0.00    +0.000 C 
ATOM      7  O   UNL     1       6.743   4.134  18.609  0.00  0.00    +0.000 OA
ATOM      8  C   UNL     1       4.531   5.469  19.464  0.00  0.00    +0.000 C 
ENDROOT
BRANCH   1  14
ATOM      9  C   UNL     1       2.500   2.207  17.868  0.00  0.00    +0.000 C 
ATOM     10  C   UNL     1       2.163   2.817  19.181  0.00  0.00    +0.000 A 
ATOM     11  N   UNL     1       1.577   2.198  20.185  0.00  0.00    +0.000 NA
ATOM     12  C   UNL     1       1.499   3.116  21.197  0.00  0.00    +0.000 A 
ATOM     13  C   UNL     1       2.017   4.327  20.803  0.00  0.00    +0.000 A 
ATOM     14  N   UNL     1       2.462   4.121  19.527  0.00  0.00    +0.000 N 
ENDBRANCH   1  14
BRANCH   6  15
ATOM     15  C   UNL     1       7.297   5.610  16.822  0.00  0.00    +0.000 C 
BRANCH  15  16
ATOM     16  O   UNL     1       7.723   4.511  16.037  0.00  0.00    +0.000 OA
BRANCH  16  17
ATOM     17  C   UNL     1       6.612   3.817  15.454  0.00  0.00    +0.000 C 
BRANCH  17  18
ATOM     18  C   UNL     1       6.334   4.255  14.016  0.00  0.00    +0.000 C 
ATOM     19  F   UNL     1       7.234   5.153  13.558  0.00  0.00    +0.000 F 
ATOM     20  F   UNL     1       6.348   3.195  13.177  0.00  0.00    +0.000 F 
ATOM     21  F   UNL     1       5.110   4.828  13.924  0.00  0.00    +0.000 F 
ENDBRANCH  17  18
ENDBRANCH  16  17
ENDBRANCH  15  16
ENDBRANCH   6  15
TORSDOF 5
ENDMDL
MODEL 5
REMARK VINA RESULT:      -6.9      2.011      2.366
REMARK  Name = 
REMARK  6 active torsions:
REMARK  status: ('A' for Active; 'I' for Inactive)
REMARK    1  A    between atoms: C_1  and  C_2
REMARK    2  A    between atoms: N_6  and  C_7
REMARK    3  A    between atoms: C_12  and  C_14
REMARK    4  A    between atoms: C_14  and  O_15
REMARK    5  A    between atoms: O_15  and  C_16
REMARK    6  A    between atoms: C_16  and  C_17
REMARK                            x       y       z     vdW  Elec       q    Type
REMARK                         _______ _______ _______ _____ _____    ______ ____
ROOT
ATOM      1  C   UNL     1       3.357   4.447  19.129  0.00  0.00    +0.000 C 
ATOM      2  C   UNL     1       2.421   5.102  18.099  0.00  0.00    +0.000 C 
ATOM      3  C   UNL     1       3.276   5.718  16.976  0.00  0.00    +0.000 C 
ATOM      4  C   UNL     1       4.405   6.624  17.504  0.00  0.00    +0.000 C 
ATOM      5  N   UNL     1       5.124   6.002  18.621  0.00  0.00    +0.000 N 
ATOM      6  C   UNL     1       6.437   5.536  18.608  0.00  0.00    +0.000 C 
ATOM      7  O   UNL     1       6.901   4.875  19.538  0.00  0.00    +0.000 OA
ATOM      8  C   UNL     1       4.267   5.536  19.707  0.00  0.00    +0.000 C 
ENDROOT
BRANCH   1  14
ATOM      9  C   UNL     1       4.665   2.003  20.377  0.00  0.00    +0.000 C 
ATOM     10  C   UNL     1       3.353   2.571  20.786  0.00  0.00    +0.000 A 
ATOM     11  N   UNL     1       2.623   2.159  21.803  0.00  0.00    +0.000 NA
ATOM     12  C   UNL     1       1.529   2.980  21.836  0.00  0.00    +0.000 A 
ATOM     13  C   UNL     1       1.568   3.892  20.809  0.00  0.00    +0.000 A 
ATOM     14  N   UNL     1       2.746   3.643  20.161  0.00  0.00    +0.000 N 
ENDBRANCH   1  14
BRANCH   6  15
ATOM     15  C   UNL     1       7.282   5.763  17.359  0.00  0.00    +0.000 C 
BRANCH  15  16
ATOM     16  O   UNL     1       7.646   4.566  16.695  0.00  0.00    +0.000 OA
BRANCH  16  17
ATOM     17  C   UNL     1       6.540   4.006  15.974  0.00  0.00    +0.000 C 
BRANCH  17  18
ATOM     18  C   UNL     1       6.400   4.589  14.568  0.00  0.00    +0.000 C 
ATOM     19  F   UNL     1       7.556   5.104  14.096  0.00  0.00    +0.000 F 
ATOM     20  F   UNL     1       5.984   3.644  13.693  0.00  0.00    +0.000 F 
ATOM     21  F   UNL     1       5.480   5.583  14.557  0.00  0.00    +0.000 F 
ENDBRANCH  17  18
ENDBRANCH  16  17
ENDBRANCH  15  16
ENDBRANCH   6  15
TORSDOF 5
ENDMDL
MODEL 6
REMARK VINA RESULT:      -6.6      3.474      4.610
REMARK  Name = 
REMARK  6 active torsions:
REMARK  status: ('A' for Active; 'I' for Inactive)
REMARK    1  A    between atoms: C_1  and  C_2
REMARK    2  A    between atoms: N_6  and  C_7
REMARK    3  A    between atoms: C_12  and  C_14
REMARK    4  A    between atoms: C_14  and  O_15
REMARK    5  A    between atoms: O_15  and  C_16
REMARK    6  A    between atoms: C_16  and  C_17
REMARK                            x       y       z     vdW  Elec       q    Type
REMARK                         _______ _______ _______ _____ _____    ______ ____
ROOT
ATOM      1  C   UNL     1       3.328   5.272  19.109  0.00  0.00    +0.000 C 
ATOM      2  C   UNL     1       3.232   3.933  19.861  0.00  0.00    +0.000 C 
ATOM      3  C   UNL     1       4.231   2.942  19.234  0.00  0.00    +0.000 C 
ATOM      4  C   UNL     1       4.102   2.843  17.702  0.00  0.00    +0.000 C 
ATOM      5  N   UNL     1       4.001   4.168  17.079  0.00  0.00    +0.000 N 
ATOM      6  C   UNL     1       4.956   4.782  16.272  0.00  0.00    +0.000 C 
ATOM      7  O   UNL     1       4.859   5.962  15.932  0.00  0.00    +0.000 OA
ATOM      8  C   UNL     1       2.961   5.023  17.643  0.00  0.00    +0.000 C 
ENDROOT
BRANCH   1  14
ATOM      9  C   UNL     1       3.112   7.987  17.759  0.00  0.00    +0.000 C 
ATOM     10  C   UNL     1       2.449   7.614  19.037  0.00  0.00    +0.000 A 
ATOM     11  N   UNL     1       1.603   8.368  19.709  0.00  0.00    +0.000 NA
ATOM     12  C   UNL     1       1.213   7.623  20.788  0.00  0.00    +0.000 A 
ATOM     13  C   UNL     1       1.850   6.405  20.800  0.00  0.00    +0.000 A 
ATOM     14  N   UNL     1       2.615   6.396  19.666  0.00  0.00    +0.000 N 
ENDBRANCH   1  14
BRANCH   6  15
ATOM     15  C   UNL     1       6.207   3.997  15.892  0.00  0.00    +0.000 C 
BRANCH  15  16
ATOM     16  O   UNL     1       7.414   4.641  16.259  0.00  0.00    +0.000 OA
BRANCH  16  17
ATOM     17  C   UNL     1       7.632   4.584  17.676  0.00  0.00    +0.000 C 
BRANCH  17  18
ATOM     18  C   UNL     1       7.553   5.960  18.338  0.00  0.00    +0.000 C 
ATOM     19  F   UNL     1       8.510   6.148  19.272  0.00  0.00    +0.000 F 
ATOM     20  F   UNL     1       7.675   6.945  17.419  0.00  0.00    +0.000 F 
ATOM     21  F   UNL     1       6.355   6.123  18.948  0.00  0.00    +0.000 F 
ENDBRANCH  17  18
ENDBRANCH  16  17
ENDBRANCH  15  16
ENDBRANCH   6  15
TORSDOF 5
ENDMDL
MODEL 7
REMARK VINA RESULT:      -6.6      4.422      6.680
REMARK  Name = 
REMARK  6 active torsions:
REMARK  status: ('A' for Active; 'I' for Inactive)
REMARK    1  A    between atoms: C_1  and  C_2
REMARK    2  A    between atoms: N_6  and  C_7
REMARK    3  A    between atoms: C_12  and  C_14
REMARK    4  A    between atoms: C_14  and  O_15
REMARK    5  A    between atoms: O_15  and  C_16
REMARK    6  A    between atoms: C_16  and  C_17
REMARK                            x       y       z     vdW  Elec       q    Type
REMARK                         _______ _______ _______ _____ _____    ______ ____
ROOT
ATOM      1  C   UNL     1       4.331   5.106  18.012  0.00  0.00    +0.000 C 
ATOM      2  C   UNL     1       3.360   6.293  17.894  0.00  0.00    +0.000 C 
ATOM      3  C   UNL     1       1.935   5.797  18.205  0.00  0.00    +0.000 C 
ATOM      4  C   UNL     1       1.541   4.546  17.397  0.00  0.00    +0.000 C 
ATOM      5  N   UNL     1       2.610   3.540  17.397  0.00  0.00    +0.000 N 
ATOM      6  C   UNL     1       2.583   2.299  18.029  0.00  0.00    +0.000 C 
ATOM      7  O   UNL     1       3.588   1.592  18.118  0.00  0.00    +0.000 OA
ATOM      8  C   UNL     1       3.917   4.046  16.987  0.00  0.00    +0.000 C 
ENDROOT
BRANCH   1  14
ATOM      9  C   UNL     1       5.801   5.871  15.463  0.00  0.00    +0.000 C 
ATOM     10  C   UNL     1       6.414   5.814  16.817  0.00  0.00    +0.000 A 
ATOM     11  N   UNL     1       7.644   6.178  17.117  0.00  0.00    +0.000 NA
ATOM     12  C   UNL     1       7.769   5.998  18.467  0.00  0.00    +0.000 A 
ATOM     13  C   UNL     1       6.611   5.488  19.005  0.00  0.00    +0.000 A 
ATOM     14  N   UNL     1       5.744   5.400  17.952  0.00  0.00    +0.000 N 
ENDBRANCH   1  14
BRANCH   6  15
ATOM     15  C   UNL     1       1.297   1.857  18.720  0.00  0.00    +0.000 C 
BRANCH  15  16
ATOM     16  O   UNL     1       1.369   1.903  20.134  0.00  0.00    +0.000 OA
BRANCH  16  17
ATOM     17  C   UNL     1       0.994   3.191  20.639  0.00  0.00    +0.000 C 
BRANCH  17  18
ATOM     18  C   UNL     1       2.153   3.913  21.327  0.00  0.00    +0.000 C 
ATOM     19  F   UNL     1       1.986   5.252  21.368  0.00  0.00    +0.000 F 
ATOM     20  F   UNL     1       2.307   3.477  22.598  0.00  0.00    +0.000 F 
ATOM     21  F   UNL     1       3.315   3.671  20.673  0.00  0.00    +0.000 F 
ENDBRANCH  17  18
ENDBRANCH  16  17
ENDBRANCH  15  16
ENDBRANCH   6  15
TORSDOF 5
ENDMDL
MODEL 8
REMARK VINA RESULT:      -6.5      4.340      6.876
REMARK  Name = 
REMARK  6 active torsions:
REMARK  status: ('A' for Active; 'I' for Inactive)
REMARK    1  A    between atoms: C_1  and  C_2
REMARK    2  A    between atoms: N_6  and  C_7
REMARK    3  A    between atoms: C_12  and  C_14
REMARK    4  A    between atoms: C_14  and  O_15
REMARK    5  A    between atoms: O_15  and  C_16
REMARK    6  A    between atoms: C_16  and  C_17
REMARK                            x       y       z     vdW  Elec       q    Type
REMARK                         _______ _______ _______ _____ _____    ______ ____
ROOT
ATOM      1  C   UNL     1       4.189   3.732  17.514  0.00  0.00    +0.000 C 
ATOM      2  C   UNL     1       2.905   3.720  16.667  0.00  0.00    +0.000 C 
ATOM      3  C   UNL     1       1.706   3.437  17.593  0.00  0.00    +0.000 C 
ATOM      4  C   UNL     1       1.913   2.199  18.486  0.00  0.00    +0.000 C 
ATOM      5  N   UNL     1       3.245   2.189  19.102  0.00  0.00    +0.000 N 
ATOM      6  C   UNL     1       3.537   2.363  20.453  0.00  0.00    +0.000 C 
ATOM      7  O   UNL     1       4.693   2.509  20.855  0.00  0.00    +0.000 OA
ATOM      8  C   UNL     1       4.348   2.352  18.159  0.00  0.00    +0.000 C 
ENDROOT
BRANCH   1  14
ATOM      9  C   UNL     1       6.416   5.241  18.929  0.00  0.00    +0.000 C 
ATOM     10  C   UNL     1       6.453   4.800  17.510  0.00  0.00    +0.000 A 
ATOM     11  N   UNL     1       7.485   4.913  16.699  0.00  0.00    +0.000 NA
ATOM     12  C   UNL     1       7.096   4.348  15.516  0.00  0.00    +0.000 A 
ATOM     13  C   UNL     1       5.797   3.906  15.586  0.00  0.00    +0.000 A 
ATOM     14  N   UNL     1       5.403   4.174  16.868  0.00  0.00    +0.000 N 
ENDBRANCH   1  14
BRANCH   6  15
ATOM     15  C   UNL     1       2.383   2.481  21.442  0.00  0.00    +0.000 C 
BRANCH  15  16
ATOM     16  O   UNL     1       2.120   3.811  21.851  0.00  0.00    +0.000 OA
BRANCH  16  17
ATOM     17  C   UNL     1       1.370   4.528  20.862  0.00  0.00    +0.000 C 
BRANCH  17  18
ATOM     18  C   UNL     1       2.097   5.778  20.365  0.00  0.00    +0.000 C 
ATOM     19  F   UNL     1       1.814   6.875  21.100  0.00  0.00    +0.000 F 
ATOM     20  F   UNL     1       3.437   5.599  20.391  0.00  0.00    +0.000 F 
ATOM     21  F   UNL     1       1.750   6.049  19.084  0.00  0.00    +0.000 F 
ENDBRANCH  17  18
ENDBRANCH  16  17
ENDBRANCH  15  16
ENDBRANCH   6  15
TORSDOF 5
ENDMDL
MODEL 9
REMARK VINA RESULT:      -6.5      3.874      6.320
REMARK  Name = 
REMARK  6 active torsions:
REMARK  status: ('A' for Active; 'I' for Inactive)
REMARK    1  A    between atoms: C_1  and  C_2
REMARK    2  A    between atoms: N_6  and  C_7
REMARK    3  A    between atoms: C_12  and  C_14
REMARK    4  A    between atoms: C_14  and  O_15
REMARK    5  A    between atoms: O_15  and  C_16
REMARK    6  A    between atoms: C_16  and  C_17
REMARK                            x       y       z     vdW  Elec       q    Type
REMARK                         _______ _______ _______ _____ _____    ______ ____
ROOT
ATOM      1  C   UNL     1       4.596   5.059  17.445  0.00  0.00    +0.000 C 
ATOM      2  C   UNL     1       4.533   6.322  18.321  0.00  0.00    +0.000 C 
ATOM      3  C   UNL     1       3.469   6.111  19.415  0.00  0.00    +0.000 C 
ATOM      4  C   UNL     1       2.115   5.633  18.856  0.00  0.00    +0.000 C 
ATOM      5  N   UNL     1       2.282   4.555  17.875  0.00  0.00    +0.000 N 
ATOM      6  C   UNL     1       1.909   3.222  18.033  0.00  0.00    +0.000 C 
ATOM      7  O   UNL     1       2.242   2.353  17.225  0.00  0.00    +0.000 OA
ATOM      8  C   UNL     1       3.222   4.857  16.799  0.00  0.00    +0.000 C 
ENDROOT
BRANCH   1  14
ATOM      9  C   UNL     1       7.540   4.907  18.186  0.00  0.00    +0.000 C 
ATOM     10  C   UNL     1       7.004   4.838  16.801  0.00  0.00    +0.000 A 
ATOM     11  N   UNL     1       7.715   4.605  15.716  0.00  0.00    +0.000 NA
ATOM     12  C   UNL     1       6.822   4.589  14.680  0.00  0.00    +0.000 A 
ATOM     13  C   UNL     1       5.547   4.845  15.126  0.00  0.00    +0.000 A 
ATOM     14  N   UNL     1       5.668   4.976  16.481  0.00  0.00    +0.000 N 
ENDBRANCH   1  14
BRANCH   6  15
ATOM     15  C   UNL     1       1.161   2.816  19.298  0.00  0.00    +0.000 C 
BRANCH  15  16
ATOM     16  O   UNL     1       1.896   1.943  20.136  0.00  0.00    +0.000 OA
BRANCH  16  17
ATOM     17  C   UNL     1       2.977   2.624  20.788  0.00  0.00    +0.000 C 
BRANCH  17  18
ATOM     18  C   UNL     1       4.347   2.176  20.276  0.00  0.00    +0.000 C 
ATOM     19  F   UNL     1       5.084   3.198  19.789  0.00  0.00    +0.000 F 
ATOM     20  F   UNL     1       5.061   1.587  21.262  0.00  0.00    +0.000 F 
ATOM     21  F   UNL     1       4.207   1.269  19.281  0.00  0.00    +0.000 F 
ENDBRANCH  17  18
ENDBRANCH  16  17
ENDBRANCH  15  16
ENDBRANCH   6  15
TORSDOF 5
ENDMDL
