MODEL 1
REMARK VINA RESULT:      -8.4      0.000      0.000
REMARK  Name = 
REMARK  8 active torsions:
REMARK  status: ('A' for Active; 'I' for Inactive)
REMARK    1  A    between atoms: C_1  and  C_2
REMARK    2  A    between atoms: C_2  and  N_3
REMARK    3  A    between atoms: C_5  and  C_6
REMARK    4  A    between atoms: N_8  and  C_9
REMARK    5  A    between atoms: C_9  and  C_10
REMARK    6  A    between atoms: C_18  and  C_19
REMARK    7  A    between atoms: C_19  and  C_20
REMARK    8  A    between atoms: C_19  and  C_21
REMARK                            x       y       z     vdW  Elec       q    Type
REMARK                         _______ _______ _______ _____ _____    ______ ____
ROOT
ATOM      1  C   UNL     1       4.158   6.309  17.375  0.00  0.00    +0.000 C 
ATOM      2  O   UNL     1       3.539   7.364  17.279  0.00  0.00    +0.000 OA
ATOM      3  N   UNL     1       3.795   5.311  18.247  0.00  0.00    +0.000 N 
ATOM      4  H   UNL     1       4.197   4.388  18.150  0.00  0.00    +0.000 HD
ENDROOT
BRANCH   1   7
ATOM      5  N   UNL     1       6.668   5.314  14.965  0.00  0.00    +0.000 N 
ATOM      6  C   UNL     1       5.360   5.338  15.348  0.00  0.00    +0.000 A 
ATOM      7  C   UNL     1       5.321   6.008  16.557  0.00  0.00    +0.000 A 
ATOM      8  C   UNL     1       6.688   6.307  16.834  0.00  0.00    +0.000 A 
ATOM      9  N   UNL     1       7.499   5.871  15.856  0.00  0.00    +0.000 NA
BRANCH   8  10
ATOM     10  C   UNL     1       7.242   7.033  18.033  0.00  0.00    +0.000 C 
ATOM     11  C   UNL     1       8.047   6.091  18.930  0.00  0.00    +0.000 C 
ATOM     12  C   UNL     1       8.081   8.257  17.656  0.00  0.00    +0.000 C 
ENDBRANCH   8  10
BRANCH   5  14
ATOM     13  C   UNL     1       6.275   3.753  13.109  0.00  0.00    +0.000 C 
ATOM     14  C   UNL     1       7.195   4.801  13.713  0.00  0.00    +0.000 C 
ENDBRANCH   5  14
ENDBRANCH   1   7
BRANCH   3  15
ATOM     15  C   UNL     1       2.630   5.425  19.102  0.00  0.00    +0.000 C 
BRANCH  15  16
ATOM     16  C   UNL     1       2.080   4.042  19.526  0.00  0.00    +0.000 C 
ATOM     17  C   UNL     1       1.090   4.184  20.693  0.00  0.00    +0.000 C 
ATOM     18  C   UNL     1       1.238   2.891  21.464  0.00  0.00    +0.000 C 
ATOM     19  C   UNL     1       2.706   2.548  21.300  0.00  0.00    +0.000 C 
ATOM     20  N   UNL     1       3.165   3.138  20.029  0.00  0.00    +0.000 NA
ATOM     21  C   UNL     1       3.367   2.113  18.989  0.00  0.00    +0.000 C 
ATOM     22  C   UNL     1       2.017   1.921  18.333  0.00  0.00    +0.000 C 
ATOM     23  C   UNL     1       1.450   3.326  18.311  0.00  0.00    +0.000 C 
ENDBRANCH  15  16
ENDBRANCH   3  15
TORSDOF 5
ENDMDL
MODEL 2
REMARK VINA RESULT:      -8.1      0.909      1.143
REMARK  Name = 
REMARK  8 active torsions:
REMARK  status: ('A' for Active; 'I' for Inactive)
REMARK    1  A    between atoms: C_1  and  C_2
REMARK    2  A    between atoms: C_2  and  N_3
REMARK    3  A    between atoms: C_5  and  C_6
REMARK    4  A    between atoms: N_8  and  C_9
REMARK    5  A    between atoms: C_9  and  C_10
REMARK    6  A    between atoms: C_18  and  C_19
REMARK    7  A    between atoms: C_19  and  C_20
REMARK    8  A    between atoms: C_19  and  C_21
REMARK                            x       y       z     vdW  Elec       q    Type
REMARK                         _______ _______ _______ _____ _____    ______ ____
ROOT
ATOM      1  C   UNL     1       4.093   5.432  17.129  0.00  0.00    +0.000 C 
ATOM      2  O   UNL     1       3.796   6.407  17.813  0.00  0.00    +0.000 OA
ATOM      3  N   UNL     1       3.325   4.294  17.083  0.00  0.00    +0.000 N 
ATOM      4  H   UNL     1       3.487   3.606  16.360  0.00  0.00    +0.000 HD
ENDROOT
BRANCH   1   7
ATOM      5  N   UNL     1       6.695   5.064  14.641  0.00  0.00    +0.000 N 
ATOM      6  C   UNL     1       5.413   4.825  15.034  0.00  0.00    +0.000 A 
ATOM      7  C   UNL     1       5.276   5.399  16.285  0.00  0.00    +0.000 A 
ATOM      8  C   UNL     1       6.571   5.925  16.570  0.00  0.00    +0.000 A 
ATOM      9  N   UNL     1       7.429   5.707  15.560  0.00  0.00    +0.000 NA
BRANCH   8  10
ATOM     10  C   UNL     1       7.007   6.663  17.811  0.00  0.00    +0.000 C 
ATOM     11  C   UNL     1       7.778   5.745  18.761  0.00  0.00    +0.000 C 
ATOM     12  C   UNL     1       7.826   7.919  17.502  0.00  0.00    +0.000 C 
ENDBRANCH   8  10
BRANCH   5  14
ATOM     13  C   UNL     1       6.454   3.701  12.611  0.00  0.00    +0.000 C 
ATOM     14  C   UNL     1       7.283   4.736  13.354  0.00  0.00    +0.000 C 
ENDBRANCH   5  14
ENDBRANCH   1   7
BRANCH   3  15
ATOM     15  C   UNL     1       2.084   4.175  17.825  0.00  0.00    +0.000 C 
BRANCH  15  16
ATOM     16  C   UNL     1       2.219   3.223  19.038  0.00  0.00    +0.000 C 
ATOM     17  C   UNL     1       0.851   2.987  19.698  0.00  0.00    +0.000 C 
ATOM     18  C   UNL     1       1.179   2.755  21.156  0.00  0.00    +0.000 C 
ATOM     19  C   UNL     1       2.378   3.652  21.397  0.00  0.00    +0.000 C 
ATOM     20  N   UNL     1       3.087   3.805  20.112  0.00  0.00    +0.000 NA
ATOM     21  C   UNL     1       4.347   3.040  20.087  0.00  0.00    +0.000 C 
ATOM     22  C   UNL     1       3.972   1.645  19.636  0.00  0.00    +0.000 C 
ATOM     23  C   UNL     1       2.892   1.903  18.604  0.00  0.00    +0.000 C 
ENDBRANCH  15  16
ENDBRANCH   3  15
TORSDOF 5
ENDMDL
MODEL 3
REMARK VINA RESULT:      -8.0      0.806      1.882
REMARK  Name = 
REMARK  8 active torsions:
REMARK  status: ('A' for Active; 'I' for Inactive)
REMARK    1  A    between atoms: C_1  and  C_2
REMARK    2  A    between atoms: C_2  and  N_3
REMARK    3  A    between atoms: C_5  and  C_6
REMARK    4  A    between atoms: N_8  and  C_9
REMARK    5  A    between atoms: C_9  and  C_10
REMARK    6  A    between atoms: C_18  and  C_19
REMARK    7  A    between atoms: C_19  and  C_20
REMARK    8  A    between atoms: C_19  and  C_21
REMARK                            x       y       z     vdW  Elec       q    Type
REMARK                         _______ _______ _______ _____ _____    ______ ____
ROOT
ATOM      1  C   UNL     1       4.345   5.556  17.688  0.00  0.00    +0.000 C 
ATOM      2  O   UNL     1       3.226   5.973  17.407  0.00  0.00    +0.000 OA
ATOM      3  N   UNL     1       4.660   5.046  18.923  0.00  0.00    +0.000 N 
ATOM      4  H   UNL     1       5.520   4.528  19.049  0.00  0.00    +0.000 HD
ENDROOT
BRANCH   1   7
ATOM      5  N   UNL     1       6.703   5.196  14.966  0.00  0.00    +0.000 N 
ATOM      6  C   UNL     1       5.483   4.908  15.501  0.00  0.00    +0.000 A 
ATOM      7  C   UNL     1       5.438   5.543  16.729  0.00  0.00    +0.000 A 
ATOM      8  C   UNL     1       6.720   6.155  16.853  0.00  0.00    +0.000 A 
ATOM      9  N   UNL     1       7.484   5.928  15.772  0.00  0.00    +0.000 NA
BRANCH   8  10
ATOM     10  C   UNL     1       7.233   6.983  18.003  0.00  0.00    +0.000 C 
ATOM     11  C   UNL     1       8.077   6.142  18.962  0.00  0.00    +0.000 C 
ATOM     12  C   UNL     1       8.014   8.219  17.548  0.00  0.00    +0.000 C 
ENDBRANCH   8  10
BRANCH   5  14
ATOM     13  C   UNL     1       6.315   3.744  13.022  0.00  0.00    +0.000 C 
ATOM     14  C   UNL     1       7.178   4.829  13.643  0.00  0.00    +0.000 C 
ENDBRANCH   5  14
ENDBRANCH   1   7
BRANCH   3  15
ATOM     15  C   UNL     1       3.677   4.939  19.983  0.00  0.00    +0.000 C 
BRANCH  15  16
ATOM     16  C   UNL     1       3.012   3.542  20.023  0.00  0.00    +0.000 C 
ATOM     17  C   UNL     1       3.922   2.488  19.374  0.00  0.00    +0.000 C 
ATOM     18  C   UNL     1       2.960   1.473  18.796  0.00  0.00    +0.000 C 
ATOM     19  C   UNL     1       1.771   2.314  18.372  0.00  0.00    +0.000 C 
ATOM     20  N   UNL     1       1.735   3.507  19.239  0.00  0.00    +0.000 NA
ATOM     21  C   UNL     1       0.643   3.435  20.226  0.00  0.00    +0.000 C 
ATOM     22  C   UNL     1       1.208   2.678  21.409  0.00  0.00    +0.000 C 
ATOM     23  C   UNL     1       2.638   3.174  21.476  0.00  0.00    +0.000 C 
ENDBRANCH  15  16
ENDBRANCH   3  15
TORSDOF 5
ENDMDL
MODEL 4
REMARK VINA RESULT:      -8.0      1.549      2.240
REMARK  Name = 
REMARK  8 active torsions:
REMARK  status: ('A' for Active; 'I' for Inactive)
REMARK    1  A    between atoms: C_1  and  C_2
REMARK    2  A    between atoms: C_2  and  N_3
REMARK    3  A    between atoms: C_5  and  C_6
REMARK    4  A    between atoms: N_8  and  C_9
REMARK    5  A    between atoms: C_9  and  C_10
REMARK    6  A    between atoms: C_18  and  C_19
REMARK    7  A    between atoms: C_19  and  C_20
REMARK    8  A    between atoms: C_19  and  C_21
REMARK                            x       y       z     vdW  Elec       q    Type
REMARK                         _______ _______ _______ _____ _____    ______ ____
ROOT
ATOM      1  C   UNL     1       5.501   3.756  17.839  0.00  0.00    +0.000 C 
ATOM      2  O   UNL     1       5.852   3.889  19.007  0.00  0.00    +0.000 OA
ATOM      3  N   UNL     1       4.395   3.028  17.474  0.00  0.00    +0.000 N 
ATOM      4  H   UNL     1       4.024   3.113  16.537  0.00  0.00    +0.000 HD
ENDROOT
BRANCH   1   7
ATOM      5  N   UNL     1       7.082   4.837  14.768  0.00  0.00    +0.000 N 
ATOM      6  C   UNL     1       6.343   3.909  15.438  0.00  0.00    +0.000 A 
ATOM      7  C   UNL     1       6.212   4.376  16.733  0.00  0.00    +0.000 A 
ATOM      8  C   UNL     1       6.960   5.590  16.743  0.00  0.00    +0.000 A 
ATOM      9  N   UNL     1       7.492   5.855  15.539  0.00  0.00    +0.000 NA
BRANCH   8  10
ATOM     10  C   UNL     1       7.167   6.529  17.904  0.00  0.00    +0.000 C 
ATOM     11  C   UNL     1       8.104   5.923  18.950  0.00  0.00    +0.000 C 
ATOM     12  C   UNL     1       7.671   7.909  17.473  0.00  0.00    +0.000 C 
ENDBRANCH   8  10
BRANCH   5  14
ATOM     13  C   UNL     1       6.591   3.792  12.600  0.00  0.00    +0.000 C 
ATOM     14  C   UNL     1       7.403   4.833  13.352  0.00  0.00    +0.000 C 
ENDBRANCH   5  14
ENDBRANCH   1   7
BRANCH   3  15
ATOM     15  C   UNL     1       3.542   2.383  18.453  0.00  0.00    +0.000 C 
BRANCH  15  16
ATOM     16  C   UNL     1       2.457   3.341  19.003  0.00  0.00    +0.000 C 
ATOM     17  C   UNL     1       2.082   4.397  17.952  0.00  0.00    +0.000 C 
ATOM     18  C   UNL     1       1.689   5.609  18.769  0.00  0.00    +0.000 C 
ATOM     19  C   UNL     1       2.603   5.532  19.977  0.00  0.00    +0.000 C 
ATOM     20  N   UNL     1       2.942   4.113  20.192  0.00  0.00    +0.000 NA
ATOM     21  C   UNL     1       2.243   3.554  21.363  0.00  0.00    +0.000 C 
ATOM     22  C   UNL     1       0.898   3.084  20.853  0.00  0.00    +0.000 C 
ATOM     23  C   UNL     1       1.230   2.533  19.481  0.00  0.00    +0.000 C 
ENDBRANCH  15  16
ENDBRANCH   3  15
TORSDOF 5
ENDMDL
MODEL 5
REMARK VINA RESULT:      -7.9      1.502      2.349
REMARK  Name = 
REMARK  8 active torsions:
REMARK  status: ('A' for Active; 'I' for Inactive)
REMARK    1  A    between atoms: C_1  and  C_2
REMARK    2  A    between atoms: C_2  and  N_3
REMARK    3  A    between atoms: C_5  and  C_6
REMARK    4  A    between atoms: N_8  and  C_9
REMARK    5  A    between atoms: C_9  and  C_10
REMARK    6  A    between atoms: C_18  and  C_19
REMARK    7  A    between atoms: C_19  and  C_20
REMARK    8  A    between atoms: C_19  and  C_21
REMARK                            x       y       z     vdW  Elec       q    Type
REMARK                         _______ _______ _______ _____ _____    ______ ____
ROOT
ATOM      1  C   UNL     1       5.709   4.253  18.575  0.00  0.00    +0.000 C 
ATOM      2  O   UNL     1       5.921   4.803  19.652  0.00  0.00    +0.000 OA
ATOM      3  N   UNL     1       4.892   3.156  18.449  0.00  0.00    +0.000 N 
ATOM      4  H   UNL     1       4.580   2.864  17.533  0.00  0.00    +0.000 HD
ENDROOT
BRANCH   1   7
ATOM      5  N   UNL     1       6.935   4.929  15.238  0.00  0.00    +0.000 N 
ATOM      6  C   UNL     1       6.286   4.094  16.097  0.00  0.00    +0.000 A 
ATOM      7  C   UNL     1       6.287   4.725  17.328  0.00  0.00    +0.000 A 
ATOM      8  C   UNL     1       7.013   5.932  17.101  0.00  0.00    +0.000 A 
ATOM      9  N   UNL     1       7.408   6.039  15.822  0.00  0.00    +0.000 NA
BRANCH   8  10
ATOM     10  C   UNL     1       7.328   7.014  18.101  0.00  0.00    +0.000 C 
ATOM     11  C   UNL     1       8.392   6.556  19.100  0.00  0.00    +0.000 C 
ATOM     12  C   UNL     1       7.746   8.332  17.444  0.00  0.00    +0.000 C 
ENDBRANCH   8  10
BRANCH   5  14
ATOM     13  C   UNL     1       6.116   3.723  13.261  0.00  0.00    +0.000 C 
ATOM     14  C   UNL     1       7.102   4.742  13.808  0.00  0.00    +0.000 C 
ENDBRANCH   5  14
ENDBRANCH   1   7
BRANCH   3  15
ATOM     15  C   UNL     1       4.194   2.584  19.585  0.00  0.00    +0.000 C 
BRANCH  15  16
ATOM     16  C   UNL     1       2.734   3.088  19.687  0.00  0.00    +0.000 C 
ATOM     17  C   UNL     1       1.745   1.956  19.368  0.00  0.00    +0.000 C 
ATOM     18  C   UNL     1       0.553   2.665  18.763  0.00  0.00    +0.000 C 
ATOM     19  C   UNL     1       1.177   3.827  18.014  0.00  0.00    +0.000 C 
ATOM     20  N   UNL     1       2.443   4.167  18.689  0.00  0.00    +0.000 NA
ATOM     21  C   UNL     1       2.336   5.422  19.454  0.00  0.00    +0.000 C 
ATOM     22  C   UNL     1       1.797   5.031  20.813  0.00  0.00    +0.000 C 
ATOM     23  C   UNL     1       2.483   3.706  21.080  0.00  0.00    +0.000 C 
ENDBRANCH  15  16
ENDBRANCH   3  15
TORSDOF 5
ENDMDL
MODEL 6
REMARK VINA RESULT:      -7.9      1.333      1.497
REMARK  Name = 
REMARK  8 active torsions:
REMARK  status: ('A' for Active; 'I' for Inactive)
REMARK    1  A    between atoms: C_1  and  C_2
REMARK    2  A    between atoms: C_2  and  N_3
REMARK    3  A    between atoms: C_5  and  C_6
REMARK    4  A    between atoms: N_8  and  C_9
REMARK    5  A    between atoms: C_9  and  C_10
REMARK    6  A    between atoms: C_18  and  C_19
REMARK    7  A    between atoms: C_19  and  C_20
REMARK    8  A    between atoms: C_19  and  C_21
REMARK                            x       y       z     vdW  Elec       q    Type
REMARK                         _______ _______ _______ _____ _____    ______ ____
ROOT
ATOM      1  C   UNL     1       5.507   4.669  18.204  0.00  0.00    +0.000 C 
ATOM      2  O   UNL     1       6.024   4.048  19.129  0.00  0.00    +0.000 OA
ATOM      3  N   UNL     1       4.288   5.291  18.317  0.00  0.00    +0.000 N 
ATOM      4  H   UNL     1       3.997   5.957  17.614  0.00  0.00    +0.000 HD
ENDROOT
BRANCH   1   7
ATOM      5  N   UNL     1       6.798   4.566  14.825  0.00  0.00    +0.000 N 
ATOM      6  C   UNL     1       6.014   4.015  15.793  0.00  0.00    +0.000 A 
ATOM      7  C   UNL     1       6.149   4.821  16.909  0.00  0.00    +0.000 A 
ATOM      8  C   UNL     1       7.088   5.817  16.508  0.00  0.00    +0.000 A 
ATOM      9  N   UNL     1       7.480   5.644  15.235  0.00  0.00    +0.000 NA
BRANCH   8  10
ATOM     10  C   UNL     1       7.615   6.964  17.332  0.00  0.00    +0.000 C 
ATOM     11  C   UNL     1       6.584   8.089  17.442  0.00  0.00    +0.000 C 
ATOM     12  C   UNL     1       8.086   6.534  18.723  0.00  0.00    +0.000 C 
ENDBRANCH   8  10
BRANCH   5  14
ATOM     13  C   UNL     1       5.587   3.591  12.923  0.00  0.00    +0.000 C 
ATOM     14  C   UNL     1       6.909   4.127  13.445  0.00  0.00    +0.000 C 
ENDBRANCH   5  14
ENDBRANCH   1   7
BRANCH   3  15
ATOM     15  C   UNL     1       3.533   5.282  19.555  0.00  0.00    +0.000 C 
BRANCH  15  16
ATOM     16  C   UNL     1       2.507   4.125  19.604  0.00  0.00    +0.000 C 
ATOM     17  C   UNL     1       1.377   4.442  20.596  0.00  0.00    +0.000 C 
ATOM     18  C   UNL     1       0.948   3.086  21.114  0.00  0.00    +0.000 C 
ATOM     19  C   UNL     1       2.238   2.290  21.133  0.00  0.00    +0.000 C 
ATOM     20  N   UNL     1       3.124   2.850  20.095  0.00  0.00    +0.000 NA
ATOM     21  C   UNL     1       3.226   1.961  18.923  0.00  0.00    +0.000 C 
ATOM     22  C   UNL     1       2.062   2.325  18.028  0.00  0.00    +0.000 C 
ATOM     23  C   UNL     1       1.972   3.829  18.186  0.00  0.00    +0.000 C 
ENDBRANCH  15  16
ENDBRANCH   3  15
TORSDOF 5
ENDMDL
MODEL 7
REMARK VINA RESULT:      -7.7      1.614      2.694
REMARK  Name = 
REMARK  8 active torsions:
REMARK  status: ('A' for Active; 'I' for Inactive)
REMARK    1  A    between atoms: C_1  and  C_2
REMARK    2  A    between atoms: C_2  and  N_3
REMARK    3  A    between atoms: C_5  and  C_6
REMARK    4  A    between atoms: N_8  and  C_9
REMARK    5  A    between atoms: C_9  and  C_10
REMARK    6  A    between atoms: C_18  and  C_19
REMARK    7  A    between atoms: C_19  and  C_20
REMARK    8  A    between atoms: C_19  and  C_21
REMARK                            x       y       z     vdW  Elec       q    Type
REMARK                         _______ _______ _______ _____ _____    ______ ____
ROOT
ATOM      1  C   UNL     1       5.941   4.043  17.880  0.00  0.00    +0.000 C 
ATOM      2  O   UNL     1       6.756   4.425  18.714  0.00  0.00    +0.000 OA
ATOM      3  N   UNL     1       4.844   3.284  18.206  0.00  0.00    +0.000 N 
ATOM      4  H   UNL     1       4.096   3.167  17.536  0.00  0.00    +0.000 HD
ENDROOT
BRANCH   1   7
ATOM      5  N   UNL     1       6.317   4.298  14.289  0.00  0.00    +0.000 N 
ATOM      6  C   UNL     1       6.339   3.530  15.415  0.00  0.00    +0.000 A 
ATOM      7  C   UNL     1       6.050   4.377  16.469  0.00  0.00    +0.000 A 
ATOM      8  C   UNL     1       5.914   5.659  15.860  0.00  0.00    +0.000 A 
ATOM      9  N   UNL     1       6.087   5.597  14.530  0.00  0.00    +0.000 NA
BRANCH   8  10
ATOM     10  C   UNL     1       5.598   6.968  16.539  0.00  0.00    +0.000 C 
ATOM     11  C   UNL     1       4.328   6.864  17.384  0.00  0.00    +0.000 C 
ATOM     12  C   UNL     1       6.760   7.498  17.384  0.00  0.00    +0.000 C 
ENDBRANCH   8  10
BRANCH   5  14
ATOM     13  C   UNL     1       5.126   3.501  12.295  0.00  0.00    +0.000 C 
ATOM     14  C   UNL     1       6.469   3.836  12.921  0.00  0.00    +0.000 C 
ENDBRANCH   5  14
ENDBRANCH   1   7
BRANCH   3  15
ATOM     15  C   UNL     1       4.554   2.901  19.575  0.00  0.00    +0.000 C 
BRANCH  15  16
ATOM     16  C   UNL     1       3.033   2.792  19.841  0.00  0.00    +0.000 C 
ATOM     17  C   UNL     1       2.380   1.803  18.864  0.00  0.00    +0.000 C 
ATOM     18  C   UNL     1       0.973   2.331  18.687  0.00  0.00    +0.000 C 
ATOM     19  C   UNL     1       1.146   3.835  18.782  0.00  0.00    +0.000 C 
ATOM     20  N   UNL     1       2.331   4.097  19.619  0.00  0.00    +0.000 NA
ATOM     21  C   UNL     1       1.959   4.600  20.954  0.00  0.00    +0.000 C 
ATOM     22  C   UNL     1       1.716   3.372  21.803  0.00  0.00    +0.000 C 
ATOM     23  C   UNL     1       2.779   2.408  21.315  0.00  0.00    +0.000 C 
ENDBRANCH  15  16
ENDBRANCH   3  15
TORSDOF 5
ENDMDL
MODEL 8
REMARK VINA RESULT:      -7.7      1.644      2.448
REMARK  Name = 
REMARK  8 active torsions:
REMARK  status: ('A' for Active; 'I' for Inactive)
REMARK    1  A    between atoms: C_1  and  C_2
REMARK    2  A    between atoms: C_2  and  N_3
REMARK    3  A    between atoms: C_5  and  C_6
REMARK    4  A    between atoms: N_8  and  C_9
REMARK    5  A    between atoms: C_9  and  C_10
REMARK    6  A    between atoms: C_18  and  C_19
REMARK    7  A    between atoms: C_19  and  C_20
REMARK    8  A    between atoms: C_19  and  C_21
REMARK                            x       y       z     vdW  Elec       q    Type
REMARK                         _______ _______ _______ _____ _____    ______ ____
ROOT
ATOM      1  C   UNL     1       5.951   4.020  17.860  0.00  0.00    +0.000 C 
ATOM      2  O   UNL     1       6.756   4.372  18.717  0.00  0.00    +0.000 OA
ATOM      3  N   UNL     1       4.820   3.298  18.155  0.00  0.00    +0.000 N 
ATOM      4  H   UNL     1       4.086   3.209  17.465  0.00  0.00    +0.000 HD
ENDROOT
BRANCH   1   7
ATOM      5  N   UNL     1       6.382   4.273  14.276  0.00  0.00    +0.000 N 
ATOM      6  C   UNL     1       6.309   3.495  15.392  0.00  0.00    +0.000 A 
ATOM      7  C   UNL     1       6.107   4.357  16.455  0.00  0.00    +0.000 A 
ATOM      8  C   UNL     1       6.120   5.652  15.860  0.00  0.00    +0.000 A 
ATOM      9  N   UNL     1       6.296   5.586  14.530  0.00  0.00    +0.000 NA
BRANCH   8  10
ATOM     10  C   UNL     1       5.948   6.980  16.552  0.00  0.00    +0.000 C 
ATOM     11  C   UNL     1       4.651   7.021  17.362  0.00  0.00    +0.000 C 
ATOM     12  C   UNL     1       7.141   7.353  17.436  0.00  0.00    +0.000 C 
ENDBRANCH   8  10
BRANCH   5  14
ATOM     13  C   UNL     1       5.135   3.435  12.332  0.00  0.00    +0.000 C 
ATOM     14  C   UNL     1       6.492   3.812  12.903  0.00  0.00    +0.000 C 
ENDBRANCH   5  14
ENDBRANCH   1   7
BRANCH   3  15
ATOM     15  C   UNL     1       4.483   2.920  19.513  0.00  0.00    +0.000 C 
BRANCH  15  16
ATOM     16  C   UNL     1       3.122   3.506  19.961  0.00  0.00    +0.000 C 
ATOM     17  C   UNL     1       2.634   2.824  21.248  0.00  0.00    +0.000 C 
ATOM     18  C   UNL     1       1.125   2.873  21.144  0.00  0.00    +0.000 C 
ATOM     19  C   UNL     1       0.869   2.730  19.656  0.00  0.00    +0.000 C 
ATOM     20  N   UNL     1       2.047   3.263  18.946  0.00  0.00    +0.000 NA
ATOM     21  C   UNL     1       1.765   4.567  18.319  0.00  0.00    +0.000 C 
ATOM     22  C   UNL     1       2.028   5.603  19.390  0.00  0.00    +0.000 C 
ATOM     23  C   UNL     1       3.231   5.039  20.118  0.00  0.00    +0.000 C 
ENDBRANCH  15  16
ENDBRANCH   3  15
TORSDOF 5
ENDMDL
MODEL 9
REMARK VINA RESULT:      -7.6      1.270      2.359
REMARK  Name = 
REMARK  8 active torsions:
REMARK  status: ('A' for Active; 'I' for Inactive)
REMARK    1  A    between atoms: C_1  and  C_2
REMARK    2  A    between atoms: C_2  and  N_3
REMARK    3  A    between atoms: C_5  and  C_6
REMARK    4  A    between atoms: N_8  and  C_9
REMARK    5  A    between atoms: C_9  and  C_10
REMARK    6  A    between atoms: C_18  and  C_19
REMARK    7  A    between atoms: C_19  and  C_20
REMARK    8  A    between atoms: C_19  and  C_21
REMARK                            x       y       z     vdW  Elec       q    Type
REMARK                         _______ _______ _______ _____ _____    ______ ____
ROOT
ATOM      1  C   UNL     1       5.130   4.724  18.173  0.00  0.00    +0.000 C 
ATOM      2  O   UNL     1       4.530   5.696  18.622  0.00  0.00    +0.000 OA
ATOM      3  N   UNL     1       5.192   3.520  18.830  0.00  0.00    +0.000 N 
ATOM      4  H   UNL     1       5.512   2.695  18.339  0.00  0.00    +0.000 HD
ENDROOT
BRANCH   1   7
ATOM      5  N   UNL     1       6.435   4.387  14.814  0.00  0.00    +0.000 N 
ATOM      6  C   UNL     1       5.536   4.001  15.762  0.00  0.00    +0.000 A 
ATOM      7  C   UNL     1       5.814   4.752  16.890  0.00  0.00    +0.000 A 
ATOM      8  C   UNL     1       6.944   5.536  16.517  0.00  0.00    +0.000 A 
ATOM      9  N   UNL     1       7.317   5.298  15.249  0.00  0.00    +0.000 NA
BRANCH   8  10
ATOM     10  C   UNL     1       7.681   6.543  17.363  0.00  0.00    +0.000 C 
ATOM     11  C   UNL     1       6.946   7.885  17.398  0.00  0.00    +0.000 C 
ATOM     12  C   UNL     1       7.950   6.046  18.786  0.00  0.00    +0.000 C 
ENDBRANCH   8  10
BRANCH   5  14
ATOM     13  C   UNL     1       7.422   4.805  12.603  0.00  0.00    +0.000 C 
ATOM     14  C   UNL     1       6.479   3.947  13.431  0.00  0.00    +0.000 C 
ENDBRANCH   5  14
ENDBRANCH   1   7
BRANCH   3  15
ATOM     15  C   UNL     1       4.523   3.301  20.098  0.00  0.00    +0.000 C 
BRANCH  15  16
ATOM     16  C   UNL     1       3.062   2.827  19.914  0.00  0.00    +0.000 C 
ATOM     17  C   UNL     1       2.960   1.814  18.763  0.00  0.00    +0.000 C 
ATOM     18  C   UNL     1       1.570   2.026  18.205  0.00  0.00    +0.000 C 
ATOM     19  C   UNL     1       1.339   3.514  18.387  0.00  0.00    +0.000 C 
ATOM     20  N   UNL     1       2.151   3.956  19.536  0.00  0.00    +0.000 NA
ATOM     21  C   UNL     1       1.319   4.232  20.721  0.00  0.00    +0.000 C 
ATOM     22  C   UNL     1       1.161   2.905  21.431  0.00  0.00    +0.000 C 
ATOM     23  C   UNL     1       2.518   2.257  21.242  0.00  0.00    +0.000 C 
ENDBRANCH  15  16
ENDBRANCH   3  15
TORSDOF 5
ENDMDL
