MODEL 1
REMARK VINA RESULT:      -8.2      0.000      0.000
REMARK  Name = 
REMARK  3 active torsions:
REMARK  status: ('A' for Active; 'I' for Inactive)
REMARK    1  A    between atoms: C_4  and  N_5
REMARK    2  A    between atoms: C_6  and  C_7
REMARK    3  A    between atoms: C_10  and  O_11
REMARK                            x       y       z     vdW  Elec       q    Type
REMARK                         _______ _______ _______ _____ _____    ______ ____
ROOT
ATOM      1  O   UNL     1       7.495   5.233  20.194  0.00  0.00    +0.000 OA
ATOM      2  C   UNL     1       6.907   5.234  19.124  0.00  0.00    +0.000 C 
ATOM      3  C   UNL     1       5.602   5.902  18.989  0.00  0.00    +0.000 C 
ATOM      4  C   UNL     1       5.132   6.303  17.797  0.00  0.00    +0.000 C 
ATOM      5  C   UNL     1       5.639   5.591  16.585  0.00  0.00    +0.000 A 
ATOM      6  C   UNL     1       4.917   5.628  15.378  0.00  0.00    +0.000 A 
ATOM      7  C   UNL     1       5.291   4.844  14.282  0.00  0.00    +0.000 A 
ATOM      8  C   UNL     1       6.412   4.020  14.361  0.00  0.00    +0.000 A 
ATOM      9  C   UNL     1       7.165   3.988  15.527  0.00  0.00    +0.000 A 
ATOM     10  C   UNL     1       6.774   4.768  16.629  0.00  0.00    +0.000 A 
ATOM     11  C   UNL     1       7.542   4.658  17.878  0.00  0.00    +0.000 C 
ATOM     12  O   UNL     1       8.638   4.122  17.918  0.00  0.00    +0.000 OA
ENDROOT
BRANCH   4  13
ATOM     13  N   UNL     1       4.111   7.209  17.606  0.00  0.00    +0.000 NA
ATOM     14  C   UNL     1       2.877   7.064  18.008  0.00  0.00    +0.000 C 
BRANCH  14  15
ATOM     15  C   UNL     1       2.204   5.941  18.699  0.00  0.00    +0.000 A 
ATOM     16  C   UNL     1       2.049   5.892  20.086  0.00  0.00    +0.000 A 
ATOM     17  C   UNL     1       1.777   4.670  20.703  0.00  0.00    +0.000 A 
ATOM     18  C   UNL     1       1.561   3.540  19.920  0.00  0.00    +0.000 A 
ATOM     19  C   UNL     1       1.536   3.625  18.532  0.00  0.00    +0.000 A 
ATOM     20  C   UNL     1       1.866   4.832  17.913  0.00  0.00    +0.000 A 
BRANCH  18  21
ATOM     21  O   UNL     1       1.408   2.309  20.483  0.00  0.00    +0.000 OA
ATOM     22  H   UNL     1       2.205   1.784  20.291  0.00  0.00    +0.000 HD
ENDBRANCH  18  21
ENDBRANCH  14  15
ENDBRANCH   4  13
TORSDOF 3
ENDMDL
MODEL 2
REMARK VINA RESULT:      -7.9      2.280      6.002
REMARK  Name = 
REMARK  3 active torsions:
REMARK  status: ('A' for Active; 'I' for Inactive)
REMARK    1  A    between atoms: C_4  and  N_5
REMARK    2  A    between atoms: C_6  and  C_7
REMARK    3  A    between atoms: C_10  and  O_11
REMARK                            x       y       z     vdW  Elec       q    Type
REMARK                         _______ _______ _______ _____ _____    ______ ____
ROOT
ATOM      1  O   UNL     1       2.981   8.326  18.203  0.00  0.00    +0.000 OA
ATOM      2  C   UNL     1       2.815   7.125  18.352  0.00  0.00    +0.000 C 
ATOM      3  C   UNL     1       3.247   6.175  17.314  0.00  0.00    +0.000 C 
ATOM      4  C   UNL     1       3.486   4.884  17.591  0.00  0.00    +0.000 C 
ATOM      5  C   UNL     1       2.790   4.296  18.776  0.00  0.00    +0.000 A 
ATOM      6  C   UNL     1       2.628   2.904  18.894  0.00  0.00    +0.000 A 
ATOM      7  C   UNL     1       1.847   2.346  19.912  0.00  0.00    +0.000 A 
ATOM      8  C   UNL     1       1.227   3.169  20.849  0.00  0.00    +0.000 A 
ATOM      9  C   UNL     1       1.397   4.546  20.780  0.00  0.00    +0.000 A 
ATOM     10  C   UNL     1       2.172   5.099  19.746  0.00  0.00    +0.000 A 
ATOM     11  C   UNL     1       2.272   6.563  19.647  0.00  0.00    +0.000 C 
ATOM     12  O   UNL     1       1.929   7.297  20.560  0.00  0.00    +0.000 OA
ENDROOT
BRANCH   4  13
ATOM     13  N   UNL     1       4.196   4.014  16.790  0.00  0.00    +0.000 NA
ATOM     14  C   UNL     1       5.492   4.006  16.635  0.00  0.00    +0.000 C 
BRANCH  14  15
ATOM     15  C   UNL     1       6.544   4.894  17.181  0.00  0.00    +0.000 A 
ATOM     16  C   UNL     1       7.121   4.696  18.436  0.00  0.00    +0.000 A 
ATOM     17  C   UNL     1       7.795   5.751  19.055  0.00  0.00    +0.000 A 
ATOM     18  C   UNL     1       7.971   6.949  18.367  0.00  0.00    +0.000 A 
ATOM     19  C   UNL     1       7.555   7.083  17.047  0.00  0.00    +0.000 A 
ATOM     20  C   UNL     1       6.830   6.052  16.448  0.00  0.00    +0.000 A 
BRANCH  18  21
ATOM     21  O   UNL     1       8.519   8.037  18.975  0.00  0.00    +0.000 OA
ATOM     22  H   UNL     1       9.430   7.815  19.235  0.00  0.00    +0.000 HD
ENDBRANCH  18  21
ENDBRANCH  14  15
ENDBRANCH   4  13
TORSDOF 3
ENDMDL
MODEL 3
REMARK VINA RESULT:      -7.8      1.940      2.478
REMARK  Name = 
REMARK  3 active torsions:
REMARK  status: ('A' for Active; 'I' for Inactive)
REMARK    1  A    between atoms: C_4  and  N_5
REMARK    2  A    between atoms: C_6  and  C_7
REMARK    3  A    between atoms: C_10  and  O_11
REMARK                            x       y       z     vdW  Elec       q    Type
REMARK                         _______ _______ _______ _____ _____    ______ ____
ROOT
ATOM      1  O   UNL     1       6.816   5.461  19.878  0.00  0.00    +0.000 OA
ATOM      2  C   UNL     1       6.521   5.035  18.773  0.00  0.00    +0.000 C 
ATOM      3  C   UNL     1       5.464   4.022  18.619  0.00  0.00    +0.000 C 
ATOM      4  C   UNL     1       4.817   3.844  17.456  0.00  0.00    +0.000 C 
ATOM      5  C   UNL     1       5.526   4.253  16.207  0.00  0.00    +0.000 A 
ATOM      6  C   UNL     1       5.141   3.728  14.960  0.00  0.00    +0.000 A 
ATOM      7  C   UNL     1       5.890   3.975  13.803  0.00  0.00    +0.000 A 
ATOM      8  C   UNL     1       7.030   4.774  13.865  0.00  0.00    +0.000 A 
ATOM      9  C   UNL     1       7.415   5.335  15.075  0.00  0.00    +0.000 A 
ATOM     10  C   UNL     1       6.667   5.069  16.235  0.00  0.00    +0.000 A 
ATOM     11  C   UNL     1       7.140   5.610  17.518  0.00  0.00    +0.000 C 
ATOM     12  O   UNL     1       7.996   6.478  17.577  0.00  0.00    +0.000 OA
ENDROOT
BRANCH   4  13
ATOM     13  N   UNL     1       3.619   3.178  17.304  0.00  0.00    +0.000 NA
ATOM     14  C   UNL     1       2.456   3.591  17.730  0.00  0.00    +0.000 C 
BRANCH  14  15
ATOM     15  C   UNL     1       2.075   4.792  18.508  0.00  0.00    +0.000 A 
ATOM     16  C   UNL     1       2.314   6.091  18.055  0.00  0.00    +0.000 A 
ATOM     17  C   UNL     1       2.303   7.148  18.967  0.00  0.00    +0.000 A 
ATOM     18  C   UNL     1       1.953   6.906  20.293  0.00  0.00    +0.000 A 
ATOM     19  C   UNL     1       1.539   5.644  20.704  0.00  0.00    +0.000 A 
ATOM     20  C   UNL     1       1.606   4.575  19.809  0.00  0.00    +0.000 A 
BRANCH  18  21
ATOM     21  O   UNL     1       2.041   7.884  21.236  0.00  0.00    +0.000 OA
ATOM     22  H   UNL     1       2.115   8.741  20.782  0.00  0.00    +0.000 HD
ENDBRANCH  18  21
ENDBRANCH  14  15
ENDBRANCH   4  13
TORSDOF 3
ENDMDL
MODEL 4
REMARK VINA RESULT:      -7.6      1.875      5.729
REMARK  Name = 
REMARK  3 active torsions:
REMARK  status: ('A' for Active; 'I' for Inactive)
REMARK    1  A    between atoms: C_4  and  N_5
REMARK    2  A    between atoms: C_6  and  C_7
REMARK    3  A    between atoms: C_10  and  O_11
REMARK                            x       y       z     vdW  Elec       q    Type
REMARK                         _______ _______ _______ _____ _____    ______ ____
ROOT
ATOM      1  O   UNL     1       3.728   1.733  20.833  0.00  0.00    +0.000 OA
ATOM      2  C   UNL     1       3.571   2.802  20.265  0.00  0.00    +0.000 C 
ATOM      3  C   UNL     1       4.139   3.029  18.926  0.00  0.00    +0.000 C 
ATOM      4  C   UNL     1       3.655   3.972  18.102  0.00  0.00    +0.000 C 
ATOM      5  C   UNL     1       2.952   5.133  18.726  0.00  0.00    +0.000 A 
ATOM      6  C   UNL     1       2.801   6.342  18.023  0.00  0.00    +0.000 A 
ATOM      7  C   UNL     1       2.287   7.486  18.643  0.00  0.00    +0.000 A 
ATOM      8  C   UNL     1       1.890   7.439  19.978  0.00  0.00    +0.000 A 
ATOM      9  C   UNL     1       1.993   6.251  20.689  0.00  0.00    +0.000 A 
ATOM     10  C   UNL     1       2.525   5.110  20.062  0.00  0.00    +0.000 A 
ATOM     11  C   UNL     1       2.698   3.886  20.858  0.00  0.00    +0.000 C 
ATOM     12  O   UNL     1       2.170   3.744  21.949  0.00  0.00    +0.000 OA
ENDROOT
BRANCH   4  13
ATOM     13  N   UNL     1       3.884   4.038  16.744  0.00  0.00    +0.000 NA
ATOM     14  C   UNL     1       4.939   4.553  16.172  0.00  0.00    +0.000 C 
BRANCH  14  15
ATOM     15  C   UNL     1       6.122   5.235  16.746  0.00  0.00    +0.000 A 
ATOM     16  C   UNL     1       7.084   4.565  17.504  0.00  0.00    +0.000 A 
ATOM     17  C   UNL     1       7.937   5.298  18.332  0.00  0.00    +0.000 A 
ATOM     18  C   UNL     1       7.885   6.689  18.309  0.00  0.00    +0.000 A 
ATOM     19  C   UNL     1       7.053   7.359  17.419  0.00  0.00    +0.000 A 
ATOM     20  C   UNL     1       6.158   6.630  16.634  0.00  0.00    +0.000 A 
BRANCH  18  21
ATOM     21  O   UNL     1       8.617   7.438  19.180  0.00  0.00    +0.000 OA
ATOM     22  H   UNL     1       8.794   6.899  19.971  0.00  0.00    +0.000 HD
ENDBRANCH  18  21
ENDBRANCH  14  15
ENDBRANCH   4  13
TORSDOF 3
ENDMDL
MODEL 5
REMARK VINA RESULT:      -7.4      0.629      1.226
REMARK  Name = 
REMARK  3 active torsions:
REMARK  status: ('A' for Active; 'I' for Inactive)
REMARK    1  A    between atoms: C_4  and  N_5
REMARK    2  A    between atoms: C_6  and  C_7
REMARK    3  A    between atoms: C_10  and  O_11
REMARK                            x       y       z     vdW  Elec       q    Type
REMARK                         _______ _______ _______ _____ _____    ______ ____
ROOT
ATOM      1  O   UNL     1       7.845   5.188  20.238  0.00  0.00    +0.000 OA
ATOM      2  C   UNL     1       7.177   5.161  19.216  0.00  0.00    +0.000 C 
ATOM      3  C   UNL     1       5.818   5.727  19.197  0.00  0.00    +0.000 C 
ATOM      4  C   UNL     1       5.227   6.111  18.054  0.00  0.00    +0.000 C 
ATOM      5  C   UNL     1       5.690   5.462  16.791  0.00  0.00    +0.000 A 
ATOM      6  C   UNL     1       4.875   5.463  15.644  0.00  0.00    +0.000 A 
ATOM      7  C   UNL     1       5.221   4.729  14.504  0.00  0.00    +0.000 A 
ATOM      8  C   UNL     1       6.405   3.994  14.478  0.00  0.00    +0.000 A 
ATOM      9  C   UNL     1       7.248   4.002  15.582  0.00  0.00    +0.000 A 
ATOM     10  C   UNL     1       6.885   4.730  16.729  0.00  0.00    +0.000 A 
ATOM     11  C   UNL     1       7.754   4.659  17.912  0.00  0.00    +0.000 C 
ATOM     12  O   UNL     1       8.888   4.210  17.855  0.00  0.00    +0.000 OA
ENDROOT
BRANCH   4  13
ATOM     13  N   UNL     1       4.126   6.937  17.964  0.00  0.00    +0.000 NA
ATOM     14  C   UNL     1       2.897   6.606  18.254  0.00  0.00    +0.000 C 
BRANCH  14  15
ATOM     15  C   UNL     1       2.313   5.316  18.688  0.00  0.00    +0.000 A 
ATOM     16  C   UNL     1       2.032   4.278  17.799  0.00  0.00    +0.000 A 
ATOM     17  C   UNL     1       1.142   3.271  18.179  0.00  0.00    +0.000 A 
ATOM     18  C   UNL     1       0.631   3.262  19.474  0.00  0.00    +0.000 A 
ATOM     19  C   UNL     1       1.052   4.194  20.416  0.00  0.00    +0.000 A 
ATOM     20  C   UNL     1       1.894   5.235  20.022  0.00  0.00    +0.000 A 
BRANCH  18  21
ATOM     21  O   UNL     1      -0.325   2.367  19.849  0.00  0.00    +0.000 OA
ATOM     22  H   UNL     1      -0.120   1.510  19.437  0.00  0.00    +0.000 HD
ENDBRANCH  18  21
ENDBRANCH  14  15
ENDBRANCH   4  13
TORSDOF 3
ENDMDL
MODEL 6
REMARK VINA RESULT:      -7.1      2.324      4.147
REMARK  Name = 
REMARK  3 active torsions:
REMARK  status: ('A' for Active; 'I' for Inactive)
REMARK    1  A    between atoms: C_4  and  N_5
REMARK    2  A    between atoms: C_6  and  C_7
REMARK    3  A    between atoms: C_10  and  O_11
REMARK                            x       y       z     vdW  Elec       q    Type
REMARK                         _______ _______ _______ _____ _____    ______ ____
ROOT
ATOM      1  O   UNL     1       6.651   5.297  14.823  0.00  0.00    +0.000 OA
ATOM      2  C   UNL     1       5.930   5.425  15.800  0.00  0.00    +0.000 C 
ATOM      3  C   UNL     1       6.016   4.477  16.923  0.00  0.00    +0.000 C 
ATOM      4  C   UNL     1       5.589   4.798  18.154  0.00  0.00    +0.000 C 
ATOM      5  C   UNL     1       4.541   5.857  18.263  0.00  0.00    +0.000 A 
ATOM      6  C   UNL     1       3.739   5.957  19.414  0.00  0.00    +0.000 A 
ATOM      7  C   UNL     1       2.652   6.837  19.470  0.00  0.00    +0.000 A 
ATOM      8  C   UNL     1       2.358   7.656  18.382  0.00  0.00    +0.000 A 
ATOM      9  C   UNL     1       3.153   7.606  17.245  0.00  0.00    +0.000 A 
ATOM     10  C   UNL     1       4.233   6.708  17.190  0.00  0.00    +0.000 A 
ATOM     11  C   UNL     1       5.011   6.617  15.946  0.00  0.00    +0.000 C 
ATOM     12  O   UNL     1       4.922   7.458  15.065  0.00  0.00    +0.000 OA
ENDROOT
BRANCH   4  13
ATOM     13  N   UNL     1       5.922   4.130  19.313  0.00  0.00    +0.000 NA
ATOM     14  C   UNL     1       5.215   3.192  19.883  0.00  0.00    +0.000 C 
BRANCH  14  15
ATOM     15  C   UNL     1       3.895   2.617  19.532  0.00  0.00    +0.000 A 
ATOM     16  C   UNL     1       3.610   2.103  18.266  0.00  0.00    +0.000 A 
ATOM     17  C   UNL     1       2.278   1.946  17.874  0.00  0.00    +0.000 A 
ATOM     18  C   UNL     1       1.260   2.206  18.787  0.00  0.00    +0.000 A 
ATOM     19  C   UNL     1       1.550   2.544  20.104  0.00  0.00    +0.000 A 
ATOM     20  C   UNL     1       2.876   2.759  20.482  0.00  0.00    +0.000 A 
BRANCH  18  21
ATOM     21  O   UNL     1      -0.049   2.177  18.412  0.00  0.00    +0.000 OA
ATOM     22  H   UNL     1      -0.100   1.814  17.510  0.00  0.00    +0.000 HD
ENDBRANCH  18  21
ENDBRANCH  14  15
ENDBRANCH   4  13
TORSDOF 3
ENDMDL
MODEL 7
REMARK VINA RESULT:      -7.1      2.191      2.728
REMARK  Name = 
REMARK  3 active torsions:
REMARK  status: ('A' for Active; 'I' for Inactive)
REMARK    1  A    between atoms: C_4  and  N_5
REMARK    2  A    between atoms: C_6  and  C_7
REMARK    3  A    between atoms: C_10  and  O_11
REMARK                            x       y       z     vdW  Elec       q    Type
REMARK                         _______ _______ _______ _____ _____    ______ ____
ROOT
ATOM      1  O   UNL     1       7.082   5.523  20.131  0.00  0.00    +0.000 OA
ATOM      2  C   UNL     1       6.608   5.148  19.070  0.00  0.00    +0.000 C 
ATOM      3  C   UNL     1       5.328   4.422  19.036  0.00  0.00    +0.000 C 
ATOM      4  C   UNL     1       4.570   4.373  17.929  0.00  0.00    +0.000 C 
ATOM      5  C   UNL     1       5.261   4.555  16.617  0.00  0.00    +0.000 A 
ATOM      6  C   UNL     1       4.665   4.103  15.425  0.00  0.00    +0.000 A 
ATOM      7  C   UNL     1       5.361   4.123  14.211  0.00  0.00    +0.000 A 
ATOM      8  C   UNL     1       6.662   4.618  14.158  0.00  0.00    +0.000 A 
ATOM      9  C   UNL     1       7.264   5.105  15.311  0.00  0.00    +0.000 A 
ATOM     10  C   UNL     1       6.564   5.067  16.530  0.00  0.00    +0.000 A 
ATOM     11  C   UNL     1       7.251   5.514  17.750  0.00  0.00    +0.000 C 
ATOM     12  O   UNL     1       8.294   6.146  17.710  0.00  0.00    +0.000 OA
ENDROOT
BRANCH   4  13
ATOM     13  N   UNL     1       3.239   4.017  17.889  0.00  0.00    +0.000 NA
ATOM     14  C   UNL     1       2.239   4.759  18.282  0.00  0.00    +0.000 C 
BRANCH  14  15
ATOM     15  C   UNL     1       2.208   6.103  18.904  0.00  0.00    +0.000 A 
ATOM     16  C   UNL     1       1.898   6.304  20.249  0.00  0.00    +0.000 A 
ATOM     17  C   UNL     1       1.502   7.572  20.680  0.00  0.00    +0.000 A 
ATOM     18  C   UNL     1       1.523   8.637  19.784  0.00  0.00    +0.000 A 
ATOM     19  C   UNL     1       2.006   8.474  18.490  0.00  0.00    +0.000 A 
ATOM     20  C   UNL     1       2.345   7.197  18.041  0.00  0.00    +0.000 A 
BRANCH  18  21
ATOM     21  O   UNL     1       1.037   9.862  20.131  0.00  0.00    +0.000 OA
ATOM     22  H   UNL     1       0.362  10.118  19.478  0.00  0.00    +0.000 HD
ENDBRANCH  18  21
ENDBRANCH  14  15
ENDBRANCH   4  13
TORSDOF 3
ENDMDL
MODEL 8
REMARK VINA RESULT:      -6.9      1.593      5.775
REMARK  Name = 
REMARK  3 active torsions:
REMARK  status: ('A' for Active; 'I' for Inactive)
REMARK    1  A    between atoms: C_4  and  N_5
REMARK    2  A    between atoms: C_6  and  C_7
REMARK    3  A    between atoms: C_10  and  O_11
REMARK                            x       y       z     vdW  Elec       q    Type
REMARK                         _______ _______ _______ _____ _____    ______ ____
ROOT
ATOM      1  O   UNL     1       3.364   1.221  18.021  0.00  0.00    +0.000 OA
ATOM      2  C   UNL     1       3.297   2.426  18.205  0.00  0.00    +0.000 C 
ATOM      3  C   UNL     1       4.076   3.356  17.370  0.00  0.00    +0.000 C 
ATOM      4  C   UNL     1       3.729   4.645  17.233  0.00  0.00    +0.000 C 
ATOM      5  C   UNL     1       2.926   5.260  18.333  0.00  0.00    +0.000 A 
ATOM      6  C   UNL     1       2.886   6.657  18.497  0.00  0.00    +0.000 A 
ATOM      7  C   UNL     1       2.271   7.242  19.609  0.00  0.00    +0.000 A 
ATOM      8  C   UNL     1       1.660   6.442  20.572  0.00  0.00    +0.000 A 
ATOM      9  C   UNL     1       1.652   5.062  20.420  0.00  0.00    +0.000 A 
ATOM     10  C   UNL     1       2.286   4.480  19.308  0.00  0.00    +0.000 A 
ATOM     11  C   UNL     1       2.332   3.015  19.210  0.00  0.00    +0.000 C 
ATOM     12  O   UNL     1       1.633   2.298  19.908  0.00  0.00    +0.000 OA
ENDROOT
BRANCH   4  13
ATOM     13  N   UNL     1       4.178   5.491  16.241  0.00  0.00    +0.000 NA
ATOM     14  C   UNL     1       5.392   5.955  16.126  0.00  0.00    +0.000 C 
BRANCH  14  15
ATOM     15  C   UNL     1       6.585   5.786  16.987  0.00  0.00    +0.000 A 
ATOM     16  C   UNL     1       7.278   4.578  17.087  0.00  0.00    +0.000 A 
ATOM     17  C   UNL     1       8.123   4.360  18.178  0.00  0.00    +0.000 A 
ATOM     18  C   UNL     1       8.341   5.387  19.091  0.00  0.00    +0.000 A 
ATOM     19  C   UNL     1       7.793   6.650  18.892  0.00  0.00    +0.000 A 
ATOM     20  C   UNL     1       6.903   6.853  17.837  0.00  0.00    +0.000 A 
BRANCH  18  21
ATOM     21  O   UNL     1       9.063   5.180  20.227  0.00  0.00    +0.000 OA
ATOM     22  H   UNL     1      10.007   5.289  20.013  0.00  0.00    +0.000 HD
ENDBRANCH  18  21
ENDBRANCH  14  15
ENDBRANCH   4  13
TORSDOF 3
ENDMDL
MODEL 9
REMARK VINA RESULT:      -6.9      2.032      5.228
REMARK  Name = 
REMARK  3 active torsions:
REMARK  status: ('A' for Active; 'I' for Inactive)
REMARK    1  A    between atoms: C_4  and  N_5
REMARK    2  A    between atoms: C_6  and  C_7
REMARK    3  A    between atoms: C_10  and  O_11
REMARK                            x       y       z     vdW  Elec       q    Type
REMARK                         _______ _______ _______ _____ _____    ______ ____
ROOT
ATOM      1  O   UNL     1       2.176   7.599  20.303  0.00  0.00    +0.000 OA
ATOM      2  C   UNL     1       2.480   6.689  19.548  0.00  0.00    +0.000 C 
ATOM      3  C   UNL     1       2.829   6.966  18.145  0.00  0.00    +0.000 C 
ATOM      4  C   UNL     1       3.563   6.111  17.416  0.00  0.00    +0.000 C 
ATOM      5  C   UNL     1       3.544   4.673  17.820  0.00  0.00    +0.000 A 
ATOM      6  C   UNL     1       3.906   3.666  16.906  0.00  0.00    +0.000 A 
ATOM      7  C   UNL     1       3.745   2.311  17.215  0.00  0.00    +0.000 A 
ATOM      8  C   UNL     1       3.239   1.931  18.456  0.00  0.00    +0.000 A 
ATOM      9  C   UNL     1       2.907   2.901  19.393  0.00  0.00    +0.000 A 
ATOM     10  C   UNL     1       3.057   4.261  19.070  0.00  0.00    +0.000 A 
ATOM     11  C   UNL     1       2.625   5.269  20.048  0.00  0.00    +0.000 C 
ATOM     12  O   UNL     1       2.385   4.981  21.210  0.00  0.00    +0.000 OA
ENDROOT
BRANCH   4  13
ATOM     13  N   UNL     1       4.210   6.418  16.237  0.00  0.00    +0.000 NA
ATOM     14  C   UNL     1       5.499   6.371  16.039  0.00  0.00    +0.000 C 
BRANCH  14  15
ATOM     15  C   UNL     1       6.615   6.050  16.959  0.00  0.00    +0.000 A 
ATOM     16  C   UNL     1       7.085   4.749  17.149  0.00  0.00    +0.000 A 
ATOM     17  C   UNL     1       7.841   4.452  18.284  0.00  0.00    +0.000 A 
ATOM     18  C   UNL     1       8.202   5.476  19.155  0.00  0.00    +0.000 A 
ATOM     19  C   UNL     1       7.887   6.800  18.870  0.00  0.00    +0.000 A 
ATOM     20  C   UNL     1       7.081   7.093  17.768  0.00  0.00    +0.000 A 
BRANCH  18  21
ATOM     21  O   UNL     1       8.838   5.214  20.330  0.00  0.00    +0.000 OA
ATOM     22  H   UNL     1       9.375   5.990  20.567  0.00  0.00    +0.000 HD
ENDBRANCH  18  21
ENDBRANCH  14  15
ENDBRANCH   4  13
TORSDOF 3
ENDMDL
