MODEL 1
REMARK VINA RESULT:      -8.2      0.000      0.000
REMARK  Name = 
REMARK  9 active torsions:
REMARK  status: ('A' for Active; 'I' for Inactive)
REMARK    1  A    between atoms: C_1  and  O_2
REMARK    2  A    between atoms: O_2  and  C_3
REMARK    3  A    between atoms: C_6  and  C_7
REMARK    4  A    between atoms: N_11  and  C_12
REMARK    5  A    between atoms: N_11  and  C_13
REMARK    6  A    between atoms: C_13  and  C_14
REMARK    7  A    between atoms: N_16  and  C_17
REMARK    8  A    between atoms: C_20  and  O_21
REMARK    9  A    between atoms: O_21  and  C_22
REMARK                            x       y       z     vdW  Elec       q    Type
REMARK                         _______ _______ _______ _____ _____    ______ ____
ROOT
ATOM      1  C   UNL     1       1.736   5.404  20.764  0.00  0.00    +0.000 C 
ATOM      2  O   UNL     1       0.559   5.119  20.558  0.00  0.00    +0.000 OA
ATOM      3  N   UNL     1       2.356   6.605  20.455  0.00  0.00    +0.000 N 
ATOM      4  H   UNL     1       3.373   6.570  20.396  0.00  0.00    +0.000 HD
ENDROOT
BRANCH   3   5
ATOM      5  C   UNL     1       1.726   7.775  19.983  0.00  0.00    +0.000 A 
ATOM      6  C   UNL     1       0.872   8.553  20.766  0.00  0.00    +0.000 A 
ATOM      7  C   UNL     1       0.280   9.708  20.246  0.00  0.00    +0.000 A 
ATOM      8  C   UNL     1       0.542  10.107  18.937  0.00  0.00    +0.000 A 
ATOM      9  C   UNL     1       1.363   9.315  18.134  0.00  0.00    +0.000 A 
ATOM     10  C   UNL     1       1.981   8.175  18.666  0.00  0.00    +0.000 A 
BRANCH   8  11
ATOM     11  O   UNL     1      -0.106  11.246  18.519  0.00  0.00    +0.000 OA
BRANCH  11  12
ATOM     12  C   UNL     1      -1.445  11.208  18.203  0.00  0.00    +0.000 A 
ATOM     13  C   UNL     1      -2.282  11.976  19.016  0.00  0.00    +0.000 A 
ATOM     14  C   UNL     1      -3.659  11.995  18.787  0.00  0.00    +0.000 A 
ATOM     15  C   UNL     1      -4.201  11.247  17.744  0.00  0.00    +0.000 A 
ATOM     16  C   UNL     1      -3.365  10.515  16.903  0.00  0.00    +0.000 A 
ATOM     17  C   UNL     1      -1.984  10.520  17.114  0.00  0.00    +0.000 A 
ENDBRANCH  11  12
ENDBRANCH   8  11
ENDBRANCH   3   5
BRANCH   1  18
ATOM     18  C   UNL     1       2.683   4.379  21.413  0.00  0.00    +0.000 C 
BRANCH  18  23
ATOM     19  C   UNL     1       4.585   3.374  17.757  0.00  0.00    +0.000 A 
ATOM     20  N   UNL     1       4.097   2.134  17.610  0.00  0.00    +0.000 NA
ATOM     21  O   UNL     1       3.338   1.941  18.748  0.00  0.00    +0.000 OA
ATOM     22  C   UNL     1       3.423   3.086  19.491  0.00  0.00    +0.000 A 
ATOM     23  N   UNL     1       2.765   3.125  20.669  0.00  0.00    +0.000 N 
ATOM     24  C   UNL     1       1.877   2.047  21.073  0.00  0.00    +0.000 C 
ATOM     25  N   UNL     1       4.179   4.002  18.923  0.00  0.00    +0.000 NA
BRANCH  19  29
ATOM     26  C   UNL     1       7.139   5.146  14.817  0.00  0.00    +0.000 A 
ATOM     27  C   UNL     1       6.235   4.146  14.465  0.00  0.00    +0.000 A 
ATOM     28  C   UNL     1       5.398   3.577  15.425  0.00  0.00    +0.000 A 
ATOM     29  C   UNL     1       5.459   3.987  16.766  0.00  0.00    +0.000 A 
ATOM     30  C   UNL     1       6.393   4.976  17.122  0.00  0.00    +0.000 A 
ATOM     31  C   UNL     1       7.225   5.554  16.152  0.00  0.00    +0.000 A 
BRANCH  26  33
ATOM     32  C   UNL     1       7.644   5.045  12.513  0.00  0.00    +0.000 C 
ATOM     33  O   UNL     1       7.913   5.606  13.791  0.00  0.00    +0.000 OA
ENDBRANCH  26  33
ENDBRANCH  19  29
ENDBRANCH  18  23
ENDBRANCH   1  18
TORSDOF 7
ENDMDL
MODEL 2
REMARK VINA RESULT:      -8.0      0.533      1.312
REMARK  Name = 
REMARK  9 active torsions:
REMARK  status: ('A' for Active; 'I' for Inactive)
REMARK    1  A    between atoms: C_1  and  O_2
REMARK    2  A    between atoms: O_2  and  C_3
REMARK    3  A    between atoms: C_6  and  C_7
REMARK    4  A    between atoms: N_11  and  C_12
REMARK    5  A    between atoms: N_11  and  C_13
REMARK    6  A    between atoms: C_13  and  C_14
REMARK    7  A    between atoms: N_16  and  C_17
REMARK    8  A    between atoms: C_20  and  O_21
REMARK    9  A    between atoms: O_21  and  C_22
REMARK                            x       y       z     vdW  Elec       q    Type
REMARK                         _______ _______ _______ _____ _____    ______ ____
ROOT
ATOM      1  C   UNL     1       1.651   5.719  20.742  0.00  0.00    +0.000 C 
ATOM      2  O   UNL     1       0.583   5.350  20.263  0.00  0.00    +0.000 OA
ATOM      3  N   UNL     1       2.135   7.019  20.764  0.00  0.00    +0.000 N 
ATOM      4  H   UNL     1       3.140   7.110  20.903  0.00  0.00    +0.000 HD
ENDROOT
BRANCH   3   5
ATOM      5  C   UNL     1       1.433   8.179  20.377  0.00  0.00    +0.000 A 
ATOM      6  C   UNL     1       1.516   8.734  19.099  0.00  0.00    +0.000 A 
ATOM      7  C   UNL     1       0.790   9.883  18.770  0.00  0.00    +0.000 A 
ATOM      8  C   UNL     1      -0.038  10.488  19.712  0.00  0.00    +0.000 A 
ATOM      9  C   UNL     1      -0.098   9.964  21.004  0.00  0.00    +0.000 A 
ATOM     10  C   UNL     1       0.605   8.794  21.324  0.00  0.00    +0.000 A 
BRANCH   8  11
ATOM     11  O   UNL     1      -0.691  11.623  19.292  0.00  0.00    +0.000 OA
BRANCH  11  12
ATOM     12  C   UNL     1      -1.950  11.536  18.741  0.00  0.00    +0.000 A 
ATOM     13  C   UNL     1      -2.968  12.172  19.455  0.00  0.00    +0.000 A 
ATOM     14  C   UNL     1      -4.284  12.132  18.989  0.00  0.00    +0.000 A 
ATOM     15  C   UNL     1      -4.582  11.457  17.807  0.00  0.00    +0.000 A 
ATOM     16  C   UNL     1      -3.562  10.859  17.069  0.00  0.00    +0.000 A 
ATOM     17  C   UNL     1      -2.243  10.925  17.520  0.00  0.00    +0.000 A 
ENDBRANCH  11  12
ENDBRANCH   8  11
ENDBRANCH   3   5
BRANCH   1  18
ATOM     18  C   UNL     1       2.609   4.703  21.386  0.00  0.00    +0.000 C 
BRANCH  18  23
ATOM     19  C   UNL     1       4.407   3.441  17.757  0.00  0.00    +0.000 A 
ATOM     20  N   UNL     1       3.859   2.220  17.674  0.00  0.00    +0.000 NA
ATOM     21  O   UNL     1       3.108   2.116  18.830  0.00  0.00    +0.000 OA
ATOM     22  C   UNL     1       3.259   3.288  19.518  0.00  0.00    +0.000 A 
ATOM     23  N   UNL     1       2.621   3.413  20.701  0.00  0.00    +0.000 N 
ATOM     24  C   UNL     1       1.688   2.398  21.166  0.00  0.00    +0.000 C 
ATOM     25  N   UNL     1       4.049   4.140  18.898  0.00  0.00    +0.000 NA
BRANCH  19  29
ATOM     26  C   UNL     1       7.039   4.996  14.764  0.00  0.00    +0.000 A 
ATOM     27  C   UNL     1       7.347   5.122  16.117  0.00  0.00    +0.000 A 
ATOM     28  C   UNL     1       6.489   4.606  17.090  0.00  0.00    +0.000 A 
ATOM     29  C   UNL     1       5.295   3.965  16.728  0.00  0.00    +0.000 A 
ATOM     30  C   UNL     1       4.975   3.867  15.362  0.00  0.00    +0.000 A 
ATOM     31  C   UNL     1       5.845   4.376  14.386  0.00  0.00    +0.000 A 
BRANCH  26  33
ATOM     32  C   UNL     1       7.813   5.217  12.544  0.00  0.00    +0.000 C 
ATOM     33  O   UNL     1       7.948   5.560  13.917  0.00  0.00    +0.000 OA
ENDBRANCH  26  33
ENDBRANCH  19  29
ENDBRANCH  18  23
ENDBRANCH   1  18
TORSDOF 7
ENDMDL
MODEL 3
REMARK VINA RESULT:      -7.9      1.743      2.524
REMARK  Name = 
REMARK  9 active torsions:
REMARK  status: ('A' for Active; 'I' for Inactive)
REMARK    1  A    between atoms: C_1  and  O_2
REMARK    2  A    between atoms: O_2  and  C_3
REMARK    3  A    between atoms: C_6  and  C_7
REMARK    4  A    between atoms: N_11  and  C_12
REMARK    5  A    between atoms: N_11  and  C_13
REMARK    6  A    between atoms: C_13  and  C_14
REMARK    7  A    between atoms: N_16  and  C_17
REMARK    8  A    between atoms: C_20  and  O_21
REMARK    9  A    between atoms: O_21  and  C_22
REMARK                            x       y       z     vdW  Elec       q    Type
REMARK                         _______ _______ _______ _____ _____    ______ ____
ROOT
ATOM      1  C   UNL     1       1.603   5.556  20.748  0.00  0.00    +0.000 C 
ATOM      2  O   UNL     1       0.432   5.334  20.454  0.00  0.00    +0.000 OA
ATOM      3  N   UNL     1       2.304   6.727  20.500  0.00  0.00    +0.000 N 
ATOM      4  H   UNL     1       3.319   6.642  20.516  0.00  0.00    +0.000 HD
ENDROOT
BRANCH   3   5
ATOM      5  C   UNL     1       1.769   7.931  19.996  0.00  0.00    +0.000 A 
ATOM      6  C   UNL     1       1.109   8.868  20.792  0.00  0.00    +0.000 A 
ATOM      7  C   UNL     1       0.604  10.049  20.239  0.00  0.00    +0.000 A 
ATOM      8  C   UNL     1       0.764  10.314  18.881  0.00  0.00    +0.000 A 
ATOM      9  C   UNL     1       1.388   9.366  18.069  0.00  0.00    +0.000 A 
ATOM     10  C   UNL     1       1.921   8.199  18.630  0.00  0.00    +0.000 A 
BRANCH   8  11
ATOM     11  O   UNL     1       0.215  11.494  18.434  0.00  0.00    +0.000 OA
BRANCH  11  12
ATOM     12  C   UNL     1       0.882  12.684  18.616  0.00  0.00    +0.000 A 
ATOM     13  C   UNL     1       2.207  12.709  18.175  0.00  0.00    +0.000 A 
ATOM     14  C   UNL     1       2.976  13.865  18.326  0.00  0.00    +0.000 A 
ATOM     15  C   UNL     1       2.419  14.998  18.917  0.00  0.00    +0.000 A 
ATOM     16  C   UNL     1       1.084  14.991  19.317  0.00  0.00    +0.000 A 
ATOM     17  C   UNL     1       0.308  13.844  19.140  0.00  0.00    +0.000 A 
ENDBRANCH  11  12
ENDBRANCH   8  11
ENDBRANCH   3   5
BRANCH   1  18
ATOM     18  C   UNL     1       2.447   4.481  21.454  0.00  0.00    +0.000 C 
BRANCH  18  23
ATOM     19  C   UNL     1       4.386   3.397  17.840  0.00  0.00    +0.000 A 
ATOM     20  N   UNL     1       3.859   2.173  17.687  0.00  0.00    +0.000 NA
ATOM     21  O   UNL     1       3.071   2.011  18.811  0.00  0.00    +0.000 OA
ATOM     22  C   UNL     1       3.180   3.155  19.552  0.00  0.00    +0.000 A 
ATOM     23  N   UNL     1       2.501   3.221  20.716  0.00  0.00    +0.000 N 
ATOM     24  C   UNL     1       1.569   2.175  21.106  0.00  0.00    +0.000 C 
ATOM     25  N   UNL     1       3.979   4.043  18.996  0.00  0.00    +0.000 NA
BRANCH  19  29
ATOM     26  C   UNL     1       7.055   5.071  14.945  0.00  0.00    +0.000 A 
ATOM     27  C   UNL     1       6.094   4.136  14.569  0.00  0.00    +0.000 A 
ATOM     28  C   UNL     1       5.219   3.598  15.515  0.00  0.00    +0.000 A 
ATOM     29  C   UNL     1       5.300   3.976  16.864  0.00  0.00    +0.000 A 
ATOM     30  C   UNL     1       6.291   4.898  17.244  0.00  0.00    +0.000 A 
ATOM     31  C   UNL     1       7.161   5.445  16.288  0.00  0.00    +0.000 A 
BRANCH  26  33
ATOM     32  C   UNL     1       7.564   4.986  12.641  0.00  0.00    +0.000 C 
ATOM     33  O   UNL     1       7.860   5.504  13.931  0.00  0.00    +0.000 OA
ENDBRANCH  26  33
ENDBRANCH  19  29
ENDBRANCH  18  23
ENDBRANCH   1  18
TORSDOF 7
ENDMDL
MODEL 4
REMARK VINA RESULT:      -7.6      6.439     10.551
REMARK  Name = 
REMARK  9 active torsions:
REMARK  status: ('A' for Active; 'I' for Inactive)
REMARK    1  A    between atoms: C_1  and  O_2
REMARK    2  A    between atoms: O_2  and  C_3
REMARK    3  A    between atoms: C_6  and  C_7
REMARK    4  A    between atoms: N_11  and  C_12
REMARK    5  A    between atoms: N_11  and  C_13
REMARK    6  A    between atoms: C_13  and  C_14
REMARK    7  A    between atoms: N_16  and  C_17
REMARK    8  A    between atoms: C_20  and  O_21
REMARK    9  A    between atoms: O_21  and  C_22
REMARK                            x       y       z     vdW  Elec       q    Type
REMARK                         _______ _______ _______ _____ _____    ______ ____
ROOT
ATOM      1  C   UNL     1       8.718   9.440  18.553  0.00  0.00    +0.000 C 
ATOM      2  O   UNL     1       7.884   9.994  17.843  0.00  0.00    +0.000 OA
ATOM      3  N   UNL     1       8.739   8.098  18.902  0.00  0.00    +0.000 N 
ATOM      4  H   UNL     1       9.292   7.868  19.727  0.00  0.00    +0.000 HD
ENDROOT
BRANCH   3   5
ATOM      5  C   UNL     1       7.896   7.089  18.392  0.00  0.00    +0.000 A 
ATOM      6  C   UNL     1       7.367   7.113  17.101  0.00  0.00    +0.000 A 
ATOM      7  C   UNL     1       6.542   6.080  16.647  0.00  0.00    +0.000 A 
ATOM      8  C   UNL     1       6.242   5.001  17.476  0.00  0.00    +0.000 A 
ATOM      9  C   UNL     1       6.735   4.986  18.782  0.00  0.00    +0.000 A 
ATOM     10  C   UNL     1       7.588   6.006  19.225  0.00  0.00    +0.000 A 
BRANCH   8  11
ATOM     11  O   UNL     1       5.407   4.049  16.939  0.00  0.00    +0.000 OA
BRANCH  11  12
ATOM     12  C   UNL     1       4.204   3.761  17.541  0.00  0.00    +0.000 A 
ATOM     13  C   UNL     1       3.203   4.724  17.387  0.00  0.00    +0.000 A 
ATOM     14  C   UNL     1       1.949   4.533  17.972  0.00  0.00    +0.000 A 
ATOM     15  C   UNL     1       1.694   3.379  18.710  0.00  0.00    +0.000 A 
ATOM     16  C   UNL     1       2.675   2.396  18.828  0.00  0.00    +0.000 A 
ATOM     17  C   UNL     1       3.919   2.574  18.219  0.00  0.00    +0.000 A 
ENDBRANCH  11  12
ENDBRANCH   8  11
ENDBRANCH   3   5
BRANCH   1  18
ATOM     18  C   UNL     1       9.878  10.245  19.164  0.00  0.00    +0.000 C 
BRANCH  18  23
ATOM     19  C   UNL     1       8.133  12.476  22.322  0.00  0.00    +0.000 A 
ATOM     20  N   UNL     1       8.008  13.654  21.692  0.00  0.00    +0.000 NA
ATOM     21  O   UNL     1       8.566  13.424  20.449  0.00  0.00    +0.000 OA
ATOM     22  C   UNL     1       8.980  12.121  20.425  0.00  0.00    +0.000 A 
ATOM     23  N   UNL     1       9.577  11.668  19.303  0.00  0.00    +0.000 N 
ATOM     24  C   UNL     1       9.650  12.488  18.104  0.00  0.00    +0.000 C 
ATOM     25  N   UNL     1       8.735  11.491  21.556  0.00  0.00    +0.000 NA
BRANCH  19  29
ATOM     26  C   UNL     1       6.739  11.863  26.320  0.00  0.00    +0.000 A 
ATOM     27  C   UNL     1       6.028  11.357  25.234  0.00  0.00    +0.000 A 
ATOM     28  C   UNL     1       6.491  11.553  23.931  0.00  0.00    +0.000 A 
ATOM     29  C   UNL     1       7.670  12.274  23.689  0.00  0.00    +0.000 A 
ATOM     30  C   UNL     1       8.368  12.807  24.787  0.00  0.00    +0.000 A 
ATOM     31  C   UNL     1       7.906  12.599  26.096  0.00  0.00    +0.000 A 
BRANCH  26  33
ATOM     32  C   UNL     1       6.179  10.267  27.968  0.00  0.00    +0.000 C 
ATOM     33  O   UNL     1       6.170  11.621  27.538  0.00  0.00    +0.000 OA
ENDBRANCH  26  33
ENDBRANCH  19  29
ENDBRANCH  18  23
ENDBRANCH   1  18
TORSDOF 7
ENDMDL
MODEL 5
REMARK VINA RESULT:      -7.6      2.055      2.699
REMARK  Name = 
REMARK  9 active torsions:
REMARK  status: ('A' for Active; 'I' for Inactive)
REMARK    1  A    between atoms: C_1  and  O_2
REMARK    2  A    between atoms: O_2  and  C_3
REMARK    3  A    between atoms: C_6  and  C_7
REMARK    4  A    between atoms: N_11  and  C_12
REMARK    5  A    between atoms: N_11  and  C_13
REMARK    6  A    between atoms: C_13  and  C_14
REMARK    7  A    between atoms: N_16  and  C_17
REMARK    8  A    between atoms: C_20  and  O_21
REMARK    9  A    between atoms: O_21  and  C_22
REMARK                            x       y       z     vdW  Elec       q    Type
REMARK                         _______ _______ _______ _____ _____    ______ ____
ROOT
ATOM      1  C   UNL     1       1.526   4.862  20.570  0.00  0.00    +0.000 C 
ATOM      2  O   UNL     1       0.346   4.734  20.259  0.00  0.00    +0.000 OA
ATOM      3  N   UNL     1       2.256   6.041  20.555  0.00  0.00    +0.000 N 
ATOM      4  H   UNL     1       3.269   5.929  20.533  0.00  0.00    +0.000 HD
ENDROOT
BRANCH   3   5
ATOM      5  C   UNL     1       1.749   7.336  20.321  0.00  0.00    +0.000 A 
ATOM      6  C   UNL     1       0.979   8.036  21.251  0.00  0.00    +0.000 A 
ATOM      7  C   UNL     1       0.508   9.322  20.966  0.00  0.00    +0.000 A 
ATOM      8  C   UNL     1       0.809   9.930  19.750  0.00  0.00    +0.000 A 
ATOM      9  C   UNL     1       1.545   9.222  18.798  0.00  0.00    +0.000 A 
ATOM     10  C   UNL     1       2.044   7.947  19.096  0.00  0.00    +0.000 A 
BRANCH   8  11
ATOM     11  O   UNL     1       0.282  11.186  19.563  0.00  0.00    +0.000 OA
BRANCH  11  12
ATOM     12  C   UNL     1      -1.049  11.341  19.248  0.00  0.00    +0.000 A 
ATOM     13  C   UNL     1      -1.500  10.611  18.146  0.00  0.00    +0.000 A 
ATOM     14  C   UNL     1      -2.832  10.709  17.736  0.00  0.00    +0.000 A 
ATOM     15  C   UNL     1      -3.713  11.536  18.428  0.00  0.00    +0.000 A 
ATOM     16  C   UNL     1      -3.278  12.232  19.555  0.00  0.00    +0.000 A 
ATOM     17  C   UNL     1      -1.954  12.111  19.982  0.00  0.00    +0.000 A 
ENDBRANCH  11  12
ENDBRANCH   8  11
ENDBRANCH   3   5
BRANCH   1  18
ATOM     18  C   UNL     1       2.349   3.643  21.022  0.00  0.00    +0.000 C 
BRANCH  18  23
ATOM     19  C   UNL     1       5.467   4.897  18.433  0.00  0.00    +0.000 A 
ATOM     20  N   UNL     1       5.450   3.863  17.580  0.00  0.00    +0.000 NA
ATOM     21  O   UNL     1       4.483   3.023  18.100  0.00  0.00    +0.000 OA
ATOM     22  C   UNL     1       3.988   3.622  19.225  0.00  0.00    +0.000 A 
ATOM     23  N   UNL     1       3.030   2.971  19.918  0.00  0.00    +0.000 N 
ATOM     24  C   UNL     1       2.436   1.743  19.413  0.00  0.00    +0.000 C 
ATOM     25  N   UNL     1       4.560   4.782  19.474  0.00  0.00    +0.000 NA
BRANCH  19  29
ATOM     26  C   UNL     1       8.081   8.241  17.894  0.00  0.00    +0.000 A 
ATOM     27  C   UNL     1       6.902   8.135  17.160  0.00  0.00    +0.000 A 
ATOM     28  C   UNL     1       6.047   7.047  17.345  0.00  0.00    +0.000 A 
ATOM     29  C   UNL     1       6.366   6.031  18.260  0.00  0.00    +0.000 A 
ATOM     30  C   UNL     1       7.572   6.128  18.977  0.00  0.00    +0.000 A 
ATOM     31  C   UNL     1       8.422   7.230  18.797  0.00  0.00    +0.000 A 
BRANCH  26  33
ATOM     32  C   UNL     1       9.043  10.251  18.677  0.00  0.00    +0.000 C 
ATOM     33  O   UNL     1       8.837   9.341  17.605  0.00  0.00    +0.000 OA
ENDBRANCH  26  33
ENDBRANCH  19  29
ENDBRANCH  18  23
ENDBRANCH   1  18
TORSDOF 7
ENDMDL
MODEL 6
REMARK VINA RESULT:      -7.6      2.221      3.003
REMARK  Name = 
REMARK  9 active torsions:
REMARK  status: ('A' for Active; 'I' for Inactive)
REMARK    1  A    between atoms: C_1  and  O_2
REMARK    2  A    between atoms: O_2  and  C_3
REMARK    3  A    between atoms: C_6  and  C_7
REMARK    4  A    between atoms: N_11  and  C_12
REMARK    5  A    between atoms: N_11  and  C_13
REMARK    6  A    between atoms: C_13  and  C_14
REMARK    7  A    between atoms: N_16  and  C_17
REMARK    8  A    between atoms: C_20  and  O_21
REMARK    9  A    between atoms: O_21  and  C_22
REMARK                            x       y       z     vdW  Elec       q    Type
REMARK                         _______ _______ _______ _____ _____    ______ ____
ROOT
ATOM      1  C   UNL     1       1.879   4.653  20.216  0.00  0.00    +0.000 C 
ATOM      2  O   UNL     1       0.739   4.465  19.803  0.00  0.00    +0.000 OA
ATOM      3  N   UNL     1       2.511   5.881  20.352  0.00  0.00    +0.000 N 
ATOM      4  H   UNL     1       3.529   5.846  20.402  0.00  0.00    +0.000 HD
ENDROOT
BRANCH   3   5
ATOM      5  C   UNL     1       1.919   7.149  20.183  0.00  0.00    +0.000 A 
ATOM      6  C   UNL     1       2.075   7.919  19.029  0.00  0.00    +0.000 A 
ATOM      7  C   UNL     1       1.458   9.168  18.914  0.00  0.00    +0.000 A 
ATOM      8  C   UNL     1       0.665   9.661  19.948  0.00  0.00    +0.000 A 
ATOM      9  C   UNL     1       0.535   8.916  21.121  0.00  0.00    +0.000 A 
ATOM     10  C   UNL     1       1.127   7.651  21.223  0.00  0.00    +0.000 A 
BRANCH   8  11
ATOM     11  O   UNL     1       0.120  10.907  19.742  0.00  0.00    +0.000 OA
BRANCH  11  12
ATOM     12  C   UNL     1      -1.126  11.034  19.171  0.00  0.00    +0.000 A 
ATOM     13  C   UNL     1      -1.990  11.936  19.796  0.00  0.00    +0.000 A 
ATOM     14  C   UNL     1      -3.282  12.128  19.303  0.00  0.00    +0.000 A 
ATOM     15  C   UNL     1      -3.711  11.420  18.182  0.00  0.00    +0.000 A 
ATOM     16  C   UNL     1      -2.837  10.552  17.529  0.00  0.00    +0.000 A 
ATOM     17  C   UNL     1      -1.536  10.382  18.006  0.00  0.00    +0.000 A 
ENDBRANCH  11  12
ENDBRANCH   8  11
ENDBRANCH   3   5
BRANCH   1  18
ATOM     18  C   UNL     1       2.763   3.465  20.633  0.00  0.00    +0.000 C 
BRANCH  18  23
ATOM     19  C   UNL     1       5.831   5.108  18.207  0.00  0.00    +0.000 A 
ATOM     20  N   UNL     1       5.931   4.117  17.309  0.00  0.00    +0.000 NA
ATOM     21  O   UNL     1       5.028   3.172  17.759  0.00  0.00    +0.000 OA
ATOM     22  C   UNL     1       4.449   3.672  18.892  0.00  0.00    +0.000 A 
ATOM     23  N   UNL     1       3.533   2.908  19.523  0.00  0.00    +0.000 N 
ATOM     24  C   UNL     1       3.066   1.657  18.945  0.00  0.00    +0.000 C 
ATOM     25  N   UNL     1       4.908   4.865  19.211  0.00  0.00    +0.000 NA
BRANCH  19  29
ATOM     26  C   UNL     1       8.201   8.662  17.965  0.00  0.00    +0.000 A 
ATOM     27  C   UNL     1       8.562   7.623  18.820  0.00  0.00    +0.000 A 
ATOM     28  C   UNL     1       7.790   6.461  18.889  0.00  0.00    +0.000 A 
ATOM     29  C   UNL     1       6.629   6.323  18.114  0.00  0.00    +0.000 A 
ATOM     30  C   UNL     1       6.253   7.387  17.275  0.00  0.00    +0.000 A 
ATOM     31  C   UNL     1       7.037   8.548  17.198  0.00  0.00    +0.000 A 
BRANCH  26  33
ATOM     32  C   UNL     1       9.311  10.263  19.299  0.00  0.00    +0.000 C 
ATOM     33  O   UNL     1       9.026   9.748  18.005  0.00  0.00    +0.000 OA
ENDBRANCH  26  33
ENDBRANCH  19  29
ENDBRANCH  18  23
ENDBRANCH   1  18
TORSDOF 7
ENDMDL
MODEL 7
REMARK VINA RESULT:      -7.5      4.702      9.395
REMARK  Name = 
REMARK  9 active torsions:
REMARK  status: ('A' for Active; 'I' for Inactive)
REMARK    1  A    between atoms: C_1  and  O_2
REMARK    2  A    between atoms: O_2  and  C_3
REMARK    3  A    between atoms: C_6  and  C_7
REMARK    4  A    between atoms: N_11  and  C_12
REMARK    5  A    between atoms: N_11  and  C_13
REMARK    6  A    between atoms: C_13  and  C_14
REMARK    7  A    between atoms: N_16  and  C_17
REMARK    8  A    between atoms: C_20  and  O_21
REMARK    9  A    between atoms: O_21  and  C_22
REMARK                            x       y       z     vdW  Elec       q    Type
REMARK                         _______ _______ _______ _____ _____    ______ ____
ROOT
ATOM      1  C   UNL     1      -1.032  10.998  18.518  0.00  0.00    +0.000 C 
ATOM      2  O   UNL     1      -1.839  10.098  18.305  0.00  0.00    +0.000 OA
ATOM      3  N   UNL     1       0.278  10.842  18.945  0.00  0.00    +0.000 N 
ATOM      4  H   UNL     1       0.702  11.667  19.369  0.00  0.00    +0.000 HD
ENDROOT
BRANCH   3   5
ATOM      5  C   UNL     1       0.976   9.624  19.076  0.00  0.00    +0.000 A 
ATOM      6  C   UNL     1       1.601   8.980  18.007  0.00  0.00    +0.000 A 
ATOM      7  C   UNL     1       2.285   7.776  18.198  0.00  0.00    +0.000 A 
ATOM      8  C   UNL     1       2.363   7.203  19.465  0.00  0.00    +0.000 A 
ATOM      9  C   UNL     1       1.709   7.818  20.533  0.00  0.00    +0.000 A 
ATOM     10  C   UNL     1       1.051   9.041  20.347  0.00  0.00    +0.000 A 
BRANCH   8  11
ATOM     11  O   UNL     1       3.042   6.009  19.540  0.00  0.00    +0.000 OA
BRANCH  11  12
ATOM     12  C   UNL     1       2.355   4.817  19.540  0.00  0.00    +0.000 A 
ATOM     13  C   UNL     1       2.222   4.194  18.296  0.00  0.00    +0.000 A 
ATOM     14  C   UNL     1       1.529   2.987  18.186  0.00  0.00    +0.000 A 
ATOM     15  C   UNL     1       0.971   2.400  19.319  0.00  0.00    +0.000 A 
ATOM     16  C   UNL     1       1.140   2.995  20.568  0.00  0.00    +0.000 A 
ATOM     17  C   UNL     1       1.857   4.187  20.682  0.00  0.00    +0.000 A 
ENDBRANCH  11  12
ENDBRANCH   8  11
ENDBRANCH   3   5
BRANCH   1  18
ATOM     18  C   UNL     1      -1.438  12.469  18.326  0.00  0.00    +0.000 C 
BRANCH  18  23
ATOM     19  C   UNL     1       1.881  14.460  20.063  0.00  0.00    +0.000 A 
ATOM     20  N   UNL     1       1.318  14.812  21.228  0.00  0.00    +0.000 NA
ATOM     21  O   UNL     1       0.016  14.363  21.114  0.00  0.00    +0.000 OA
ATOM     22  C   UNL     1      -0.103  13.769  19.888  0.00  0.00    +0.000 A 
ATOM     23  N   UNL     1      -1.306  13.263  19.545  0.00  0.00    +0.000 N 
ATOM     24  C   UNL     1      -2.404  13.218  20.497  0.00  0.00    +0.000 C 
ATOM     25  N   UNL     1       1.020  13.800  19.200  0.00  0.00    +0.000 NA
BRANCH  19  29
ATOM     26  C   UNL     1       5.981  15.324  19.196  0.00  0.00    +0.000 A 
ATOM     27  C   UNL     1       5.550  15.162  20.511  0.00  0.00    +0.000 A 
ATOM     28  C   UNL     1       4.213  14.872  20.789  0.00  0.00    +0.000 A 
ATOM     29  C   UNL     1       3.274  14.753  19.753  0.00  0.00    +0.000 A 
ATOM     30  C   UNL     1       3.708  14.946  18.430  0.00  0.00    +0.000 A 
ATOM     31  C   UNL     1       5.055  15.226  18.154  0.00  0.00    +0.000 A 
BRANCH  26  33
ATOM     32  C   UNL     1       7.871  15.372  17.782  0.00  0.00    +0.000 C 
ATOM     33  O   UNL     1       7.305  15.624  19.061  0.00  0.00    +0.000 OA
ENDBRANCH  26  33
ENDBRANCH  19  29
ENDBRANCH  18  23
ENDBRANCH   1  18
TORSDOF 7
ENDMDL
MODEL 8
REMARK VINA RESULT:      -7.5      4.832     11.249
REMARK  Name = 
REMARK  9 active torsions:
REMARK  status: ('A' for Active; 'I' for Inactive)
REMARK    1  A    between atoms: C_1  and  O_2
REMARK    2  A    between atoms: O_2  and  C_3
REMARK    3  A    between atoms: C_6  and  C_7
REMARK    4  A    between atoms: N_11  and  C_12
REMARK    5  A    between atoms: N_11  and  C_13
REMARK    6  A    between atoms: C_13  and  C_14
REMARK    7  A    between atoms: N_16  and  C_17
REMARK    8  A    between atoms: C_20  and  O_21
REMARK    9  A    between atoms: O_21  and  C_22
REMARK                            x       y       z     vdW  Elec       q    Type
REMARK                         _______ _______ _______ _____ _____    ______ ____
ROOT
ATOM      1  C   UNL     1      -3.473  10.735  17.992  0.00  0.00    +0.000 C 
ATOM      2  O   UNL     1      -3.674   9.603  17.562  0.00  0.00    +0.000 OA
ATOM      3  N   UNL     1      -2.334  11.172  18.652  0.00  0.00    +0.000 N 
ATOM      4  H   UNL     1      -2.448  12.018  19.209  0.00  0.00    +0.000 HD
ENDROOT
BRANCH   3   5
ATOM      5  C   UNL     1      -1.137  10.446  18.825  0.00  0.00    +0.000 A 
ATOM      6  C   UNL     1      -0.337  10.025  17.762  0.00  0.00    +0.000 A 
ATOM      7  C   UNL     1       0.844   9.314  17.994  0.00  0.00    +0.000 A 
ATOM      8  C   UNL     1       1.248   9.023  19.295  0.00  0.00    +0.000 A 
ATOM      9  C   UNL     1       0.436   9.406  20.363  0.00  0.00    +0.000 A 
ATOM     10  C   UNL     1      -0.731  10.147  20.131  0.00  0.00    +0.000 A 
BRANCH   8  11
ATOM     11  O   UNL     1       2.414   8.303  19.412  0.00  0.00    +0.000 OA
BRANCH  11  12
ATOM     12  C   UNL     1       2.407   6.937  19.245  0.00  0.00    +0.000 A 
ATOM     13  C   UNL     1       1.960   6.195  20.340  0.00  0.00    +0.000 A 
ATOM     14  C   UNL     1       1.927   4.800  20.278  0.00  0.00    +0.000 A 
ATOM     15  C   UNL     1       2.341   4.146  19.119  0.00  0.00    +0.000 A 
ATOM     16  C   UNL     1       2.746   4.885  18.008  0.00  0.00    +0.000 A 
ATOM     17  C   UNL     1       2.751   6.280  18.061  0.00  0.00    +0.000 A 
ENDBRANCH  11  12
ENDBRANCH   8  11
ENDBRANCH   3   5
BRANCH   1  18
ATOM     18  C   UNL     1      -4.542  11.829  17.835  0.00  0.00    +0.000 C 
BRANCH  18  23
ATOM     19  C   UNL     1      -4.322  12.961  21.917  0.00  0.00    +0.000 A 
ATOM     20  N   UNL     1      -5.524  12.518  22.314  0.00  0.00    +0.000 NA
ATOM     21  O   UNL     1      -6.095  12.029  21.155  0.00  0.00    +0.000 OA
ATOM     22  C   UNL     1      -5.188  12.210  20.148  0.00  0.00    +0.000 A 
ATOM     23  N   UNL     1      -5.536  11.816  18.905  0.00  0.00    +0.000 N 
ATOM     24  C   UNL     1      -6.773  11.091  18.663  0.00  0.00    +0.000 C 
ATOM     25  N   UNL     1      -4.076  12.781  20.566  0.00  0.00    +0.000 NA
BRANCH  19  29
ATOM     26  C   UNL     1      -1.576  14.774  24.651  0.00  0.00    +0.000 A 
ATOM     27  C   UNL     1      -2.950  14.854  24.866  0.00  0.00    +0.000 A 
ATOM     28  C   UNL     1      -3.842  14.254  23.975  0.00  0.00    +0.000 A 
ATOM     29  C   UNL     1      -3.376  13.573  22.841  0.00  0.00    +0.000 A 
ATOM     30  C   UNL     1      -1.989  13.520  22.613  0.00  0.00    +0.000 A 
ATOM     31  C   UNL     1      -1.095  14.114  23.516  0.00  0.00    +0.000 A 
BRANCH  26  33
ATOM     32  C   UNL     1      -0.433  16.749  25.259  0.00  0.00    +0.000 C 
ATOM     33  O   UNL     1      -0.813  15.418  25.582  0.00  0.00    +0.000 OA
ENDBRANCH  26  33
ENDBRANCH  19  29
ENDBRANCH  18  23
ENDBRANCH   1  18
TORSDOF 7
ENDMDL
MODEL 9
REMARK VINA RESULT:      -7.4      5.028      9.780
REMARK  Name = 
REMARK  9 active torsions:
REMARK  status: ('A' for Active; 'I' for Inactive)
REMARK    1  A    between atoms: C_1  and  O_2
REMARK    2  A    between atoms: O_2  and  C_3
REMARK    3  A    between atoms: C_6  and  C_7
REMARK    4  A    between atoms: N_11  and  C_12
REMARK    5  A    between atoms: N_11  and  C_13
REMARK    6  A    between atoms: C_13  and  C_14
REMARK    7  A    between atoms: N_16  and  C_17
REMARK    8  A    between atoms: C_20  and  O_21
REMARK    9  A    between atoms: O_21  and  C_22
REMARK                            x       y       z     vdW  Elec       q    Type
REMARK                         _______ _______ _______ _____ _____    ______ ____
ROOT
ATOM      1  C   UNL     1      -0.790  10.879  19.224  0.00  0.00    +0.000 C 
ATOM      2  O   UNL     1      -1.598  10.034  18.849  0.00  0.00    +0.000 OA
ATOM      3  N   UNL     1       0.560  10.673  19.467  0.00  0.00    +0.000 N 
ATOM      4  H   UNL     1       1.010  11.371  20.058  0.00  0.00    +0.000 HD
ENDROOT
BRANCH   3   5
ATOM      5  C   UNL     1       1.290   9.498  19.193  0.00  0.00    +0.000 A 
ATOM      6  C   UNL     1       1.916   9.253  17.969  0.00  0.00    +0.000 A 
ATOM      7  C   UNL     1       2.632   8.072  17.756  0.00  0.00    +0.000 A 
ATOM      8  C   UNL     1       2.742   7.122  18.769  0.00  0.00    +0.000 A 
ATOM      9  C   UNL     1       2.088   7.340  19.983  0.00  0.00    +0.000 A 
ATOM     10  C   UNL     1       1.397   8.538  20.206  0.00  0.00    +0.000 A 
BRANCH   8  11
ATOM     11  O   UNL     1       3.452   5.988  18.450  0.00  0.00    +0.000 OA
BRANCH  11  12
ATOM     12  C   UNL     1       2.901   4.743  18.652  0.00  0.00    +0.000 A 
ATOM     13  C   UNL     1       3.605   3.901  19.516  0.00  0.00    +0.000 A 
ATOM     14  C   UNL     1       3.137   2.611  19.776  0.00  0.00    +0.000 A 
ATOM     15  C   UNL     1       1.963   2.163  19.173  0.00  0.00    +0.000 A 
ATOM     16  C   UNL     1       1.235   3.015  18.346  0.00  0.00    +0.000 A 
ATOM     17  C   UNL     1       1.687   4.315  18.109  0.00  0.00    +0.000 A 
ENDBRANCH  11  12
ENDBRANCH   8  11
ENDBRANCH   3   5
BRANCH   1  18
ATOM     18  C   UNL     1      -1.240  12.327  19.481  0.00  0.00    +0.000 C 
BRANCH  18  23
ATOM     19  C   UNL     1       2.058  14.666  20.764  0.00  0.00    +0.000 A 
ATOM     20  N   UNL     1       1.867  14.576  22.088  0.00  0.00    +0.000 NA
ATOM     21  O   UNL     1       0.705  13.838  22.204  0.00  0.00    +0.000 OA
ATOM     22  C   UNL     1       0.288  13.535  20.937  0.00  0.00    +0.000 A 
ATOM     23  N   UNL     1      -0.849  12.822  20.799  0.00  0.00    +0.000 N 
ATOM     24  C   UNL     1      -1.537  12.268  21.954  0.00  0.00    +0.000 C 
ATOM     25  N   UNL     1       1.090  14.021  20.011  0.00  0.00    +0.000 NA
BRANCH  19  29
ATOM     26  C   UNL     1       5.385  16.791  19.113  0.00  0.00    +0.000 A 
ATOM     27  C   UNL     1       4.930  17.070  20.400  0.00  0.00    +0.000 A 
ATOM     28  C   UNL     1       3.850  16.368  20.938  0.00  0.00    +0.000 A 
ATOM     29  C   UNL     1       3.191  15.381  20.190  0.00  0.00    +0.000 A 
ATOM     30  C   UNL     1       3.634  15.124  18.880  0.00  0.00    +0.000 A 
ATOM     31  C   UNL     1       4.728  15.823  18.347  0.00  0.00    +0.000 A 
BRANCH  26  33
ATOM     32  C   UNL     1       7.642  17.407  19.430  0.00  0.00    +0.000 C 
ATOM     33  O   UNL     1       6.433  17.560  18.697  0.00  0.00    +0.000 OA
ENDBRANCH  26  33
ENDBRANCH  19  29
ENDBRANCH  18  23
ENDBRANCH   1  18
TORSDOF 7
ENDMDL
