MODEL 1
REMARK VINA RESULT:      -7.7      0.000      0.000
REMARK  Name = 
REMARK  3 active torsions:
REMARK  status: ('A' for Active; 'I' for Inactive)
REMARK    1  A    between atoms: C_1  and  C_2
REMARK    2  A    between atoms: N_13  and  C_14
REMARK    3  A    between atoms: C_14  and  C_15
REMARK                            x       y       z     vdW  Elec       q    Type
REMARK                         _______ _______ _______ _____ _____    ______ ____
ROOT
ATOM      1  C   UNL     1       1.804   2.594  21.626  0.00  0.00    +0.000 C 
ATOM      2  C   UNL     1       2.105   3.786  20.754  0.00  0.00    +0.000 A 
ATOM      3  N   UNL     1       1.670   4.958  21.115  0.00  0.00    +0.000 NA
ATOM      4  C   UNL     1       1.969   6.021  20.294  0.00  0.00    +0.000 A 
ATOM      5  N   UNL     1       1.621   7.282  20.411  0.00  0.00    +0.000 NA
ATOM      6  C   UNL     1       2.183   7.869  19.319  0.00  0.00    +0.000 A 
ATOM      7  N   UNL     1       2.886   7.073  18.519  0.00  0.00    +0.000 NA
ATOM      8  N   UNL     1       2.734   5.864  19.124  0.00  0.00    +0.000 N 
ATOM      9  C   UNL     1       3.179   4.599  18.761  0.00  0.00    +0.000 A 
ATOM     10  C   UNL     1       2.891   3.537  19.531  0.00  0.00    +0.000 A 
ATOM     11  C   UNL     1       3.465   2.283  18.976  0.00  0.00    +0.000 C 
ATOM     12  C   UNL     1       3.948   2.742  17.570  0.00  0.00    +0.000 C 
ATOM     13  N   UNL     1       3.906   4.209  17.646  0.00  0.00    +0.000 N 
ENDROOT
BRANCH  13  14
ATOM     14  C   UNL     1       4.666   5.079  16.761  0.00  0.00    +0.000 C 
BRANCH  14  15
ATOM     15  C   UNL     1       5.846   5.738  17.436  0.00  0.00    +0.000 A 
ATOM     16  C   UNL     1       6.563   5.073  18.447  0.00  0.00    +0.000 A 
ATOM     17  C   UNL     1       7.694   5.659  19.021  0.00  0.00    +0.000 A 
ATOM     18  C   UNL     1       8.134   6.904  18.578  0.00  0.00    +0.000 A 
ATOM     19  C   UNL     1       7.431   7.576  17.580  0.00  0.00    +0.000 A 
ATOM     20  C   UNL     1       6.291   6.999  17.021  0.00  0.00    +0.000 A 
ENDBRANCH  14  15
ENDBRANCH  13  14
TORSDOF 2
ENDMDL
MODEL 2
REMARK VINA RESULT:      -7.7      0.282      1.115
REMARK  Name = 
REMARK  3 active torsions:
REMARK  status: ('A' for Active; 'I' for Inactive)
REMARK    1  A    between atoms: C_1  and  C_2
REMARK    2  A    between atoms: N_13  and  C_14
REMARK    3  A    between atoms: C_14  and  C_15
REMARK                            x       y       z     vdW  Elec       q    Type
REMARK                         _______ _______ _______ _____ _____    ______ ____
ROOT
ATOM      1  C   UNL     1       1.761   3.033  21.694  0.00  0.00    +0.000 C 
ATOM      2  C   UNL     1       2.104   4.128  20.717  0.00  0.00    +0.000 A 
ATOM      3  N   UNL     1       1.697   5.340  20.960  0.00  0.00    +0.000 NA
ATOM      4  C   UNL     1       2.034   6.312  20.046  0.00  0.00    +0.000 A 
ATOM      5  N   UNL     1       1.720   7.587  20.038  0.00  0.00    +0.000 NA
ATOM      6  C   UNL     1       2.310   8.053  18.903  0.00  0.00    +0.000 A 
ATOM      7  N   UNL     1       2.999   7.166  18.192  0.00  0.00    +0.000 NA
ATOM      8  N   UNL     1       2.807   6.025  18.906  0.00  0.00    +0.000 N 
ATOM      9  C   UNL     1       3.221   4.719  18.671  0.00  0.00    +0.000 A 
ATOM     10  C   UNL     1       2.896   3.744  19.534  0.00  0.00    +0.000 A 
ATOM     11  C   UNL     1       3.441   2.427  19.108  0.00  0.00    +0.000 C 
ATOM     12  C   UNL     1       3.951   2.738  17.671  0.00  0.00    +0.000 C 
ATOM     13  N   UNL     1       3.949   4.206  17.607  0.00  0.00    +0.000 N 
ENDROOT
BRANCH  13  14
ATOM     14  C   UNL     1       4.742   4.967  16.654  0.00  0.00    +0.000 C 
BRANCH  14  15
ATOM     15  C   UNL     1       5.948   5.633  17.274  0.00  0.00    +0.000 A 
ATOM     16  C   UNL     1       6.326   6.935  16.900  0.00  0.00    +0.000 A 
ATOM     17  C   UNL     1       7.402   7.571  17.525  0.00  0.00    +0.000 A 
ATOM     18  C   UNL     1       8.098   6.924  18.544  0.00  0.00    +0.000 A 
ATOM     19  C   UNL     1       7.737   5.633  18.922  0.00  0.00    +0.000 A 
ATOM     20  C   UNL     1       6.675   4.991  18.284  0.00  0.00    +0.000 A 
ENDBRANCH  14  15
ENDBRANCH  13  14
TORSDOF 2
ENDMDL
MODEL 3
REMARK VINA RESULT:      -7.3      2.099      5.222
REMARK  Name = 
REMARK  3 active torsions:
REMARK  status: ('A' for Active; 'I' for Inactive)
REMARK    1  A    between atoms: C_1  and  C_2
REMARK    2  A    between atoms: N_13  and  C_14
REMARK    3  A    between atoms: C_14  and  C_15
REMARK                            x       y       z     vdW  Elec       q    Type
REMARK                         _______ _______ _______ _____ _____    ______ ____
ROOT
ATOM      1  C   UNL     1       6.166   3.822  14.356  0.00  0.00    +0.000 C 
ATOM      2  C   UNL     1       6.196   4.223  15.809  0.00  0.00    +0.000 A 
ATOM      3  N   UNL     1       7.317   4.636  16.326  0.00  0.00    +0.000 NA
ATOM      4  C   UNL     1       7.301   4.998  17.654  0.00  0.00    +0.000 A 
ATOM      5  N   UNL     1       8.291   5.407  18.413  0.00  0.00    +0.000 NA
ATOM      6  C   UNL     1       7.703   5.608  19.624  0.00  0.00    +0.000 A 
ATOM      7  N   UNL     1       6.395   5.373  19.688  0.00  0.00    +0.000 NA
ATOM      8  N   UNL     1       6.124   4.951  18.424  0.00  0.00    +0.000 N 
ATOM      9  C   UNL     1       4.945   4.499  17.845  0.00  0.00    +0.000 A 
ATOM     10  C   UNL     1       4.928   4.123  16.556  0.00  0.00    +0.000 A 
ATOM     11  C   UNL     1       3.574   3.683  16.128  0.00  0.00    +0.000 C 
ATOM     12  C   UNL     1       2.812   3.618  17.483  0.00  0.00    +0.000 C 
ATOM     13  N   UNL     1       3.691   4.335  18.416  0.00  0.00    +0.000 N 
ENDROOT
BRANCH  13  14
ATOM     14  C   UNL     1       3.229   4.915  19.668  0.00  0.00    +0.000 C 
BRANCH  14  15
ATOM     15  C   UNL     1       2.604   6.281  19.501  0.00  0.00    +0.000 A 
ATOM     16  C   UNL     1       1.933   6.902  20.569  0.00  0.00    +0.000 A 
ATOM     17  C   UNL     1       1.415   8.193  20.430  0.00  0.00    +0.000 A 
ATOM     18  C   UNL     1       1.581   8.885  19.232  0.00  0.00    +0.000 A 
ATOM     19  C   UNL     1       2.240   8.279  18.165  0.00  0.00    +0.000 A 
ATOM     20  C   UNL     1       2.740   6.984  18.298  0.00  0.00    +0.000 A 
ENDBRANCH  14  15
ENDBRANCH  13  14
TORSDOF 2
ENDMDL
MODEL 4
REMARK VINA RESULT:      -7.1      2.080      5.245
REMARK  Name = 
REMARK  3 active torsions:
REMARK  status: ('A' for Active; 'I' for Inactive)
REMARK    1  A    between atoms: C_1  and  C_2
REMARK    2  A    between atoms: N_13  and  C_14
REMARK    3  A    between atoms: C_14  and  C_15
REMARK                            x       y       z     vdW  Elec       q    Type
REMARK                         _______ _______ _______ _____ _____    ______ ____
ROOT
ATOM      1  C   UNL     1       5.623   3.535  14.448  0.00  0.00    +0.000 C 
ATOM      2  C   UNL     1       5.778   4.033  15.863  0.00  0.00    +0.000 A 
ATOM      3  N   UNL     1       6.960   4.382  16.282  0.00  0.00    +0.000 NA
ATOM      4  C   UNL     1       7.060   4.834  17.577  0.00  0.00    +0.000 A 
ATOM      5  N   UNL     1       8.127   5.207  18.245  0.00  0.00    +0.000 NA
ATOM      6  C   UNL     1       7.636   5.542  19.470  0.00  0.00    +0.000 A 
ATOM      7  N   UNL     1       6.320   5.428  19.627  0.00  0.00    +0.000 NA
ATOM      8  N   UNL     1       5.935   4.944  18.416  0.00  0.00    +0.000 N 
ATOM      9  C   UNL     1       4.687   4.557  17.941  0.00  0.00    +0.000 A 
ATOM     10  C   UNL     1       4.557   4.095  16.687  0.00  0.00    +0.000 A 
ATOM     11  C   UNL     1       3.146   3.747  16.373  0.00  0.00    +0.000 C 
ATOM     12  C   UNL     1       2.470   3.842  17.771  0.00  0.00    +0.000 C 
ATOM     13  N   UNL     1       3.464   4.544  18.595  0.00  0.00    +0.000 N 
ENDROOT
BRANCH  13  14
ATOM     14  C   UNL     1       3.132   5.247  19.824  0.00  0.00    +0.000 C 
BRANCH  14  15
ATOM     15  C   UNL     1       2.571   6.630  19.591  0.00  0.00    +0.000 A 
ATOM     16  C   UNL     1       2.715   7.267  18.345  0.00  0.00    +0.000 A 
ATOM     17  C   UNL     1       2.137   8.518  18.113  0.00  0.00    +0.000 A 
ATOM     18  C   UNL     1       1.391   9.136  19.114  0.00  0.00    +0.000 A 
ATOM     19  C   UNL     1       1.243   8.519  20.354  0.00  0.00    +0.000 A 
ATOM     20  C   UNL     1       1.837   7.279  20.592  0.00  0.00    +0.000 A 
ENDBRANCH  14  15
ENDBRANCH  13  14
TORSDOF 2
ENDMDL
MODEL 5
REMARK VINA RESULT:      -7.0      2.740      4.486
REMARK  Name = 
REMARK  3 active torsions:
REMARK  status: ('A' for Active; 'I' for Inactive)
REMARK    1  A    between atoms: C_1  and  C_2
REMARK    2  A    between atoms: N_13  and  C_14
REMARK    3  A    between atoms: C_14  and  C_15
REMARK                            x       y       z     vdW  Elec       q    Type
REMARK                         _______ _______ _______ _____ _____    ______ ____
ROOT
ATOM      1  C   UNL     1       2.223   7.532  18.901  0.00  0.00    +0.000 C 
ATOM      2  C   UNL     1       2.681   6.126  18.605  0.00  0.00    +0.000 A 
ATOM      3  N   UNL     1       2.031   5.128  19.129  0.00  0.00    +0.000 NA
ATOM      4  C   UNL     1       2.478   3.861  18.832  0.00  0.00    +0.000 A 
ATOM      5  N   UNL     1       2.028   2.702  19.256  0.00  0.00    +0.000 NA
ATOM      6  C   UNL     1       2.850   1.801  18.652  0.00  0.00    +0.000 A 
ATOM      7  N   UNL     1       3.786   2.303  17.852  0.00  0.00    +0.000 NA
ATOM      8  N   UNL     1       3.575   3.640  17.980  0.00  0.00    +0.000 N 
ATOM      9  C   UNL     1       4.253   4.727  17.441  0.00  0.00    +0.000 A 
ATOM     10  C   UNL     1       3.853   5.977  17.723  0.00  0.00    +0.000 A 
ATOM     11  C   UNL     1       4.701   6.992  17.043  0.00  0.00    +0.000 C 
ATOM     12  C   UNL     1       5.866   6.123  16.489  0.00  0.00    +0.000 C 
ATOM     13  N   UNL     1       5.369   4.746  16.617  0.00  0.00    +0.000 N 
ENDROOT
BRANCH  13  14
ATOM     14  C   UNL     1       5.895   3.630  15.847  0.00  0.00    +0.000 C 
BRANCH  14  15
ATOM     15  C   UNL     1       6.318   4.014  14.448  0.00  0.00    +0.000 A 
ATOM     16  C   UNL     1       7.416   4.867  14.234  0.00  0.00    +0.000 A 
ATOM     17  C   UNL     1       7.844   5.165  12.937  0.00  0.00    +0.000 A 
ATOM     18  C   UNL     1       7.197   4.598  11.843  0.00  0.00    +0.000 A 
ATOM     19  C   UNL     1       6.106   3.755  12.039  0.00  0.00    +0.000 A 
ATOM     20  C   UNL     1       5.666   3.473  13.333  0.00  0.00    +0.000 A 
ENDBRANCH  14  15
ENDBRANCH  13  14
TORSDOF 2
ENDMDL
MODEL 6
REMARK VINA RESULT:      -6.8      2.134      6.037
REMARK  Name = 
REMARK  3 active torsions:
REMARK  status: ('A' for Active; 'I' for Inactive)
REMARK    1  A    between atoms: C_1  and  C_2
REMARK    2  A    between atoms: N_13  and  C_14
REMARK    3  A    between atoms: C_14  and  C_15
REMARK                            x       y       z     vdW  Elec       q    Type
REMARK                         _______ _______ _______ _____ _____    ______ ____
ROOT
ATOM      1  C   UNL     1       7.368   8.312  17.687  0.00  0.00    +0.000 C 
ATOM      2  C   UNL     1       6.757   7.081  17.070  0.00  0.00    +0.000 A 
ATOM      3  N   UNL     1       7.450   6.399  16.204  0.00  0.00    +0.000 NA
ATOM      4  C   UNL     1       6.858   5.279  15.666  0.00  0.00    +0.000 A 
ATOM      5  N   UNL     1       7.322   4.452  14.758  0.00  0.00    +0.000 NA
ATOM      6  C   UNL     1       6.316   3.547  14.608  0.00  0.00    +0.000 A 
ATOM      7  N   UNL     1       5.244   3.728  15.374  0.00  0.00    +0.000 NA
ATOM      8  N   UNL     1       5.569   4.863  16.047  0.00  0.00    +0.000 N 
ATOM      9  C   UNL     1       4.852   5.616  16.970  0.00  0.00    +0.000 A 
ATOM     10  C   UNL     1       5.393   6.723  17.502  0.00  0.00    +0.000 A 
ATOM     11  C   UNL     1       4.472   7.375  18.470  0.00  0.00    +0.000 C 
ATOM     12  C   UNL     1       3.149   6.590  18.237  0.00  0.00    +0.000 C 
ATOM     13  N   UNL     1       3.568   5.418  17.457  0.00  0.00    +0.000 N 
ENDROOT
BRANCH  13  14
ATOM     14  C   UNL     1       2.791   4.190  17.375  0.00  0.00    +0.000 C 
BRANCH  14  15
ATOM     15  C   UNL     1       2.444   3.609  18.726  0.00  0.00    +0.000 A 
ATOM     16  C   UNL     1       3.445   3.090  19.567  0.00  0.00    +0.000 A 
ATOM     17  C   UNL     1       3.127   2.615  20.843  0.00  0.00    +0.000 A 
ATOM     18  C   UNL     1       1.813   2.674  21.300  0.00  0.00    +0.000 A 
ATOM     19  C   UNL     1       0.811   3.182  20.476  0.00  0.00    +0.000 A 
ATOM     20  C   UNL     1       1.125   3.638  19.196  0.00  0.00    +0.000 A 
ENDBRANCH  14  15
ENDBRANCH  13  14
TORSDOF 2
ENDMDL
MODEL 7
REMARK VINA RESULT:      -6.7      2.170      6.184
REMARK  Name = 
REMARK  3 active torsions:
REMARK  status: ('A' for Active; 'I' for Inactive)
REMARK    1  A    between atoms: C_1  and  C_2
REMARK    2  A    between atoms: N_13  and  C_14
REMARK    3  A    between atoms: C_14  and  C_15
REMARK                            x       y       z     vdW  Elec       q    Type
REMARK                         _______ _______ _______ _____ _____    ______ ____
ROOT
ATOM      1  C   UNL     1       8.088   7.783  17.851  0.00  0.00    +0.000 C 
ATOM      2  C   UNL     1       7.332   6.672  17.168  0.00  0.00    +0.000 A 
ATOM      3  N   UNL     1       7.646   6.354  15.946  0.00  0.00    +0.000 NA
ATOM      4  C   UNL     1       6.936   5.332  15.359  0.00  0.00    +0.000 A 
ATOM      5  N   UNL     1       7.030   4.851  14.141  0.00  0.00    +0.000 NA
ATOM      6  C   UNL     1       6.087   3.869  14.113  0.00  0.00    +0.000 A 
ATOM      7  N   UNL     1       5.407   3.675  15.240  0.00  0.00    +0.000 NA
ATOM      8  N   UNL     1       5.928   4.635  16.050  0.00  0.00    +0.000 N 
ATOM      9  C   UNL     1       5.611   5.002  17.352  0.00  0.00    +0.000 A 
ATOM     10  C   UNL     1       6.273   6.006  17.949  0.00  0.00    +0.000 A 
ATOM     11  C   UNL     1       5.793   6.233  19.337  0.00  0.00    +0.000 C 
ATOM     12  C   UNL     1       4.522   5.337  19.391  0.00  0.00    +0.000 C 
ATOM     13  N   UNL     1       4.641   4.486  18.199  0.00  0.00    +0.000 N 
ENDROOT
BRANCH  13  14
ATOM     14  C   UNL     1       3.949   3.216  18.050  0.00  0.00    +0.000 C 
BRANCH  14  15
ATOM     15  C   UNL     1       2.931   2.956  19.136  0.00  0.00    +0.000 A 
ATOM     16  C   UNL     1       3.336   2.576  20.428  0.00  0.00    +0.000 A 
ATOM     17  C   UNL     1       2.395   2.402  21.447  0.00  0.00    +0.000 A 
ATOM     18  C   UNL     1       1.044   2.628  21.193  0.00  0.00    +0.000 A 
ATOM     19  C   UNL     1       0.629   3.001  19.917  0.00  0.00    +0.000 A 
ATOM     20  C   UNL     1       1.566   3.155  18.895  0.00  0.00    +0.000 A 
ENDBRANCH  14  15
ENDBRANCH  13  14
TORSDOF 2
ENDMDL
MODEL 8
REMARK VINA RESULT:      -6.6      3.337      6.072
REMARK  Name = 
REMARK  3 active torsions:
REMARK  status: ('A' for Active; 'I' for Inactive)
REMARK    1  A    between atoms: C_1  and  C_2
REMARK    2  A    between atoms: N_13  and  C_14
REMARK    3  A    between atoms: C_14  and  C_15
REMARK                            x       y       z     vdW  Elec       q    Type
REMARK                         _______ _______ _______ _____ _____    ______ ____
ROOT
ATOM      1  C   UNL     1      -1.306  11.475  18.238  0.00  0.00    +0.000 C 
ATOM      2  C   UNL     1      -0.563  10.738  19.322  0.00  0.00    +0.000 A 
ATOM      3  N   UNL     1      -0.847  10.994  20.567  0.00  0.00    +0.000 NA
ATOM      4  C   UNL     1      -0.149  10.297  21.527  0.00  0.00    +0.000 A 
ATOM      5  N   UNL     1      -0.218  10.393  22.835  0.00  0.00    +0.000 NA
ATOM      6  C   UNL     1       0.695   9.482  23.270  0.00  0.00    +0.000 A 
ATOM      7  N   UNL     1       1.332   8.792  22.328  0.00  0.00    +0.000 NA
ATOM      8  N   UNL     1       0.814   9.329  21.190  0.00  0.00    +0.000 N 
ATOM      9  C   UNL     1       1.100   9.083  19.853  0.00  0.00    +0.000 A 
ATOM     10  C   UNL     1       0.450   9.757  18.891  0.00  0.00    +0.000 A 
ATOM     11  C   UNL     1       0.892   9.342  17.533  0.00  0.00    +0.000 C 
ATOM     12  C   UNL     1       2.132   8.459  17.852  0.00  0.00    +0.000 C 
ATOM     13  N   UNL     1       2.026   8.212  19.297  0.00  0.00    +0.000 N 
ENDROOT
BRANCH  13  14
ATOM     14  C   UNL     1       2.684   7.104  19.971  0.00  0.00    +0.000 C 
BRANCH  14  15
ATOM     15  C   UNL     1       2.155   5.751  19.555  0.00  0.00    +0.000 A 
ATOM     16  C   UNL     1       1.441   4.945  20.461  0.00  0.00    +0.000 A 
ATOM     17  C   UNL     1       0.897   3.725  20.053  0.00  0.00    +0.000 A 
ATOM     18  C   UNL     1       1.038   3.306  18.732  0.00  0.00    +0.000 A 
ATOM     19  C   UNL     1       1.746   4.092  17.825  0.00  0.00    +0.000 A 
ATOM     20  C   UNL     1       2.306   5.301  18.238  0.00  0.00    +0.000 A 
ENDBRANCH  14  15
ENDBRANCH  13  14
TORSDOF 2
ENDMDL
MODEL 9
REMARK VINA RESULT:      -6.6      2.151      6.123
REMARK  Name = 
REMARK  3 active torsions:
REMARK  status: ('A' for Active; 'I' for Inactive)
REMARK    1  A    between atoms: C_1  and  C_2
REMARK    2  A    between atoms: N_13  and  C_14
REMARK    3  A    between atoms: C_14  and  C_15
REMARK                            x       y       z     vdW  Elec       q    Type
REMARK                         _______ _______ _______ _____ _____    ______ ____
ROOT
ATOM      1  C   UNL     1       7.461   8.303  17.658  0.00  0.00    +0.000 C 
ATOM      2  C   UNL     1       6.830   7.079  17.046  0.00  0.00    +0.000 A 
ATOM      3  N   UNL     1       7.504   6.394  16.168  0.00  0.00    +0.000 NA
ATOM      4  C   UNL     1       6.894   5.281  15.636  0.00  0.00    +0.000 A 
ATOM      5  N   UNL     1       7.338   4.452  14.719  0.00  0.00    +0.000 NA
ATOM      6  C   UNL     1       6.321   3.558  14.579  0.00  0.00    +0.000 A 
ATOM      7  N   UNL     1       5.262   3.746  15.361  0.00  0.00    +0.000 NA
ATOM      8  N   UNL     1       5.607   4.877  16.033  0.00  0.00    +0.000 N 
ATOM      9  C   UNL     1       4.909   5.633  16.967  0.00  0.00    +0.000 A 
ATOM     10  C   UNL     1       5.468   6.734  17.495  0.00  0.00    +0.000 A 
ATOM     11  C   UNL     1       4.566   7.391  18.477  0.00  0.00    +0.000 C 
ATOM     12  C   UNL     1       3.233   6.620  18.260  0.00  0.00    +0.000 C 
ATOM     13  N   UNL     1       3.630   5.446  17.471  0.00  0.00    +0.000 N 
ENDROOT
BRANCH  13  14
ATOM     14  C   UNL     1       2.841   4.226  17.396  0.00  0.00    +0.000 C 
BRANCH  14  15
ATOM     15  C   UNL     1       2.416   3.703  18.748  0.00  0.00    +0.000 A 
ATOM     16  C   UNL     1       1.056   3.633  19.100  0.00  0.00    +0.000 A 
ATOM     17  C   UNL     1       0.665   3.087  20.326  0.00  0.00    +0.000 A 
ATOM     18  C   UNL     1       1.624   2.584  21.202  0.00  0.00    +0.000 A 
ATOM     19  C   UNL     1       2.975   2.650  20.868  0.00  0.00    +0.000 A 
ATOM     20  C   UNL     1       3.366   3.214  19.653  0.00  0.00    +0.000 A 
ENDBRANCH  14  15
ENDBRANCH  13  14
TORSDOF 2
ENDMDL
