MODEL 1
REMARK VINA RESULT:      -8.4      0.000      0.000
REMARK  Name = 
REMARK  9 active torsions:
REMARK  status: ('A' for Active; 'I' for Inactive)
REMARK    1  A    between atoms: C_2  and  C_3
REMARK    2  A    between atoms: C_2  and  C_11
REMARK    3  A    between atoms: C_6  and  O_7
REMARK    4  A    between atoms: C_8  and  O_9
REMARK    5  A    between atoms: C_12  and  C_13
REMARK    6  A    between atoms: C_16  and  O_17
REMARK    7  A    between atoms: C_18  and  O_19
REMARK    8  A    between atoms: C_24  and  O_25
REMARK    9  A    between atoms: C_27  and  O_28
REMARK                            x       y       z     vdW  Elec       q    Type
REMARK                         _______ _______ _______ _____ _____    ______ ____
ROOT
ATOM      1  C   UNL     1       2.862   7.188  18.283  0.00  0.00    +0.000 A 
ATOM      2  C   UNL     1       2.359   6.193  19.047  0.00  0.00    +0.000 A 
ATOM      3  O   UNL     1       1.442   6.373  20.076  0.00  0.00    +0.000 OA
ATOM      4  C   UNL     1       1.126   7.652  20.461  0.00  0.00    +0.000 A 
ATOM      5  C   UNL     1       0.311   7.794  21.592  0.00  0.00    +0.000 A 
ATOM      6  C   UNL     1      -0.039   9.072  22.022  0.00  0.00    +0.000 A 
ATOM      7  C   UNL     1       0.427  10.207  21.364  0.00  0.00    +0.000 A 
ATOM      8  C   UNL     1       1.238  10.058  20.240  0.00  0.00    +0.000 A 
ATOM      9  C   UNL     1       1.568   8.777  19.772  0.00  0.00    +0.000 A 
ATOM     10  C   UNL     1       2.317   8.553  18.526  0.00  0.00    +0.000 A 
ATOM     11  O   UNL     1       2.424   9.433  17.683  0.00  0.00    +0.000 OA
ENDROOT
BRANCH   2  12
ATOM     12  C   UNL     1       2.717   4.770  18.870  0.00  0.00    +0.000 A 
ATOM     13  C   UNL     1       2.106   4.000  17.863  0.00  0.00    +0.000 A 
ATOM     14  C   UNL     1       2.521   2.684  17.612  0.00  0.00    +0.000 A 
ATOM     15  C   UNL     1       3.539   2.140  18.384  0.00  0.00    +0.000 A 
ATOM     16  C   UNL     1       4.128   2.890  19.399  0.00  0.00    +0.000 A 
ATOM     17  C   UNL     1       3.723   4.194  19.656  0.00  0.00    +0.000 A 
BRANCH  15  18
ATOM     18  O   UNL     1       4.012   0.873  18.173  0.00  0.00    +0.000 OA
ATOM     19  H   UNL     1       4.804   0.752  18.727  0.00  0.00    +0.000 HD
ENDBRANCH  15  18
BRANCH  16  20
ATOM     20  O   UNL     1       5.141   2.350  20.142  0.00  0.00    +0.000 OA
ATOM     21  H   UNL     1       4.890   2.541  21.067  0.00  0.00    +0.000 HD
ENDBRANCH  16  20
ENDBRANCH   2  12
BRANCH   1  23
ATOM     22  O   UNL     1       3.685   7.435  16.043  0.00  0.00    +0.000 OA
ATOM     23  C   UNL     1       3.824   6.936  17.155  0.00  0.00    +0.000 C 
BRANCH  23  24
ATOM     24  C   UNL     1       5.045   6.117  17.395  0.00  0.00    +0.000 A 
ATOM     25  C   UNL     1       5.289   5.050  16.514  0.00  0.00    +0.000 A 
ATOM     26  C   UNL     1       6.463   4.300  16.609  0.00  0.00    +0.000 A 
ATOM     27  C   UNL     1       7.388   4.626  17.592  0.00  0.00    +0.000 A 
ATOM     28  C   UNL     1       7.128   5.656  18.494  0.00  0.00    +0.000 A 
ATOM     29  C   UNL     1       5.951   6.387  18.428  0.00  0.00    +0.000 A 
BRANCH  27  30
ATOM     30  O   UNL     1       8.576   3.959  17.714  0.00  0.00    +0.000 OA
ATOM     31  H   UNL     1       8.571   3.494  18.568  0.00  0.00    +0.000 HD
ENDBRANCH  27  30
BRANCH  28  32
ATOM     32  O   UNL     1       8.054   5.977  19.447  0.00  0.00    +0.000 OA
ATOM     33  H   UNL     1       8.260   5.126  19.881  0.00  0.00    +0.000 HD
ENDBRANCH  28  32
ENDBRANCH  23  24
ENDBRANCH   1  23
BRANCH   6  34
ATOM     34  O   UNL     1      -0.841   9.267  23.110  0.00  0.00    +0.000 OA
ATOM     35  H   UNL     1      -0.289   9.457  23.884  0.00  0.00    +0.000 HD
ENDBRANCH   6  34
BRANCH   8  36
ATOM     36  O   UNL     1       1.720  11.175  19.625  0.00  0.00    +0.000 OA
ATOM     37  H   UNL     1       2.064  11.804  20.279  0.00  0.00    +0.000 HD
ENDBRANCH   8  36
TORSDOF 9
ENDMDL
MODEL 2
REMARK VINA RESULT:      -8.1      0.590      1.246
REMARK  Name = 
REMARK  9 active torsions:
REMARK  status: ('A' for Active; 'I' for Inactive)
REMARK    1  A    between atoms: C_2  and  C_3
REMARK    2  A    between atoms: C_2  and  C_11
REMARK    3  A    between atoms: C_6  and  O_7
REMARK    4  A    between atoms: C_8  and  O_9
REMARK    5  A    between atoms: C_12  and  C_13
REMARK    6  A    between atoms: C_16  and  O_17
REMARK    7  A    between atoms: C_18  and  O_19
REMARK    8  A    between atoms: C_24  and  O_25
REMARK    9  A    between atoms: C_27  and  O_28
REMARK                            x       y       z     vdW  Elec       q    Type
REMARK                         _______ _______ _______ _____ _____    ______ ____
ROOT
ATOM      1  C   UNL     1       2.804   7.427  18.202  0.00  0.00    +0.000 A 
ATOM      2  C   UNL     1       2.389   6.408  18.988  0.00  0.00    +0.000 A 
ATOM      3  O   UNL     1       1.551   6.550  20.089  0.00  0.00    +0.000 OA
ATOM      4  C   UNL     1       1.234   7.815  20.517  0.00  0.00    +0.000 A 
ATOM      5  C   UNL     1       0.508   7.920  21.711  0.00  0.00    +0.000 A 
ATOM      6  C   UNL     1       0.161   9.182  22.188  0.00  0.00    +0.000 A 
ATOM      7  C   UNL     1       0.544  10.337  21.513  0.00  0.00    +0.000 A 
ATOM      8  C   UNL     1       1.267  10.225  20.327  0.00  0.00    +0.000 A 
ATOM      9  C   UNL     1       1.592   8.960  19.814  0.00  0.00    +0.000 A 
ATOM     10  C   UNL     1       2.245   8.773  18.510  0.00  0.00    +0.000 A 
ATOM     11  O   UNL     1       2.263   9.668  17.675  0.00  0.00    +0.000 OA
ENDROOT
BRANCH   2  12
ATOM     12  C   UNL     1       2.767   4.997  18.761  0.00  0.00    +0.000 A 
ATOM     13  C   UNL     1       2.169   4.256  17.725  0.00  0.00    +0.000 A 
ATOM     14  C   UNL     1       2.604   2.955  17.428  0.00  0.00    +0.000 A 
ATOM     15  C   UNL     1       3.628   2.399  18.183  0.00  0.00    +0.000 A 
ATOM     16  C   UNL     1       4.204   3.120  19.225  0.00  0.00    +0.000 A 
ATOM     17  C   UNL     1       3.779   4.409  19.528  0.00  0.00    +0.000 A 
BRANCH  15  18
ATOM     18  O   UNL     1       4.119   1.147  17.928  0.00  0.00    +0.000 OA
ATOM     19  H   UNL     1       3.417   0.631  17.494  0.00  0.00    +0.000 HD
ENDBRANCH  15  18
BRANCH  16  20
ATOM     20  O   UNL     1       5.223   2.568  19.951  0.00  0.00    +0.000 OA
ATOM     21  H   UNL     1       4.781   1.916  20.531  0.00  0.00    +0.000 HD
ENDBRANCH  16  20
ENDBRANCH   2  12
BRANCH   1  23
ATOM     22  O   UNL     1       3.453   7.742  15.915  0.00  0.00    +0.000 OA
ATOM     23  C   UNL     1       3.680   7.216  16.999  0.00  0.00    +0.000 C 
BRANCH  23  24
ATOM     24  C   UNL     1       4.924   6.405  17.124  0.00  0.00    +0.000 A 
ATOM     25  C   UNL     1       5.834   6.773  18.129  0.00  0.00    +0.000 A 
ATOM     26  C   UNL     1       6.971   6.002  18.378  0.00  0.00    +0.000 A 
ATOM     27  C   UNL     1       7.191   4.864  17.614  0.00  0.00    +0.000 A 
ATOM     28  C   UNL     1       6.311   4.521  16.589  0.00  0.00    +0.000 A 
ATOM     29  C   UNL     1       5.194   5.296  16.313  0.00  0.00    +0.000 A 
BRANCH  27  30
ATOM     30  O   UNL     1       8.262   4.043  17.833  0.00  0.00    +0.000 OA
ATOM     31  H   UNL     1       7.987   3.132  17.630  0.00  0.00    +0.000 HD
ENDBRANCH  27  30
BRANCH  28  32
ATOM     32  O   UNL     1       6.529   3.389  15.854  0.00  0.00    +0.000 OA
ATOM     33  H   UNL     1       5.911   3.467  15.101  0.00  0.00    +0.000 HD
ENDBRANCH  28  32
ENDBRANCH  23  24
ENDBRANCH   1  23
BRANCH   6  34
ATOM     34  O   UNL     1      -0.558   9.340  23.337  0.00  0.00    +0.000 OA
ATOM     35  H   UNL     1       0.036   9.629  24.048  0.00  0.00    +0.000 HD
ENDBRANCH   6  34
BRANCH   8  36
ATOM     36  O   UNL     1       1.671  11.363  19.693  0.00  0.00    +0.000 OA
ATOM     37  H   UNL     1       2.023  12.004  20.332  0.00  0.00    +0.000 HD
ENDBRANCH   8  36
TORSDOF 9
ENDMDL
MODEL 3
REMARK VINA RESULT:      -8.0      0.491      1.185
REMARK  Name = 
REMARK  9 active torsions:
REMARK  status: ('A' for Active; 'I' for Inactive)
REMARK    1  A    between atoms: C_2  and  C_3
REMARK    2  A    between atoms: C_2  and  C_11
REMARK    3  A    between atoms: C_6  and  O_7
REMARK    4  A    between atoms: C_8  and  O_9
REMARK    5  A    between atoms: C_12  and  C_13
REMARK    6  A    between atoms: C_16  and  O_17
REMARK    7  A    between atoms: C_18  and  O_19
REMARK    8  A    between atoms: C_24  and  O_25
REMARK    9  A    between atoms: C_27  and  O_28
REMARK                            x       y       z     vdW  Elec       q    Type
REMARK                         _______ _______ _______ _____ _____    ______ ____
ROOT
ATOM      1  C   UNL     1       2.922   7.261  18.282  0.00  0.00    +0.000 A 
ATOM      2  C   UNL     1       2.508   6.262  19.095  0.00  0.00    +0.000 A 
ATOM      3  O   UNL     1       1.592   6.415  20.130  0.00  0.00    +0.000 OA
ATOM      4  C   UNL     1       1.183   7.680  20.467  0.00  0.00    +0.000 A 
ATOM      5  C   UNL     1       0.373   7.807  21.603  0.00  0.00    +0.000 A 
ATOM      6  C   UNL     1      -0.069   9.071  21.987  0.00  0.00    +0.000 A 
ATOM      7  C   UNL     1       0.298  10.209  21.276  0.00  0.00    +0.000 A 
ATOM      8  C   UNL     1       1.104  10.076  20.146  0.00  0.00    +0.000 A 
ATOM      9  C   UNL     1       1.527   8.806  19.726  0.00  0.00    +0.000 A 
ATOM     10  C   UNL     1       2.275   8.588  18.478  0.00  0.00    +0.000 A 
ATOM     11  O   UNL     1       2.303   9.438  17.598  0.00  0.00    +0.000 OA
ENDROOT
BRANCH   2  12
ATOM     12  C   UNL     1       2.973   4.865  18.971  0.00  0.00    +0.000 A 
ATOM     13  C   UNL     1       4.002   4.379  19.800  0.00  0.00    +0.000 A 
ATOM     14  C   UNL     1       4.371   3.026  19.770  0.00  0.00    +0.000 A 
ATOM     15  C   UNL     1       3.715   2.168  18.897  0.00  0.00    +0.000 A 
ATOM     16  C   UNL     1       2.715   2.651  18.057  0.00  0.00    +0.000 A 
ATOM     17  C   UNL     1       2.343   3.990  18.078  0.00  0.00    +0.000 A 
BRANCH  15  18
ATOM     18  O   UNL     1       4.004   0.832  18.838  0.00  0.00    +0.000 OA
ATOM     19  H   UNL     1       3.703   0.497  17.975  0.00  0.00    +0.000 HD
ENDBRANCH  15  18
BRANCH  16  20
ATOM     20  O   UNL     1       2.064   1.794  17.212  0.00  0.00    +0.000 OA
ATOM     21  H   UNL     1       2.403   0.910  17.458  0.00  0.00    +0.000 HD
ENDBRANCH  16  20
ENDBRANCH   2  12
BRANCH   1  23
ATOM     22  O   UNL     1       3.757   7.572  16.055  0.00  0.00    +0.000 OA
ATOM     23  C   UNL     1       3.886   7.036  17.150  0.00  0.00    +0.000 C 
BRANCH  23  24
ATOM     24  C   UNL     1       5.099   6.199  17.370  0.00  0.00    +0.000 A 
ATOM     25  C   UNL     1       5.284   5.097  16.518  0.00  0.00    +0.000 A 
ATOM     26  C   UNL     1       6.446   4.326  16.591  0.00  0.00    +0.000 A 
ATOM     27  C   UNL     1       7.418   4.665  17.523  0.00  0.00    +0.000 A 
ATOM     28  C   UNL     1       7.218   5.732  18.396  0.00  0.00    +0.000 A 
ATOM     29  C   UNL     1       6.054   6.486  18.353  0.00  0.00    +0.000 A 
BRANCH  27  30
ATOM     30  O   UNL     1       8.596   3.978  17.619  0.00  0.00    +0.000 OA
ATOM     31  H   UNL     1       8.717   3.721  18.549  0.00  0.00    +0.000 HD
ENDBRANCH  27  30
BRANCH  28  32
ATOM     32  O   UNL     1       8.189   6.066  19.298  0.00  0.00    +0.000 OA
ATOM     33  H   UNL     1       7.797   6.796  19.817  0.00  0.00    +0.000 HD
ENDBRANCH  28  32
ENDBRANCH  23  24
ENDBRANCH   1  23
BRANCH   6  34
ATOM     34  O   UNL     1      -0.871   9.249  23.078  0.00  0.00    +0.000 OA
ATOM     35  H   UNL     1      -0.440   8.864  23.857  0.00  0.00    +0.000 HD
ENDBRANCH   6  34
BRANCH   8  36
ATOM     36  O   UNL     1       1.490  11.200  19.478  0.00  0.00    +0.000 OA
ATOM     37  H   UNL     1       0.716  11.720  19.207  0.00  0.00    +0.000 HD
ENDBRANCH   8  36
TORSDOF 9
ENDMDL
MODEL 4
REMARK VINA RESULT:      -7.9      0.757      1.716
REMARK  Name = 
REMARK  9 active torsions:
REMARK  status: ('A' for Active; 'I' for Inactive)
REMARK    1  A    between atoms: C_2  and  C_3
REMARK    2  A    between atoms: C_2  and  C_11
REMARK    3  A    between atoms: C_6  and  O_7
REMARK    4  A    between atoms: C_8  and  O_9
REMARK    5  A    between atoms: C_12  and  C_13
REMARK    6  A    between atoms: C_16  and  O_17
REMARK    7  A    between atoms: C_18  and  O_19
REMARK    8  A    between atoms: C_24  and  O_25
REMARK    9  A    between atoms: C_27  and  O_28
REMARK                            x       y       z     vdW  Elec       q    Type
REMARK                         _______ _______ _______ _____ _____    ______ ____
ROOT
ATOM      1  C   UNL     1       2.879   7.382  18.163  0.00  0.00    +0.000 A 
ATOM      2  C   UNL     1       2.564   6.376  19.010  0.00  0.00    +0.000 A 
ATOM      3  O   UNL     1       1.746   6.510  20.126  0.00  0.00    +0.000 OA
ATOM      4  C   UNL     1       1.343   7.767  20.501  0.00  0.00    +0.000 A 
ATOM      5  C   UNL     1       0.640   7.877  21.708  0.00  0.00    +0.000 A 
ATOM      6  C   UNL     1       0.208   9.132  22.132  0.00  0.00    +0.000 A 
ATOM      7  C   UNL     1       0.484  10.277  21.391  0.00  0.00    +0.000 A 
ATOM      8  C   UNL     1       1.184  10.160  20.191  0.00  0.00    +0.000 A 
ATOM      9  C   UNL     1       1.593   8.899  19.732  0.00  0.00    +0.000 A 
ATOM     10  C   UNL     1       2.226   8.696  18.420  0.00  0.00    +0.000 A 
ATOM     11  O   UNL     1       2.153   9.545  17.542  0.00  0.00    +0.000 OA
ENDROOT
BRANCH   2  12
ATOM     12  C   UNL     1       3.046   4.989  18.842  0.00  0.00    +0.000 A 
ATOM     13  C   UNL     1       4.134   4.515  19.598  0.00  0.00    +0.000 A 
ATOM     14  C   UNL     1       4.525   3.169  19.530  0.00  0.00    +0.000 A 
ATOM     15  C   UNL     1       3.829   2.307  18.692  0.00  0.00    +0.000 A 
ATOM     16  C   UNL     1       2.769   2.779  17.923  0.00  0.00    +0.000 A 
ATOM     17  C   UNL     1       2.376   4.111  17.982  0.00  0.00    +0.000 A 
BRANCH  15  18
ATOM     18  O   UNL     1       4.139   0.978  18.601  0.00  0.00    +0.000 OA
ATOM     19  H   UNL     1       3.329   0.496  18.356  0.00  0.00    +0.000 HD
ENDBRANCH  15  18
BRANCH  16  20
ATOM     20  O   UNL     1       2.081   1.918  17.113  0.00  0.00    +0.000 OA
ATOM     21  H   UNL     1       1.631   2.500  16.470  0.00  0.00    +0.000 HD
ENDBRANCH  16  20
ENDBRANCH   2  12
BRANCH   1  23
ATOM     22  O   UNL     1       3.499   7.713  15.870  0.00  0.00    +0.000 OA
ATOM     23  C   UNL     1       3.739   7.177  16.947  0.00  0.00    +0.000 C 
BRANCH  23  24
ATOM     24  C   UNL     1       4.981   6.361  17.050  0.00  0.00    +0.000 A 
ATOM     25  C   UNL     1       5.956   6.785  17.968  0.00  0.00    +0.000 A 
ATOM     26  C   UNL     1       7.101   6.019  18.198  0.00  0.00    +0.000 A 
ATOM     27  C   UNL     1       7.262   4.829  17.502  0.00  0.00    +0.000 A 
ATOM     28  C   UNL     1       6.316   4.428  16.560  0.00  0.00    +0.000 A 
ATOM     29  C   UNL     1       5.190   5.197  16.301  0.00  0.00    +0.000 A 
BRANCH  27  30
ATOM     30  O   UNL     1       8.338   4.011  17.710  0.00  0.00    +0.000 OA
ATOM     31  H   UNL     1       8.334   3.330  17.016  0.00  0.00    +0.000 HD
ENDBRANCH  27  30
BRANCH  28  32
ATOM     32  O   UNL     1       6.478   3.246  15.893  0.00  0.00    +0.000 OA
ATOM     33  H   UNL     1       7.444   3.100  15.890  0.00  0.00    +0.000 HD
ENDBRANCH  28  32
ENDBRANCH  23  24
ENDBRANCH   1  23
BRANCH   6  34
ATOM     34  O   UNL     1      -0.491   9.294  23.293  0.00  0.00    +0.000 OA
ATOM     35  H   UNL     1      -0.404  10.212  23.593  0.00  0.00    +0.000 HD
ENDBRANCH   6  34
BRANCH   8  36
ATOM     36  O   UNL     1       1.481  11.292  19.491  0.00  0.00    +0.000 OA
ATOM     37  H   UNL     1       1.123  11.242  18.591  0.00  0.00    +0.000 HD
ENDBRANCH   8  36
TORSDOF 9
ENDMDL
MODEL 5
REMARK VINA RESULT:      -7.6      4.654      8.426
REMARK  Name = 
REMARK  9 active torsions:
REMARK  status: ('A' for Active; 'I' for Inactive)
REMARK    1  A    between atoms: C_2  and  C_3
REMARK    2  A    between atoms: C_2  and  C_11
REMARK    3  A    between atoms: C_6  and  O_7
REMARK    4  A    between atoms: C_8  and  O_9
REMARK    5  A    between atoms: C_12  and  C_13
REMARK    6  A    between atoms: C_16  and  O_17
REMARK    7  A    between atoms: C_18  and  O_19
REMARK    8  A    between atoms: C_24  and  O_25
REMARK    9  A    between atoms: C_27  and  O_28
REMARK                            x       y       z     vdW  Elec       q    Type
REMARK                         _______ _______ _______ _____ _____    ______ ____
ROOT
ATOM      1  C   UNL     1      -0.218  12.375  19.137  0.00  0.00    +0.000 A 
ATOM      2  C   UNL     1       1.037  11.884  19.033  0.00  0.00    +0.000 A 
ATOM      3  O   UNL     1       2.186  12.663  18.954  0.00  0.00    +0.000 OA
ATOM      4  C   UNL     1       2.053  14.022  18.817  0.00  0.00    +0.000 A 
ATOM      5  C   UNL     1       3.224  14.759  18.597  0.00  0.00    +0.000 A 
ATOM      6  C   UNL     1       3.142  16.142  18.452  0.00  0.00    +0.000 A 
ATOM      7  C   UNL     1       1.916  16.799  18.498  0.00  0.00    +0.000 A 
ATOM      8  C   UNL     1       0.754  16.060  18.717  0.00  0.00    +0.000 A 
ATOM      9  C   UNL     1       0.825  14.670  18.902  0.00  0.00    +0.000 A 
ATOM     10  C   UNL     1      -0.345  13.853  19.256  0.00  0.00    +0.000 A 
ATOM     11  O   UNL     1      -1.363  14.364  19.705  0.00  0.00    +0.000 OA
ENDROOT
BRANCH   2  12
ATOM     12  C   UNL     1       1.348  10.439  19.005  0.00  0.00    +0.000 A 
ATOM     13  C   UNL     1       1.834   9.836  17.829  0.00  0.00    +0.000 A 
ATOM     14  C   UNL     1       2.240   8.493  17.825  0.00  0.00    +0.000 A 
ATOM     15  C   UNL     1       2.143   7.756  18.998  0.00  0.00    +0.000 A 
ATOM     16  C   UNL     1       1.638   8.342  20.155  0.00  0.00    +0.000 A 
ATOM     17  C   UNL     1       1.232   9.672  20.169  0.00  0.00    +0.000 A 
BRANCH  15  18
ATOM     18  O   UNL     1       2.548   6.452  19.071  0.00  0.00    +0.000 OA
ATOM     19  H   UNL     1       1.982   5.927  18.477  0.00  0.00    +0.000 HD
ENDBRANCH  15  18
BRANCH  16  20
ATOM     20  O   UNL     1       1.562   7.612  21.309  0.00  0.00    +0.000 OA
ATOM     21  H   UNL     1       2.486   7.560  21.623  0.00  0.00    +0.000 HD
ENDBRANCH  16  20
ENDBRANCH   2  12
BRANCH   1  23
ATOM     22  O   UNL     1      -1.811  11.038  20.332  0.00  0.00    +0.000 OA
ATOM     23  C   UNL     1      -1.426  11.488  19.258  0.00  0.00    +0.000 C 
BRANCH  23  24
ATOM     24  C   UNL     1      -2.253  11.197  18.053  0.00  0.00    +0.000 A 
ATOM     25  C   UNL     1      -1.678  10.389  17.058  0.00  0.00    +0.000 A 
ATOM     26  C   UNL     1      -2.423   9.986  15.948  0.00  0.00    +0.000 A 
ATOM     27  C   UNL     1      -3.745  10.398  15.842  0.00  0.00    +0.000 A 
ATOM     28  C   UNL     1      -4.303  11.234  16.807  0.00  0.00    +0.000 A 
ATOM     29  C   UNL     1      -3.563  11.665  17.898  0.00  0.00    +0.000 A 
BRANCH  27  30
ATOM     30  O   UNL     1      -4.542  10.006  14.803  0.00  0.00    +0.000 OA
ATOM     31  H   UNL     1      -5.299  10.614  14.761  0.00  0.00    +0.000 HD
ENDBRANCH  27  30
BRANCH  28  32
ATOM     32  O   UNL     1      -5.610  11.620  16.700  0.00  0.00    +0.000 OA
ATOM     33  H   UNL     1      -5.945  11.599  17.618  0.00  0.00    +0.000 HD
ENDBRANCH  28  32
ENDBRANCH  23  24
ENDBRANCH   1  23
BRANCH   6  34
ATOM     34  O   UNL     1       4.253  16.908  18.249  0.00  0.00    +0.000 OA
ATOM     35  H   UNL     1       4.151  17.750  18.721  0.00  0.00    +0.000 HD
ENDBRANCH   6  34
BRANCH   8  36
ATOM     36  O   UNL     1      -0.445  16.708  18.723  0.00  0.00    +0.000 OA
ATOM     37  H   UNL     1      -1.178  16.072  18.728  0.00  0.00    +0.000 HD
ENDBRANCH   8  36
TORSDOF 9
ENDMDL
MODEL 6
REMARK VINA RESULT:      -7.2      4.432      8.230
REMARK  Name = 
REMARK  9 active torsions:
REMARK  status: ('A' for Active; 'I' for Inactive)
REMARK    1  A    between atoms: C_2  and  C_3
REMARK    2  A    between atoms: C_2  and  C_11
REMARK    3  A    between atoms: C_6  and  O_7
REMARK    4  A    between atoms: C_8  and  O_9
REMARK    5  A    between atoms: C_12  and  C_13
REMARK    6  A    between atoms: C_16  and  O_17
REMARK    7  A    between atoms: C_18  and  O_19
REMARK    8  A    between atoms: C_24  and  O_25
REMARK    9  A    between atoms: C_27  and  O_28
REMARK                            x       y       z     vdW  Elec       q    Type
REMARK                         _______ _______ _______ _____ _____    ______ ____
ROOT
ATOM      1  C   UNL     1       0.248  12.428  20.159  0.00  0.00    +0.000 A 
ATOM      2  C   UNL     1      -0.586  13.022  19.277  0.00  0.00    +0.000 A 
ATOM      3  O   UNL     1      -0.418  14.307  18.773  0.00  0.00    +0.000 OA
ATOM      4  C   UNL     1       0.565  15.101  19.306  0.00  0.00    +0.000 A 
ATOM      5  C   UNL     1       0.611  16.434  18.876  0.00  0.00    +0.000 A 
ATOM      6  C   UNL     1       1.592  17.281  19.387  0.00  0.00    +0.000 A 
ATOM      7  C   UNL     1       2.508  16.833  20.334  0.00  0.00    +0.000 A 
ATOM      8  C   UNL     1       2.456  15.506  20.759  0.00  0.00    +0.000 A 
ATOM      9  C   UNL     1       1.497  14.631  20.225  0.00  0.00    +0.000 A 
ATOM     10  C   UNL     1       1.468  13.194  20.540  0.00  0.00    +0.000 A 
ATOM     11  O   UNL     1       2.439  12.632  21.027  0.00  0.00    +0.000 OA
ENDROOT
BRANCH   2  12
ATOM     12  C   UNL     1      -1.786  12.363  18.720  0.00  0.00    +0.000 A 
ATOM     13  C   UNL     1      -3.003  12.380  19.429  0.00  0.00    +0.000 A 
ATOM     14  C   UNL     1      -4.174  11.859  18.859  0.00  0.00    +0.000 A 
ATOM     15  C   UNL     1      -4.116  11.310  17.584  0.00  0.00    +0.000 A 
ATOM     16  C   UNL     1      -2.909  11.268  16.892  0.00  0.00    +0.000 A 
ATOM     17  C   UNL     1      -1.743  11.780  17.448  0.00  0.00    +0.000 A 
BRANCH  15  18
ATOM     18  O   UNL     1      -5.226  10.812  16.958  0.00  0.00    +0.000 OA
ATOM     19  H   UNL     1      -5.080  10.868  15.997  0.00  0.00    +0.000 HD
ENDBRANCH  15  18
BRANCH  16  20
ATOM     20  O   UNL     1      -2.868  10.740  15.631  0.00  0.00    +0.000 OA
ATOM     21  H   UNL     1      -3.806  10.595  15.399  0.00  0.00    +0.000 HD
ENDBRANCH  16  20
ENDBRANCH   2  12
BRANCH   1  23
ATOM     22  O   UNL     1      -0.749  10.736  21.536  0.00  0.00    +0.000 OA
ATOM     23  C   UNL     1       0.044  11.020  20.645  0.00  0.00    +0.000 C 
BRANCH  23  24
ATOM     24  C   UNL     1       0.761   9.898  19.977  0.00  0.00    +0.000 A 
ATOM     25  C   UNL     1       1.133  10.079  18.634  0.00  0.00    +0.000 A 
ATOM     26  C   UNL     1       1.897   9.118  17.969  0.00  0.00    +0.000 A 
ATOM     27  C   UNL     1       2.285   7.976  18.658  0.00  0.00    +0.000 A 
ATOM     28  C   UNL     1       1.881   7.775  19.977  0.00  0.00    +0.000 A 
ATOM     29  C   UNL     1       1.096   8.709  20.637  0.00  0.00    +0.000 A 
BRANCH  27  30
ATOM     30  O   UNL     1       3.068   7.016  18.080  0.00  0.00    +0.000 OA
ATOM     31  H   UNL     1       2.636   6.735  17.255  0.00  0.00    +0.000 HD
ENDBRANCH  27  30
BRANCH  28  32
ATOM     32  O   UNL     1       2.283   6.655  20.649  0.00  0.00    +0.000 OA
ATOM     33  H   UNL     1       2.797   6.998  21.406  0.00  0.00    +0.000 HD
ENDBRANCH  28  32
ENDBRANCH  23  24
ENDBRANCH   1  23
BRANCH   6  34
ATOM     34  O   UNL     1       1.691  18.584  18.992  0.00  0.00    +0.000 OA
ATOM     35  H   UNL     1       0.861  18.852  18.567  0.00  0.00    +0.000 HD
ENDBRANCH   6  34
BRANCH   8  36
ATOM     36  O   UNL     1       3.333  15.087  21.714  0.00  0.00    +0.000 OA
ATOM     37  H   UNL     1       3.132  15.501  22.569  0.00  0.00    +0.000 HD
ENDBRANCH   8  36
TORSDOF 9
ENDMDL
MODEL 7
REMARK VINA RESULT:      -7.2      4.532      8.338
REMARK  Name = 
REMARK  9 active torsions:
REMARK  status: ('A' for Active; 'I' for Inactive)
REMARK    1  A    between atoms: C_2  and  C_3
REMARK    2  A    between atoms: C_2  and  C_11
REMARK    3  A    between atoms: C_6  and  O_7
REMARK    4  A    between atoms: C_8  and  O_9
REMARK    5  A    between atoms: C_12  and  C_13
REMARK    6  A    between atoms: C_16  and  O_17
REMARK    7  A    between atoms: C_18  and  O_19
REMARK    8  A    between atoms: C_24  and  O_25
REMARK    9  A    between atoms: C_27  and  O_28
REMARK                            x       y       z     vdW  Elec       q    Type
REMARK                         _______ _______ _______ _____ _____    ______ ____
ROOT
ATOM      1  C   UNL     1      -0.233  12.337  19.228  0.00  0.00    +0.000 A 
ATOM      2  C   UNL     1       1.023  11.866  19.057  0.00  0.00    +0.000 A 
ATOM      3  O   UNL     1       2.153  12.663  18.913  0.00  0.00    +0.000 OA
ATOM      4  C   UNL     1       1.990  14.019  18.780  0.00  0.00    +0.000 A 
ATOM      5  C   UNL     1       3.136  14.773  18.493  0.00  0.00    +0.000 A 
ATOM      6  C   UNL     1       3.024  16.154  18.350  0.00  0.00    +0.000 A 
ATOM      7  C   UNL     1       1.792  16.792  18.461  0.00  0.00    +0.000 A 
ATOM      8  C   UNL     1       0.656  16.036  18.745  0.00  0.00    +0.000 A 
ATOM      9  C   UNL     1       0.759  14.648  18.930  0.00  0.00    +0.000 A 
ATOM     10  C   UNL     1      -0.377  13.814  19.350  0.00  0.00    +0.000 A 
ATOM     11  O   UNL     1      -1.377  14.310  19.852  0.00  0.00    +0.000 OA
ENDROOT
BRANCH   2  12
ATOM     12  C   UNL     1       1.354  10.426  19.016  0.00  0.00    +0.000 A 
ATOM     13  C   UNL     1       1.802   9.830  17.821  0.00  0.00    +0.000 A 
ATOM     14  C   UNL     1       2.228   8.494  17.800  0.00  0.00    +0.000 A 
ATOM     15  C   UNL     1       2.190   7.756  18.976  0.00  0.00    +0.000 A 
ATOM     16  C   UNL     1       1.724   8.335  20.153  0.00  0.00    +0.000 A 
ATOM     17  C   UNL     1       1.297   9.658  20.184  0.00  0.00    +0.000 A 
BRANCH  15  18
ATOM     18  O   UNL     1       2.619   6.458  19.032  0.00  0.00    +0.000 OA
ATOM     19  H   UNL     1       2.350   6.017  18.207  0.00  0.00    +0.000 HD
ENDBRANCH  15  18
BRANCH  16  20
ATOM     20  O   UNL     1       1.706   7.603  21.309  0.00  0.00    +0.000 OA
ATOM     21  H   UNL     1       1.799   8.270  22.018  0.00  0.00    +0.000 HD
ENDBRANCH  16  20
ENDBRANCH   2  12
BRANCH   1  23
ATOM     22  O   UNL     1      -1.746  10.993  20.515  0.00  0.00    +0.000 OA
ATOM     23  C   UNL     1      -1.418  11.431  19.418  0.00  0.00    +0.000 C 
BRANCH  23  24
ATOM     24  C   UNL     1      -2.292  11.106  18.256  0.00  0.00    +0.000 A 
ATOM     25  C   UNL     1      -3.574  11.681  18.234  0.00  0.00    +0.000 A 
ATOM     26  C   UNL     1      -4.414  11.509  17.131  0.00  0.00    +0.000 A 
ATOM     27  C   UNL     1      -3.961  10.757  16.055  0.00  0.00    +0.000 A 
ATOM     28  C   UNL     1      -2.707  10.152  16.094  0.00  0.00    +0.000 A 
ATOM     29  C   UNL     1      -1.877  10.291  17.197  0.00  0.00    +0.000 A 
BRANCH  27  30
ATOM     30  O   UNL     1      -4.716  10.584  14.928  0.00  0.00    +0.000 OA
ATOM     31  H   UNL     1      -4.109  10.452  14.179  0.00  0.00    +0.000 HD
ENDBRANCH  27  30
BRANCH  28  32
ATOM     32  O   UNL     1      -2.266   9.428  15.021  0.00  0.00    +0.000 OA
ATOM     33  H   UNL     1      -2.275   8.502  15.334  0.00  0.00    +0.000 HD
ENDBRANCH  28  32
ENDBRANCH  23  24
ENDBRANCH   1  23
BRANCH   6  34
ATOM     34  O   UNL     1       4.110  16.938  18.084  0.00  0.00    +0.000 OA
ATOM     35  H   UNL     1       4.080  17.726  18.648  0.00  0.00    +0.000 HD
ENDBRANCH   6  34
BRANCH   8  36
ATOM     36  O   UNL     1      -0.552  16.665  18.814  0.00  0.00    +0.000 OA
ATOM     37  H   UNL     1      -0.516  17.526  18.368  0.00  0.00    +0.000 HD
ENDBRANCH   8  36
TORSDOF 9
ENDMDL
MODEL 8
REMARK VINA RESULT:      -7.2      3.919      8.387
REMARK  Name = 
REMARK  9 active torsions:
REMARK  status: ('A' for Active; 'I' for Inactive)
REMARK    1  A    between atoms: C_2  and  C_3
REMARK    2  A    between atoms: C_2  and  C_11
REMARK    3  A    between atoms: C_6  and  O_7
REMARK    4  A    between atoms: C_8  and  O_9
REMARK    5  A    between atoms: C_12  and  C_13
REMARK    6  A    between atoms: C_16  and  O_17
REMARK    7  A    between atoms: C_18  and  O_19
REMARK    8  A    between atoms: C_24  and  O_25
REMARK    9  A    between atoms: C_27  and  O_28
REMARK                            x       y       z     vdW  Elec       q    Type
REMARK                         _______ _______ _______ _____ _____    ______ ____
ROOT
ATOM      1  C   UNL     1       0.935  12.588  19.494  0.00  0.00    +0.000 A 
ATOM      2  C   UNL     1       0.531  13.224  20.616  0.00  0.00    +0.000 A 
ATOM      3  O   UNL     1       1.137  14.360  21.141  0.00  0.00    +0.000 OA
ATOM      4  C   UNL     1       2.316  14.794  20.589  0.00  0.00    +0.000 A 
ATOM      5  C   UNL     1       2.970  15.852  21.233  0.00  0.00    +0.000 A 
ATOM      6  C   UNL     1       4.170  16.329  20.711  0.00  0.00    +0.000 A 
ATOM      7  C   UNL     1       4.741  15.757  19.579  0.00  0.00    +0.000 A 
ATOM      8  C   UNL     1       4.085  14.704  18.943  0.00  0.00    +0.000 A 
ATOM      9  C   UNL     1       2.857  14.237  19.435  0.00  0.00    +0.000 A 
ATOM     10  C   UNL     1       2.059  13.214  18.743  0.00  0.00    +0.000 A 
ATOM     11  O   UNL     1       2.260  12.940  17.567  0.00  0.00    +0.000 OA
ENDROOT
BRANCH   2  12
ATOM     12  C   UNL     1      -0.629  12.794  21.424  0.00  0.00    +0.000 A 
ATOM     13  C   UNL     1      -0.502  11.744  22.352  0.00  0.00    +0.000 A 
ATOM     14  C   UNL     1      -1.564  11.405  23.204  0.00  0.00    +0.000 A 
ATOM     15  C   UNL     1      -2.755  12.113  23.111  0.00  0.00    +0.000 A 
ATOM     16  C   UNL     1      -2.893  13.135  22.176  0.00  0.00    +0.000 A 
ATOM     17  C   UNL     1      -1.847  13.477  21.326  0.00  0.00    +0.000 A 
BRANCH  15  18
ATOM     18  O   UNL     1      -3.819  11.854  23.931  0.00  0.00    +0.000 OA
ATOM     19  H   UNL     1      -4.510  12.515  23.745  0.00  0.00    +0.000 HD
ENDBRANCH  15  18
BRANCH  16  20
ATOM     20  O   UNL     1      -4.065  13.837  22.104  0.00  0.00    +0.000 OA
ATOM     21  H   UNL     1      -3.877  14.668  22.582  0.00  0.00    +0.000 HD
ENDBRANCH  16  20
ENDBRANCH   2  12
BRANCH   1  23
ATOM     22  O   UNL     1      -0.852  11.462  18.356  0.00  0.00    +0.000 OA
ATOM     23  C   UNL     1       0.221  11.384  18.944  0.00  0.00    +0.000 C 
BRANCH  23  24
ATOM     24  C   UNL     1       0.862  10.042  19.033  0.00  0.00    +0.000 A 
ATOM     25  C   UNL     1       1.454   9.531  17.865  0.00  0.00    +0.000 A 
ATOM     26  C   UNL     1       2.163   8.329  17.891  0.00  0.00    +0.000 A 
ATOM     27  C   UNL     1       2.274   7.642  19.094  0.00  0.00    +0.000 A 
ATOM     28  C   UNL     1       1.652   8.126  20.243  0.00  0.00    +0.000 A 
ATOM     29  C   UNL     1       0.919   9.303  20.221  0.00  0.00    +0.000 A 
BRANCH  27  30
ATOM     30  O   UNL     1       2.989   6.481  19.198  0.00  0.00    +0.000 OA
ATOM     31  H   UNL     1       3.846   6.618  18.761  0.00  0.00    +0.000 HD
ENDBRANCH  27  30
BRANCH  28  32
ATOM     32  O   UNL     1       1.782   7.449  21.424  0.00  0.00    +0.000 OA
ATOM     33  H   UNL     1       2.410   7.989  21.944  0.00  0.00    +0.000 HD
ENDBRANCH  28  32
ENDBRANCH  23  24
ENDBRANCH   1  23
BRANCH   6  34
ATOM     34  O   UNL     1       4.842  17.367  21.292  0.00  0.00    +0.000 OA
ATOM     35  H   UNL     1       4.201  17.997  21.658  0.00  0.00    +0.000 HD
ENDBRANCH   6  34
BRANCH   8  36
ATOM     36  O   UNL     1       4.671  14.125  17.856  0.00  0.00    +0.000 OA
ATOM     37  H   UNL     1       5.261  13.404  18.129  0.00  0.00    +0.000 HD
ENDBRANCH   8  36
TORSDOF 9
ENDMDL
MODEL 9
REMARK VINA RESULT:      -7.1      4.374     10.060
REMARK  Name = 
REMARK  9 active torsions:
REMARK  status: ('A' for Active; 'I' for Inactive)
REMARK    1  A    between atoms: C_2  and  C_3
REMARK    2  A    between atoms: C_2  and  C_11
REMARK    3  A    between atoms: C_6  and  O_7
REMARK    4  A    between atoms: C_8  and  O_9
REMARK    5  A    between atoms: C_12  and  C_13
REMARK    6  A    between atoms: C_16  and  O_17
REMARK    7  A    between atoms: C_18  and  O_19
REMARK    8  A    between atoms: C_24  and  O_25
REMARK    9  A    between atoms: C_27  and  O_28
REMARK                            x       y       z     vdW  Elec       q    Type
REMARK                         _______ _______ _______ _____ _____    ______ ____
ROOT
ATOM      1  C   UNL     1      -0.400  12.478  20.323  0.00  0.00    +0.000 A 
ATOM      2  C   UNL     1      -0.585  11.927  21.543  0.00  0.00    +0.000 A 
ATOM      3  O   UNL     1      -0.048  10.711  21.950  0.00  0.00    +0.000 OA
ATOM      4  C   UNL     1       0.590   9.928  21.021  0.00  0.00    +0.000 A 
ATOM      5  C   UNL     1       0.991   8.650  21.432  0.00  0.00    +0.000 A 
ATOM      6  C   UNL     1       1.643   7.817  20.526  0.00  0.00    +0.000 A 
ATOM      7  C   UNL     1       1.879   8.222  19.216  0.00  0.00    +0.000 A 
ATOM      8  C   UNL     1       1.476   9.495  18.813  0.00  0.00    +0.000 A 
ATOM      9  C   UNL     1       0.852  10.360  19.725  0.00  0.00    +0.000 A 
ATOM     10  C   UNL     1       0.514  11.753  19.398  0.00  0.00    +0.000 A 
ATOM     11  O   UNL     1       1.024  12.322  18.441  0.00  0.00    +0.000 OA
ENDROOT
BRANCH   2  12
ATOM     12  C   UNL     1      -1.380  12.565  22.614  0.00  0.00    +0.000 A 
ATOM     13  C   UNL     1      -0.942  13.762  23.211  0.00  0.00    +0.000 A 
ATOM     14  C   UNL     1      -1.744  14.435  24.144  0.00  0.00    +0.000 A 
ATOM     15  C   UNL     1      -2.978  13.896  24.485  0.00  0.00    +0.000 A 
ATOM     16  C   UNL     1      -3.403  12.699  23.916  0.00  0.00    +0.000 A 
ATOM     17  C   UNL     1      -2.614  12.024  22.991  0.00  0.00    +0.000 A 
BRANCH  15  18
ATOM     18  O   UNL     1      -3.822  14.516  25.366  0.00  0.00    +0.000 OA
ATOM     19  H   UNL     1      -4.049  15.390  25.001  0.00  0.00    +0.000 HD
ENDBRANCH  15  18
BRANCH  16  20
ATOM     20  O   UNL     1      -4.627  12.186  24.246  0.00  0.00    +0.000 OA
ATOM     21  H   UNL     1      -5.031  12.873  24.812  0.00  0.00    +0.000 HD
ENDBRANCH  16  20
ENDBRANCH   2  12
BRANCH   1  23
ATOM     22  O   UNL     1      -2.178  14.017  19.847  0.00  0.00    +0.000 OA
ATOM     23  C   UNL     1      -0.972  13.817  19.944  0.00  0.00    +0.000 C 
BRANCH  23  24
ATOM     24  C   UNL     1      -0.062  14.981  19.754  0.00  0.00    +0.000 A 
ATOM     25  C   UNL     1       1.039  15.086  20.620  0.00  0.00    +0.000 A 
ATOM     26  C   UNL     1       1.994  16.089  20.442  0.00  0.00    +0.000 A 
ATOM     27  C   UNL     1       1.837  16.985  19.392  0.00  0.00    +0.000 A 
ATOM     28  C   UNL     1       0.723  16.908  18.558  0.00  0.00    +0.000 A 
ATOM     29  C   UNL     1      -0.247  15.934  18.745  0.00  0.00    +0.000 A 
BRANCH  27  30
ATOM     30  O   UNL     1       2.756  17.964  19.136  0.00  0.00    +0.000 OA
ATOM     31  H   UNL     1       3.210  17.739  18.306  0.00  0.00    +0.000 HD
ENDBRANCH  27  30
BRANCH  28  32
ATOM     32  O   UNL     1       0.589  17.785  17.518  0.00  0.00    +0.000 OA
ATOM     33  H   UNL     1      -0.294  18.184  17.651  0.00  0.00    +0.000 HD
ENDBRANCH  28  32
ENDBRANCH  23  24
ENDBRANCH   1  23
BRANCH   6  34
ATOM     34  O   UNL     1       2.067   6.568  20.878  0.00  0.00    +0.000 OA
ATOM     35  H   UNL     1       1.313   6.055  21.206  0.00  0.00    +0.000 HD
ENDBRANCH   6  34
BRANCH   8  36
ATOM     36  O   UNL     1       1.678   9.868  17.517  0.00  0.00    +0.000 OA
ATOM     37  H   UNL     1       0.896   9.670  16.978  0.00  0.00    +0.000 HD
ENDBRANCH   8  36
TORSDOF 9
ENDMDL
