MODEL 1
REMARK VINA RESULT:      -6.5      0.000      0.000
REMARK  Name = 
REMARK  2 active torsions:
REMARK  status: ('A' for Active; 'I' for Inactive)
REMARK    1  A    between atoms: C_1  and  C_2
REMARK    2  A    between atoms: C_6  and  N_7
REMARK                            x       y       z     vdW  Elec       q    Type
REMARK                         _______ _______ _______ _____ _____    ______ ____
ROOT
ATOM      1  C   UNL     1       0.879   3.448  20.057  0.00  0.00    +0.000 C 
ATOM      2  C   UNL     1       2.102   2.531  19.961  0.00  0.00    +0.000 C 
ATOM      3  C   UNL     1       3.416   3.299  20.261  0.00  0.00    +0.000 C 
ATOM      4  C   UNL     1       4.130   3.667  19.004  0.00  0.00    +0.000 A 
ATOM      5  S   UNL     1       5.528   4.635  19.004  0.00  0.00    +0.000 S 
ATOM      6  C   UNL     1       5.678   4.501  17.317  0.00  0.00    +0.000 A 
ATOM      7  C   UNL     1       4.680   3.727  16.755  0.00  0.00    +0.000 A 
ATOM      8  C   UNL     1       3.759   3.241  17.745  0.00  0.00    +0.000 A 
ATOM      9  C   UNL     1       2.537   2.413  17.501  0.00  0.00    +0.000 C 
ATOM     10  N   UNL     1       2.092   1.724  18.721  0.00  0.00    +0.000 NA
ATOM     11  H   UNL     1       2.689   0.911  18.859  0.00  0.00    +0.000 HD
ENDROOT
BRANCH   6  12
ATOM     12  N   UNL     1       6.758   5.158  16.620  0.00  0.00    +0.000 N 
ATOM     13  O   UNL     1       7.824   4.534  16.556  0.00  0.00    +0.000 OA
ATOM     14  O   UNL     1       6.554   6.281  16.136  0.00  0.00    +0.000 OA
ENDBRANCH   6  12
TORSDOF 1
ENDMDL
MODEL 2
REMARK VINA RESULT:      -6.3      1.596      2.171
REMARK  Name = 
REMARK  2 active torsions:
REMARK  status: ('A' for Active; 'I' for Inactive)
REMARK    1  A    between atoms: C_1  and  C_2
REMARK    2  A    between atoms: C_6  and  N_7
REMARK                            x       y       z     vdW  Elec       q    Type
REMARK                         _______ _______ _______ _____ _____    ______ ____
ROOT
ATOM      1  C   UNL     1       1.232   2.464  19.417  0.00  0.00    +0.000 C 
ATOM      2  C   UNL     1       1.381   3.859  18.803  0.00  0.00    +0.000 C 
ATOM      3  C   UNL     1       2.183   3.815  17.476  0.00  0.00    +0.000 C 
ATOM      4  C   UNL     1       3.602   4.225  17.684  0.00  0.00    +0.000 A 
ATOM      5  S   UNL     1       4.762   4.144  16.443  0.00  0.00    +0.000 S 
ATOM      6  C   UNL     1       5.959   4.798  17.456  0.00  0.00    +0.000 A 
ATOM      7  C   UNL     1       5.487   5.079  18.724  0.00  0.00    +0.000 A 
ATOM      8  C   UNL     1       4.099   4.735  18.866  0.00  0.00    +0.000 A 
ATOM      9  C   UNL     1       3.268   4.859  20.104  0.00  0.00    +0.000 C 
ATOM     10  N   UNL     1       1.830   4.857  19.798  0.00  0.00    +0.000 NA
ATOM     11  H   UNL     1       1.578   5.785  19.463  0.00  0.00    +0.000 HD
ENDROOT
BRANCH   6  12
ATOM     12  N   UNL     1       7.302   5.002  16.969  0.00  0.00    +0.000 N 
ATOM     13  O   UNL     1       8.158   4.210  17.382  0.00  0.00    +0.000 OA
ATOM     14  O   UNL     1       7.511   5.937  16.181  0.00  0.00    +0.000 OA
ENDBRANCH   6  12
TORSDOF 1
ENDMDL
MODEL 3
REMARK VINA RESULT:      -6.1      0.807      1.025
REMARK  Name = 
REMARK  2 active torsions:
REMARK  status: ('A' for Active; 'I' for Inactive)
REMARK    1  A    between atoms: C_1  and  C_2
REMARK    2  A    between atoms: C_6  and  N_7
REMARK                            x       y       z     vdW  Elec       q    Type
REMARK                         _______ _______ _______ _____ _____    ______ ____
ROOT
ATOM      1  C   UNL     1       1.319   3.097  20.044  0.00  0.00    +0.000 C 
ATOM      2  C   UNL     1       2.527   2.311  19.527  0.00  0.00    +0.000 C 
ATOM      3  C   UNL     1       3.863   2.991  19.925  0.00  0.00    +0.000 C 
ATOM      4  C   UNL     1       4.432   3.776  18.792  0.00  0.00    +0.000 A 
ATOM      5  S   UNL     1       5.818   4.747  18.965  0.00  0.00    +0.000 S 
ATOM      6  C   UNL     1       5.781   5.174  17.321  0.00  0.00    +0.000 A 
ATOM      7  C   UNL     1       4.730   4.587  16.642  0.00  0.00    +0.000 A 
ATOM      8  C   UNL     1       3.926   3.768  17.508  0.00  0.00    +0.000 A 
ATOM      9  C   UNL     1       2.688   3.016  17.134  0.00  0.00    +0.000 C 
ATOM     10  N   UNL     1       2.383   1.951  18.100  0.00  0.00    +0.000 NA
ATOM     11  H   UNL     1       2.995   1.162  17.901  0.00  0.00    +0.000 HD
ENDROOT
BRANCH   6  12
ATOM     12  N   UNL     1       6.774   6.065  16.770  0.00  0.00    +0.000 N 
ATOM     13  O   UNL     1       7.049   7.062  17.450  0.00  0.00    +0.000 OA
ATOM     14  O   UNL     1       7.284   5.780  15.676  0.00  0.00    +0.000 OA
ENDBRANCH   6  12
TORSDOF 1
ENDMDL
MODEL 4
REMARK VINA RESULT:      -5.9      3.136      5.303
REMARK  Name = 
REMARK  2 active torsions:
REMARK  status: ('A' for Active; 'I' for Inactive)
REMARK    1  A    between atoms: C_1  and  C_2
REMARK    2  A    between atoms: C_6  and  N_7
REMARK                            x       y       z     vdW  Elec       q    Type
REMARK                         _______ _______ _______ _____ _____    ______ ____
ROOT
ATOM      1  C   UNL     1       8.017   6.999  18.362  0.00  0.00    +0.000 C 
ATOM      2  C   UNL     1       7.131   7.044  17.114  0.00  0.00    +0.000 C 
ATOM      3  C   UNL     1       5.629   7.166  17.483  0.00  0.00    +0.000 C 
ATOM      4  C   UNL     1       4.940   5.845  17.400  0.00  0.00    +0.000 A 
ATOM      5  S   UNL     1       3.323   5.633  17.881  0.00  0.00    +0.000 S 
ATOM      6  C   UNL     1       3.353   3.997  17.426  0.00  0.00    +0.000 A 
ATOM      7  C   UNL     1       4.576   3.611  16.910  0.00  0.00    +0.000 A 
ATOM      8  C   UNL     1       5.518   4.696  16.901  0.00  0.00    +0.000 A 
ATOM      9  C   UNL     1       6.946   4.638  16.456  0.00  0.00    +0.000 C 
ATOM     10  N   UNL     1       7.477   5.975  16.152  0.00  0.00    +0.000 NA
ATOM     11  H   UNL     1       7.137   6.245  15.231  0.00  0.00    +0.000 HD
ENDROOT
BRANCH   6  12
ATOM     12  N   UNL     1       2.185   3.165  17.595  0.00  0.00    +0.000 N 
ATOM     13  O   UNL     1       1.091   3.735  17.495  0.00  0.00    +0.000 OA
ATOM     14  O   UNL     1       2.347   1.957  17.822  0.00  0.00    +0.000 OA
ENDBRANCH   6  12
TORSDOF 1
ENDMDL
MODEL 5
REMARK VINA RESULT:      -5.9      1.494      1.887
REMARK  Name = 
REMARK  2 active torsions:
REMARK  status: ('A' for Active; 'I' for Inactive)
REMARK    1  A    between atoms: C_1  and  C_2
REMARK    2  A    between atoms: C_6  and  N_7
REMARK                            x       y       z     vdW  Elec       q    Type
REMARK                         _______ _______ _______ _____ _____    ______ ____
ROOT
ATOM      1  C   UNL     1       0.911   2.711  18.591  0.00  0.00    +0.000 C 
ATOM      2  C   UNL     1       1.516   3.939  19.277  0.00  0.00    +0.000 C 
ATOM      3  C   UNL     1       2.112   4.933  18.246  0.00  0.00    +0.000 C 
ATOM      4  C   UNL     1       3.594   4.791  18.147  0.00  0.00    +0.000 A 
ATOM      5  S   UNL     1       4.514   5.647  17.001  0.00  0.00    +0.000 S 
ATOM      6  C   UNL     1       5.959   4.983  17.596  0.00  0.00    +0.000 A 
ATOM      7  C   UNL     1       5.752   4.121  18.656  0.00  0.00    +0.000 A 
ATOM      8  C   UNL     1       4.357   3.998  18.979  0.00  0.00    +0.000 A 
ATOM      9  C   UNL     1       3.756   3.125  20.035  0.00  0.00    +0.000 C 
ATOM     10  N   UNL     1       2.401   3.564  20.401  0.00  0.00    +0.000 NA
ATOM     11  H   UNL     1       2.488   4.363  21.026  0.00  0.00    +0.000 HD
ENDROOT
BRANCH   6  12
ATOM     12  N   UNL     1       7.228   5.330  17.001  0.00  0.00    +0.000 N 
ATOM     13  O   UNL     1       8.077   4.430  16.964  0.00  0.00    +0.000 OA
ATOM     14  O   UNL     1       7.384   6.481  16.567  0.00  0.00    +0.000 OA
ENDBRANCH   6  12
TORSDOF 1
ENDMDL
MODEL 6
REMARK VINA RESULT:      -5.8      3.481      5.357
REMARK  Name = 
REMARK  2 active torsions:
REMARK  status: ('A' for Active; 'I' for Inactive)
REMARK    1  A    between atoms: C_1  and  C_2
REMARK    2  A    between atoms: C_6  and  N_7
REMARK                            x       y       z     vdW  Elec       q    Type
REMARK                         _______ _______ _______ _____ _____    ______ ____
ROOT
ATOM      1  C   UNL     1       6.674   5.994  16.341  0.00  0.00    +0.000 C 
ATOM      2  C   UNL     1       6.587   4.536  16.801  0.00  0.00    +0.000 C 
ATOM      3  C   UNL     1       5.250   3.880  16.368  0.00  0.00    +0.000 C 
ATOM      4  C   UNL     1       4.272   3.844  17.494  0.00  0.00    +0.000 A 
ATOM      5  S   UNL     1       2.669   3.311  17.288  0.00  0.00    +0.000 S 
ATOM      6  C   UNL     1       2.335   3.531  18.939  0.00  0.00    +0.000 A 
ATOM      7  C   UNL     1       3.427   4.002  19.644  0.00  0.00    +0.000 A 
ATOM      8  C   UNL     1       4.569   4.197  18.794  0.00  0.00    +0.000 A 
ATOM      9  C   UNL     1       5.906   4.733  19.199  0.00  0.00    +0.000 C 
ATOM     10  N   UNL     1       6.951   4.384  18.227  0.00  0.00    +0.000 NA
ATOM     11  H   UNL     1       7.222   3.416  18.390  0.00  0.00    +0.000 HD
ENDROOT
BRANCH   6  12
ATOM     12  N   UNL     1       1.025   3.239  19.469  0.00  0.00    +0.000 N 
ATOM     13  O   UNL     1       0.662   3.924  20.433  0.00  0.00    +0.000 OA
ATOM     14  O   UNL     1       0.356   2.341  18.935  0.00  0.00    +0.000 OA
ENDBRANCH   6  12
TORSDOF 1
ENDMDL
MODEL 7
REMARK VINA RESULT:      -5.8      1.625      2.038
REMARK  Name = 
REMARK  2 active torsions:
REMARK  status: ('A' for Active; 'I' for Inactive)
REMARK    1  A    between atoms: C_1  and  C_2
REMARK    2  A    between atoms: C_6  and  N_7
REMARK                            x       y       z     vdW  Elec       q    Type
REMARK                         _______ _______ _______ _____ _____    ______ ____
ROOT
ATOM      1  C   UNL     1       1.182   2.791  18.589  0.00  0.00    +0.000 C 
ATOM      2  C   UNL     1       1.902   3.775  19.516  0.00  0.00    +0.000 C 
ATOM      3  C   UNL     1       2.239   5.103  18.788  0.00  0.00    +0.000 C 
ATOM      4  C   UNL     1       3.664   5.138  18.352  0.00  0.00    +0.000 A 
ATOM      5  S   UNL     1       4.294   6.403  17.406  0.00  0.00    +0.000 S 
ATOM      6  C   UNL     1       5.847   5.715  17.436  0.00  0.00    +0.000 A 
ATOM      7  C   UNL     1       5.893   4.537  18.157  0.00  0.00    +0.000 A 
ATOM      8  C   UNL     1       4.606   4.188  18.692  0.00  0.00    +0.000 A 
ATOM      9  C   UNL     1       4.267   2.965  19.485  0.00  0.00    +0.000 C 
ATOM     10  N   UNL     1       3.019   3.134  20.243  0.00  0.00    +0.000 NA
ATOM     11  H   UNL     1       3.227   3.687  21.072  0.00  0.00    +0.000 HD
ENDROOT
BRANCH   6  12
ATOM     12  N   UNL     1       6.947   6.353  16.752  0.00  0.00    +0.000 N 
ATOM     13  O   UNL     1       7.243   7.491  17.138  0.00  0.00    +0.000 OA
ATOM     14  O   UNL     1       7.518   5.734  15.842  0.00  0.00    +0.000 OA
ENDBRANCH   6  12
TORSDOF 1
ENDMDL
MODEL 8
REMARK VINA RESULT:      -5.8      3.535      5.267
REMARK  Name = 
REMARK  2 active torsions:
REMARK  status: ('A' for Active; 'I' for Inactive)
REMARK    1  A    between atoms: C_1  and  C_2
REMARK    2  A    between atoms: C_6  and  N_7
REMARK                            x       y       z     vdW  Elec       q    Type
REMARK                         _______ _______ _______ _____ _____    ______ ____
ROOT
ATOM      1  C   UNL     1       6.860   6.365  17.330  0.00  0.00    +0.000 C 
ATOM      2  C   UNL     1       5.552   6.419  16.535  0.00  0.00    +0.000 C 
ATOM      3  C   UNL     1       4.329   6.644  17.463  0.00  0.00    +0.000 C 
ATOM      4  C   UNL     1       3.610   5.365  17.733  0.00  0.00    +0.000 A 
ATOM      5  S   UNL     1       2.312   5.268  18.828  0.00  0.00    +0.000 S 
ATOM      6  C   UNL     1       2.090   3.618  18.490  0.00  0.00    +0.000 A 
ATOM      7  C   UNL     1       2.989   3.142  17.554  0.00  0.00    +0.000 A 
ATOM      8  C   UNL     1       3.893   4.167  17.111  0.00  0.00    +0.000 A 
ATOM      9  C   UNL     1       5.021   4.008  16.141  0.00  0.00    +0.000 C 
ATOM     10  N   UNL     1       5.441   5.299  15.576  0.00  0.00    +0.000 NA
ATOM     11  H   UNL     1       4.774   5.557  14.852  0.00  0.00    +0.000 HD
ENDROOT
BRANCH   6  12
ATOM     12  N   UNL     1       1.054   2.864  19.155  0.00  0.00    +0.000 N 
ATOM     13  O   UNL     1       0.304   2.206  18.423  0.00  0.00    +0.000 OA
ATOM     14  O   UNL     1       0.983   2.918  20.392  0.00  0.00    +0.000 OA
ENDBRANCH   6  12
TORSDOF 1
ENDMDL
MODEL 9
REMARK VINA RESULT:      -5.8      1.542      1.896
REMARK  Name = 
REMARK  2 active torsions:
REMARK  status: ('A' for Active; 'I' for Inactive)
REMARK    1  A    between atoms: C_1  and  C_2
REMARK    2  A    between atoms: C_6  and  N_7
REMARK                            x       y       z     vdW  Elec       q    Type
REMARK                         _______ _______ _______ _____ _____    ______ ____
ROOT
ATOM      1  C   UNL     1       0.973   3.016  19.964  0.00  0.00    +0.000 C 
ATOM      2  C   UNL     1       2.203   3.703  20.564  0.00  0.00    +0.000 C 
ATOM      3  C   UNL     1       2.451   5.092  19.920  0.00  0.00    +0.000 C 
ATOM      4  C   UNL     1       3.524   5.029  18.886  0.00  0.00    +0.000 A 
ATOM      5  S   UNL     1       3.924   6.363  17.909  0.00  0.00    +0.000 S 
ATOM      6  C   UNL     1       5.164   5.490  17.145  0.00  0.00    +0.000 A 
ATOM      7  C   UNL     1       5.280   4.199  17.624  0.00  0.00    +0.000 A 
ATOM      8  C   UNL     1       4.308   3.919  18.646  0.00  0.00    +0.000 A 
ATOM      9  C   UNL     1       4.108   2.620  19.359  0.00  0.00    +0.000 C 
ATOM     10  N   UNL     1       3.371   2.797  20.619  0.00  0.00    +0.000 NA
ATOM     11  H   UNL     1       4.022   3.149  21.317  0.00  0.00    +0.000 HD
ENDROOT
BRANCH   6  12
ATOM     12  N   UNL     1       5.965   6.102  16.111  0.00  0.00    +0.000 N 
ATOM     13  O   UNL     1       5.346   6.735  15.246  0.00  0.00    +0.000 OA
ATOM     14  O   UNL     1       7.196   5.963  16.154  0.00  0.00    +0.000 OA
ENDBRANCH   6  12
TORSDOF 1
ENDMDL
