MODEL 1
REMARK VINA RESULT:      -5.7      0.000      0.000
REMARK  Name = 
REMARK  21 active torsions:
REMARK  status: ('A' for Active; 'I' for Inactive)
REMARK    1  A    between atoms: C_1  and  C_2
REMARK    2  A    between atoms: C_2  and  C_3
REMARK    3  A    between atoms: C_3  and  C_4
REMARK    4  A    between atoms: C_4  and  C_5
REMARK    5  A    between atoms: C_5  and  C_6
REMARK    6  A    between atoms: C_6  and  C_7
REMARK    7  A    between atoms: C_7  and  C_8
REMARK    8  A    between atoms: C_8  and  C_9
REMARK    9  A    between atoms: C_9  and  C_10
REMARK   10  A    between atoms: C_10  and  C_11
REMARK   11  A    between atoms: C_11  and  C_12
REMARK   12  A    between atoms: C_12  and  C_13
REMARK   13  A    between atoms: C_13  and  C_14
REMARK   14  A    between atoms: C_14  and  C_15
REMARK   15  A    between atoms: C_15  and  C_16
REMARK   16  A    between atoms: C_16  and  O_17
REMARK   17  A    between atoms: O_17  and  P_18
REMARK   18  A    between atoms: P_18  and  O_21
REMARK   19  A    between atoms: O_21  and  C_22
REMARK   20  A    between atoms: C_22  and  C_23
REMARK   21  A    between atoms: C_23  and  N_24
REMARK                            x       y       z     vdW  Elec       q    Type
REMARK                         _______ _______ _______ _____ _____    ______ ____
ROOT
ATOM      1  C   UNL     1       4.076   7.094  17.049  0.00  0.00    +0.000 C 
ENDROOT
BRANCH   1   2
ATOM      2  C   UNL     1       5.500   7.089  17.645  0.00  0.00    +0.000 C 
BRANCH   2   3
ATOM      3  O   UNL     1       6.440   6.333  16.900  0.00  0.00    +0.000 OA
BRANCH   3   4
ATOM      4  P   UNL     1       6.717   4.772  17.320  0.00  0.00    +0.000 P 
ATOM      5  O   UNL     1       7.966   4.244  16.678  0.00  0.00    +0.000 OA
ATOM      6  O   UNL     1       6.504   4.645  18.820  0.00  0.00    +0.000 OA
BRANCH   4   7
ATOM      7  O   UNL     1       5.497   3.962  16.554  0.00  0.00    +0.000 OA
BRANCH   7   8
ATOM      8  C   UNL     1       4.648   3.126  17.362  0.00  0.00    +0.000 C 
BRANCH   8   9
ATOM      9  C   UNL     1       3.133   3.383  17.389  0.00  0.00    +0.000 C 
BRANCH   9  10
ATOM     10  N   UNL     1       2.599   3.296  18.774  0.00  0.00    +0.000 N 
ATOM     11  C   UNL     1       3.384   2.870  19.793  0.00  0.00    +0.000 A 
ATOM     12  C   UNL     1       2.877   2.724  21.078  0.00  0.00    +0.000 A 
ATOM     13  C   UNL     1       1.551   3.061  21.319  0.00  0.00    +0.000 A 
ATOM     14  C   UNL     1       0.776   3.555  20.287  0.00  0.00    +0.000 A 
ATOM     15  C   UNL     1       1.314   3.663  19.010  0.00  0.00    +0.000 A 
ENDBRANCH   9  10
ENDBRANCH   8   9
ENDBRANCH   7   8
ENDBRANCH   4   7
ENDBRANCH   3   4
ENDBRANCH   2   3
ENDBRANCH   1   2
BRANCH   1  16
ATOM     16  C   UNL     1       3.057   6.705  18.144  0.00  0.00    +0.000 C 
BRANCH  16  17
ATOM     17  C   UNL     1       2.369   7.870  18.867  0.00  0.00    +0.000 C 
BRANCH  17  18
ATOM     18  C   UNL     1       1.511   8.678  17.877  0.00  0.00    +0.000 C 
BRANCH  18  19
ATOM     19  C   UNL     1       1.724  10.181  18.031  0.00  0.00    +0.000 C 
BRANCH  19  20
ATOM     20  C   UNL     1       0.768  10.782  19.063  0.00  0.00    +0.000 C 
BRANCH  20  21
ATOM     21  C   UNL     1      -0.680  10.475  18.695  0.00  0.00    +0.000 C 
BRANCH  21  22
ATOM     22  C   UNL     1      -1.591  11.649  19.023  0.00  0.00    +0.000 C 
BRANCH  22  23
ATOM     23  C   UNL     1      -0.841  12.701  19.835  0.00  0.00    +0.000 C 
BRANCH  23  24
ATOM     24  C   UNL     1      -1.780  13.407  20.806  0.00  0.00    +0.000 C 
BRANCH  24  25
ATOM     25  C   UNL     1      -2.179  12.477  21.946  0.00  0.00    +0.000 C 
BRANCH  25  26
ATOM     26  C   UNL     1      -0.947  11.982  22.696  0.00  0.00    +0.000 C 
BRANCH  26  27
ATOM     27  C   UNL     1      -0.985  10.466  22.857  0.00  0.00    +0.000 C 
BRANCH  27  29
ATOM     28  C   UNL     1       0.117   8.481  21.788  0.00  0.00    +0.000 C 
ATOM     29  C   UNL     1       0.341   9.832  22.445  0.00  0.00    +0.000 C 
ENDBRANCH  27  29
ENDBRANCH  26  27
ENDBRANCH  25  26
ENDBRANCH  24  25
ENDBRANCH  23  24
ENDBRANCH  22  23
ENDBRANCH  21  22
ENDBRANCH  20  21
ENDBRANCH  19  20
ENDBRANCH  18  19
ENDBRANCH  17  18
ENDBRANCH  16  17
ENDBRANCH   1  16
TORSDOF 20
ENDMDL
MODEL 2
REMARK VINA RESULT:      -5.7      1.302      2.999
REMARK  Name = 
REMARK  21 active torsions:
REMARK  status: ('A' for Active; 'I' for Inactive)
REMARK    1  A    between atoms: C_1  and  C_2
REMARK    2  A    between atoms: C_2  and  C_3
REMARK    3  A    between atoms: C_3  and  C_4
REMARK    4  A    between atoms: C_4  and  C_5
REMARK    5  A    between atoms: C_5  and  C_6
REMARK    6  A    between atoms: C_6  and  C_7
REMARK    7  A    between atoms: C_7  and  C_8
REMARK    8  A    between atoms: C_8  and  C_9
REMARK    9  A    between atoms: C_9  and  C_10
REMARK   10  A    between atoms: C_10  and  C_11
REMARK   11  A    between atoms: C_11  and  C_12
REMARK   12  A    between atoms: C_12  and  C_13
REMARK   13  A    between atoms: C_13  and  C_14
REMARK   14  A    between atoms: C_14  and  C_15
REMARK   15  A    between atoms: C_15  and  C_16
REMARK   16  A    between atoms: C_16  and  O_17
REMARK   17  A    between atoms: O_17  and  P_18
REMARK   18  A    between atoms: P_18  and  O_21
REMARK   19  A    between atoms: O_21  and  C_22
REMARK   20  A    between atoms: C_22  and  C_23
REMARK   21  A    between atoms: C_23  and  N_24
REMARK                            x       y       z     vdW  Elec       q    Type
REMARK                         _______ _______ _______ _____ _____    ______ ____
ROOT
ATOM      1  C   UNL     1       4.189   7.510  16.732  0.00  0.00    +0.000 C 
ENDROOT
BRANCH   1   2
ATOM      2  C   UNL     1       5.457   7.045  17.479  0.00  0.00    +0.000 C 
BRANCH   2   3
ATOM      3  O   UNL     1       6.356   6.289  16.686  0.00  0.00    +0.000 OA
BRANCH   3   4
ATOM      4  P   UNL     1       6.540   4.689  16.998  0.00  0.00    +0.000 P 
ATOM      5  O   UNL     1       6.423   3.870  15.747  0.00  0.00    +0.000 OA
ATOM      6  O   UNL     1       7.737   4.526  17.921  0.00  0.00    +0.000 OA
BRANCH   4   7
ATOM      7  O   UNL     1       5.174   4.321  17.851  0.00  0.00    +0.000 OA
BRANCH   7   8
ATOM      8  C   UNL     1       4.190   3.495  17.201  0.00  0.00    +0.000 C 
BRANCH   8   9
ATOM      9  C   UNL     1       3.710   2.205  17.883  0.00  0.00    +0.000 C 
BRANCH   9  10
ATOM     10  N   UNL     1       2.832   2.505  19.044  0.00  0.00    +0.000 N 
ATOM     11  C   UNL     1       1.504   2.708  18.873  0.00  0.00    +0.000 A 
ATOM     12  C   UNL     1       0.685   3.052  19.941  0.00  0.00    +0.000 A 
ATOM     13  C   UNL     1       1.243   3.150  21.210  0.00  0.00    +0.000 A 
ATOM     14  C   UNL     1       2.587   2.879  21.385  0.00  0.00    +0.000 A 
ATOM     15  C   UNL     1       3.377   2.561  20.286  0.00  0.00    +0.000 A 
ENDBRANCH   9  10
ENDBRANCH   8   9
ENDBRANCH   7   8
ENDBRANCH   4   7
ENDBRANCH   3   4
ENDBRANCH   2   3
ENDBRANCH   1   2
BRANCH   1  16
ATOM     16  C   UNL     1       3.041   7.721  17.746  0.00  0.00    +0.000 C 
BRANCH  16  17
ATOM     17  C   UNL     1       2.398   6.446  18.306  0.00  0.00    +0.000 C 
BRANCH  17  18
ATOM     18  C   UNL     1       2.641   6.349  19.823  0.00  0.00    +0.000 C 
BRANCH  18  19
ATOM     19  C   UNL     1       1.395   6.711  20.626  0.00  0.00    +0.000 C 
BRANCH  19  20
ATOM     20  C   UNL     1       1.490   8.124  21.204  0.00  0.00    +0.000 C 
BRANCH  20  21
ATOM     21  C   UNL     1       0.128   8.592  21.706  0.00  0.00    +0.000 C 
BRANCH  21  22
ATOM     22  C   UNL     1       0.210   9.992  22.296  0.00  0.00    +0.000 C 
BRANCH  22  23
ATOM     23  C   UNL     1      -0.470  11.003  21.377  0.00  0.00    +0.000 C 
BRANCH  23  24
ATOM     24  C   UNL     1       0.521  11.570  20.368  0.00  0.00    +0.000 C 
BRANCH  24  25
ATOM     25  C   UNL     1       0.119  11.195  18.946  0.00  0.00    +0.000 C 
BRANCH  25  26
ATOM     26  C   UNL     1      -1.394  11.044  18.833  0.00  0.00    +0.000 C 
BRANCH  26  27
ATOM     27  C   UNL     1      -1.902  11.647  17.527  0.00  0.00    +0.000 C 
BRANCH  27  29
ATOM     28  C   UNL     1      -3.381   9.623  17.447  0.00  0.00    +0.000 C 
ATOM     29  C   UNL     1      -2.529  10.582  16.633  0.00  0.00    +0.000 C 
ENDBRANCH  27  29
ENDBRANCH  26  27
ENDBRANCH  25  26
ENDBRANCH  24  25
ENDBRANCH  23  24
ENDBRANCH  22  23
ENDBRANCH  21  22
ENDBRANCH  20  21
ENDBRANCH  19  20
ENDBRANCH  18  19
ENDBRANCH  17  18
ENDBRANCH  16  17
ENDBRANCH   1  16
TORSDOF 20
ENDMDL
MODEL 3
REMARK VINA RESULT:      -5.7      6.039      7.833
REMARK  Name = 
REMARK  21 active torsions:
REMARK  status: ('A' for Active; 'I' for Inactive)
REMARK    1  A    between atoms: C_1  and  C_2
REMARK    2  A    between atoms: C_2  and  C_3
REMARK    3  A    between atoms: C_3  and  C_4
REMARK    4  A    between atoms: C_4  and  C_5
REMARK    5  A    between atoms: C_5  and  C_6
REMARK    6  A    between atoms: C_6  and  C_7
REMARK    7  A    between atoms: C_7  and  C_8
REMARK    8  A    between atoms: C_8  and  C_9
REMARK    9  A    between atoms: C_9  and  C_10
REMARK   10  A    between atoms: C_10  and  C_11
REMARK   11  A    between atoms: C_11  and  C_12
REMARK   12  A    between atoms: C_12  and  C_13
REMARK   13  A    between atoms: C_13  and  C_14
REMARK   14  A    between atoms: C_14  and  C_15
REMARK   15  A    between atoms: C_15  and  C_16
REMARK   16  A    between atoms: C_16  and  O_17
REMARK   17  A    between atoms: O_17  and  P_18
REMARK   18  A    between atoms: P_18  and  O_21
REMARK   19  A    between atoms: O_21  and  C_22
REMARK   20  A    between atoms: C_22  and  C_23
REMARK   21  A    between atoms: C_23  and  N_24
REMARK                            x       y       z     vdW  Elec       q    Type
REMARK                         _______ _______ _______ _____ _____    ______ ____
ROOT
ATOM      1  C   UNL     1       7.916   8.347  17.210  0.00  0.00    +0.000 C 
ENDROOT
BRANCH   1   2
ATOM      2  C   UNL     1       7.777   7.154  18.181  0.00  0.00    +0.000 C 
BRANCH   2   3
ATOM      3  O   UNL     1       6.564   6.433  18.048  0.00  0.00    +0.000 OA
BRANCH   3   4
ATOM      4  P   UNL     1       6.624   4.808  17.832  0.00  0.00    +0.000 P 
ATOM      5  O   UNL     1       7.878   4.396  17.120  0.00  0.00    +0.000 OA
ATOM      6  O   UNL     1       6.223   4.146  19.140  0.00  0.00    +0.000 OA
BRANCH   4   7
ATOM      7  O   UNL     1       5.426   4.540  16.727  0.00  0.00    +0.000 OA
BRANCH   7   8
ATOM      8  C   UNL     1       4.067   4.594  17.199  0.00  0.00    +0.000 C 
BRANCH   8   9
ATOM      9  C   UNL     1       3.282   3.289  17.409  0.00  0.00    +0.000 C 
BRANCH   9  10
ATOM     10  N   UNL     1       2.637   3.260  18.748  0.00  0.00    +0.000 N 
ATOM     11  C   UNL     1       1.446   3.872  18.955  0.00  0.00    +0.000 A 
ATOM     12  C   UNL     1       0.865   3.905  20.217  0.00  0.00    +0.000 A 
ATOM     13  C   UNL     1       1.507   3.265  21.269  0.00  0.00    +0.000 A 
ATOM     14  C   UNL     1       2.690   2.589  21.034  0.00  0.00    +0.000 A 
ATOM     15  C   UNL     1       3.251   2.600  19.762  0.00  0.00    +0.000 A 
ENDBRANCH   9  10
ENDBRANCH   8   9
ENDBRANCH   7   8
ENDBRANCH   4   7
ENDBRANCH   3   4
ENDBRANCH   2   3
ENDBRANCH   1   2
BRANCH   1  16
ATOM     16  C   UNL     1       8.046   9.658  18.018  0.00  0.00    +0.000 C 
BRANCH  16  17
ATOM     17  C   UNL     1       9.188   9.705  19.042  0.00  0.00    +0.000 C 
BRANCH  17  18
ATOM     18  C   UNL     1       9.540  11.164  19.380  0.00  0.00    +0.000 C 
BRANCH  18  19
ATOM     19  C   UNL     1      10.117  11.907  18.179  0.00  0.00    +0.000 C 
BRANCH  19  20
ATOM     20  C   UNL     1      11.646  11.859  18.170  0.00  0.00    +0.000 C 
BRANCH  20  21
ATOM     21  C   UNL     1      12.214  13.003  17.336  0.00  0.00    +0.000 C 
BRANCH  21  22
ATOM     22  C   UNL     1      11.101  13.827  16.704  0.00  0.00    +0.000 C 
BRANCH  22  23
ATOM     23  C   UNL     1      11.249  15.301  17.069  0.00  0.00    +0.000 C 
BRANCH  23  24
ATOM     24  C   UNL     1       9.911  15.889  17.500  0.00  0.00    +0.000 C 
BRANCH  24  25
ATOM     25  C   UNL     1       9.915  16.206  18.991  0.00  0.00    +0.000 C 
BRANCH  25  26
ATOM     26  C   UNL     1       9.381  15.026  19.797  0.00  0.00    +0.000 C 
BRANCH  26  27
ATOM     27  C   UNL     1      10.410  14.562  20.822  0.00  0.00    +0.000 C 
BRANCH  27  29
ATOM     28  C   UNL     1       9.533  15.368  23.030  0.00  0.00    +0.000 C 
ATOM     29  C   UNL     1      10.572  15.584  21.944  0.00  0.00    +0.000 C 
ENDBRANCH  27  29
ENDBRANCH  26  27
ENDBRANCH  25  26
ENDBRANCH  24  25
ENDBRANCH  23  24
ENDBRANCH  22  23
ENDBRANCH  21  22
ENDBRANCH  20  21
ENDBRANCH  19  20
ENDBRANCH  18  19
ENDBRANCH  17  18
ENDBRANCH  16  17
ENDBRANCH   1  16
TORSDOF 20
ENDMDL
MODEL 4
REMARK VINA RESULT:      -5.7      3.921      8.946
REMARK  Name = 
REMARK  21 active torsions:
REMARK  status: ('A' for Active; 'I' for Inactive)
REMARK    1  A    between atoms: C_1  and  C_2
REMARK    2  A    between atoms: C_2  and  C_3
REMARK    3  A    between atoms: C_3  and  C_4
REMARK    4  A    between atoms: C_4  and  C_5
REMARK    5  A    between atoms: C_5  and  C_6
REMARK    6  A    between atoms: C_6  and  C_7
REMARK    7  A    between atoms: C_7  and  C_8
REMARK    8  A    between atoms: C_8  and  C_9
REMARK    9  A    between atoms: C_9  and  C_10
REMARK   10  A    between atoms: C_10  and  C_11
REMARK   11  A    between atoms: C_11  and  C_12
REMARK   12  A    between atoms: C_12  and  C_13
REMARK   13  A    between atoms: C_13  and  C_14
REMARK   14  A    between atoms: C_14  and  C_15
REMARK   15  A    between atoms: C_15  and  C_16
REMARK   16  A    between atoms: C_16  and  O_17
REMARK   17  A    between atoms: O_17  and  P_18
REMARK   18  A    between atoms: P_18  and  O_21
REMARK   19  A    between atoms: O_21  and  C_22
REMARK   20  A    between atoms: C_22  and  C_23
REMARK   21  A    between atoms: C_23  and  N_24
REMARK                            x       y       z     vdW  Elec       q    Type
REMARK                         _______ _______ _______ _____ _____    ______ ____
ROOT
ATOM      1  C   UNL     1       3.413   3.650  17.136  0.00  0.00    +0.000 C 
ENDROOT
BRANCH   1   2
ATOM      2  C   UNL     1       2.192   3.028  17.847  0.00  0.00    +0.000 C 
BRANCH   2   3
ATOM      3  O   UNL     1       1.805   3.699  19.034  0.00  0.00    +0.000 OA
BRANCH   3   4
ATOM      4  P   UNL     1       2.374   3.158  20.475  0.00  0.00    +0.000 P 
ATOM      5  O   UNL     1       1.450   2.144  21.083  0.00  0.00    +0.000 OA
ATOM      6  O   UNL     1       3.854   2.856  20.311  0.00  0.00    +0.000 OA
BRANCH   4   7
ATOM      7  O   UNL     1       2.220   4.481  21.452  0.00  0.00    +0.000 OA
BRANCH   7   8
ATOM      8  C   UNL     1       1.650   5.669  20.871  0.00  0.00    +0.000 C 
BRANCH   8   9
ATOM      9  C   UNL     1       2.570   6.715  20.223  0.00  0.00    +0.000 C 
BRANCH   9  10
ATOM     10  N   UNL     1       1.826   7.963  19.907  0.00  0.00    +0.000 N 
ATOM     11  C   UNL     1       1.137   8.621  20.870  0.00  0.00    +0.000 A 
ATOM     12  C   UNL     1       0.386   9.751  20.572  0.00  0.00    +0.000 A 
ATOM     13  C   UNL     1       0.380  10.228  19.267  0.00  0.00    +0.000 A 
ATOM     14  C   UNL     1       1.138   9.588  18.305  0.00  0.00    +0.000 A 
ATOM     15  C   UNL     1       1.856   8.445  18.638  0.00  0.00    +0.000 A 
ENDBRANCH   9  10
ENDBRANCH   8   9
ENDBRANCH   7   8
ENDBRANCH   4   7
ENDBRANCH   3   4
ENDBRANCH   2   3
ENDBRANCH   1   2
BRANCH   1  16
ATOM     16  C   UNL     1       3.574   5.122  17.578  0.00  0.00    +0.000 C 
BRANCH  16  17
ATOM     17  C   UNL     1       4.319   6.040  16.600  0.00  0.00    +0.000 C 
BRANCH  17  18
ATOM     18  C   UNL     1       5.133   7.093  17.372  0.00  0.00    +0.000 C 
BRANCH  18  19
ATOM     19  C   UNL     1       6.587   6.669  17.557  0.00  0.00    +0.000 C 
BRANCH  19  20
ATOM     20  C   UNL     1       6.700   5.183  17.903  0.00  0.00    +0.000 C 
BRANCH  20  21
ATOM     21  C   UNL     1       7.520   4.448  16.848  0.00  0.00    +0.000 C 
BRANCH  21  22
ATOM     22  C   UNL     1       6.620   3.810  15.799  0.00  0.00    +0.000 C 
BRANCH  22  23
ATOM     23  C   UNL     1       6.772   4.521  14.457  0.00  0.00    +0.000 C 
BRANCH  23  24
ATOM     24  C   UNL     1       5.667   4.101  13.495  0.00  0.00    +0.000 C 
BRANCH  24  25
ATOM     25  C   UNL     1       6.253   3.444  12.251  0.00  0.00    +0.000 C 
BRANCH  25  26
ATOM     26  C   UNL     1       5.196   2.617  11.526  0.00  0.00    +0.000 C 
BRANCH  26  27
ATOM     27  C   UNL     1       3.901   3.410  11.374  0.00  0.00    +0.000 C 
BRANCH  27  29
ATOM     28  C   UNL     1       2.695   4.455   9.439  0.00  0.00    +0.000 C 
ATOM     29  C   UNL     1       3.260   3.166  10.011  0.00  0.00    +0.000 C 
ENDBRANCH  27  29
ENDBRANCH  26  27
ENDBRANCH  25  26
ENDBRANCH  24  25
ENDBRANCH  23  24
ENDBRANCH  22  23
ENDBRANCH  21  22
ENDBRANCH  20  21
ENDBRANCH  19  20
ENDBRANCH  18  19
ENDBRANCH  17  18
ENDBRANCH  16  17
ENDBRANCH   1  16
TORSDOF 20
ENDMDL
MODEL 5
REMARK VINA RESULT:      -5.6      4.586      9.495
REMARK  Name = 
REMARK  21 active torsions:
REMARK  status: ('A' for Active; 'I' for Inactive)
REMARK    1  A    between atoms: C_1  and  C_2
REMARK    2  A    between atoms: C_2  and  C_3
REMARK    3  A    between atoms: C_3  and  C_4
REMARK    4  A    between atoms: C_4  and  C_5
REMARK    5  A    between atoms: C_5  and  C_6
REMARK    6  A    between atoms: C_6  and  C_7
REMARK    7  A    between atoms: C_7  and  C_8
REMARK    8  A    between atoms: C_8  and  C_9
REMARK    9  A    between atoms: C_9  and  C_10
REMARK   10  A    between atoms: C_10  and  C_11
REMARK   11  A    between atoms: C_11  and  C_12
REMARK   12  A    between atoms: C_12  and  C_13
REMARK   13  A    between atoms: C_13  and  C_14
REMARK   14  A    between atoms: C_14  and  C_15
REMARK   15  A    between atoms: C_15  and  C_16
REMARK   16  A    between atoms: C_16  and  O_17
REMARK   17  A    between atoms: O_17  and  P_18
REMARK   18  A    between atoms: P_18  and  O_21
REMARK   19  A    between atoms: O_21  and  C_22
REMARK   20  A    between atoms: C_22  and  C_23
REMARK   21  A    between atoms: C_23  and  N_24
REMARK                            x       y       z     vdW  Elec       q    Type
REMARK                         _______ _______ _______ _____ _____    ______ ____
ROOT
ATOM      1  C   UNL     1       1.911   7.781  19.886  0.00  0.00    +0.000 C 
ENDROOT
BRANCH   1   2
ATOM      2  C   UNL     1       1.129   8.025  21.195  0.00  0.00    +0.000 C 
BRANCH   2   3
ATOM      3  O   UNL     1       1.509   9.200  21.891  0.00  0.00    +0.000 OA
BRANCH   3   4
ATOM      4  P   UNL     1       0.556  10.531  21.786  0.00  0.00    +0.000 P 
ATOM      5  O   UNL     1      -0.230  10.743  23.046  0.00  0.00    +0.000 OA
ATOM      6  O   UNL     1       1.387  11.657  21.193  0.00  0.00    +0.000 OA
BRANCH   4   7
ATOM      7  O   UNL     1      -0.580  10.083  20.673  0.00  0.00    +0.000 OA
BRANCH   7   8
ATOM      8  C   UNL     1      -0.669  10.866  19.468  0.00  0.00    +0.000 C 
BRANCH   8   9
ATOM      9  C   UNL     1      -1.548  12.126  19.443  0.00  0.00    +0.000 C 
BRANCH   9  10
ATOM     10  N   UNL     1      -2.873  11.845  18.830  0.00  0.00    +0.000 N 
ATOM     11  C   UNL     1      -2.962  11.206  17.638  0.00  0.00    +0.000 A 
ATOM     12  C   UNL     1      -4.191  10.996  17.026  0.00  0.00    +0.000 A 
ATOM     13  C   UNL     1      -5.345  11.418  17.673  0.00  0.00    +0.000 A 
ATOM     14  C   UNL     1      -5.248  12.011  18.918  0.00  0.00    +0.000 A 
ATOM     15  C   UNL     1      -3.998  12.226  19.486  0.00  0.00    +0.000 A 
ENDBRANCH   9  10
ENDBRANCH   8   9
ENDBRANCH   7   8
ENDBRANCH   4   7
ENDBRANCH   3   4
ENDBRANCH   2   3
ENDBRANCH   1   2
BRANCH   1  16
ATOM     16  C   UNL     1       2.527   6.365  19.909  0.00  0.00    +0.000 C 
BRANCH  16  17
ATOM     17  C   UNL     1       1.885   5.368  20.882  0.00  0.00    +0.000 C 
BRANCH  17  18
ATOM     18  C   UNL     1       0.879   4.471  20.140  0.00  0.00    +0.000 C 
BRANCH  18  19
ATOM     19  C   UNL     1       1.132   2.989  20.402  0.00  0.00    +0.000 C 
BRANCH  19  20
ATOM     20  C   UNL     1       1.156   2.184  19.102  0.00  0.00    +0.000 C 
BRANCH  20  21
ATOM     21  C   UNL     1       2.553   2.193  18.491  0.00  0.00    +0.000 C 
BRANCH  21  22
ATOM     22  C   UNL     1       2.596   3.042  17.229  0.00  0.00    +0.000 C 
BRANCH  22  23
ATOM     23  C   UNL     1       3.756   4.032  17.286  0.00  0.00    +0.000 C 
BRANCH  23  24
ATOM     24  C   UNL     1       4.618   3.785  18.518  0.00  0.00    +0.000 C 
BRANCH  24  25
ATOM     25  C   UNL     1       5.819   4.723  18.535  0.00  0.00    +0.000 C 
BRANCH  25  26
ATOM     26  C   UNL     1       6.732   4.455  17.344  0.00  0.00    +0.000 C 
BRANCH  26  27
ATOM     27  C   UNL     1       6.856   5.697  16.467  0.00  0.00    +0.000 C 
BRANCH  27  29
ATOM     28  C   UNL     1       6.439   4.038  14.633  0.00  0.00    +0.000 C 
ATOM     29  C   UNL     1       6.231   5.470  15.094  0.00  0.00    +0.000 C 
ENDBRANCH  27  29
ENDBRANCH  26  27
ENDBRANCH  25  26
ENDBRANCH  24  25
ENDBRANCH  23  24
ENDBRANCH  22  23
ENDBRANCH  21  22
ENDBRANCH  20  21
ENDBRANCH  19  20
ENDBRANCH  18  19
ENDBRANCH  17  18
ENDBRANCH  16  17
ENDBRANCH   1  16
TORSDOF 20
ENDMDL
MODEL 6
REMARK VINA RESULT:      -5.5      5.562      7.280
REMARK  Name = 
REMARK  21 active torsions:
REMARK  status: ('A' for Active; 'I' for Inactive)
REMARK    1  A    between atoms: C_1  and  C_2
REMARK    2  A    between atoms: C_2  and  C_3
REMARK    3  A    between atoms: C_3  and  C_4
REMARK    4  A    between atoms: C_4  and  C_5
REMARK    5  A    between atoms: C_5  and  C_6
REMARK    6  A    between atoms: C_6  and  C_7
REMARK    7  A    between atoms: C_7  and  C_8
REMARK    8  A    between atoms: C_8  and  C_9
REMARK    9  A    between atoms: C_9  and  C_10
REMARK   10  A    between atoms: C_10  and  C_11
REMARK   11  A    between atoms: C_11  and  C_12
REMARK   12  A    between atoms: C_12  and  C_13
REMARK   13  A    between atoms: C_13  and  C_14
REMARK   14  A    between atoms: C_14  and  C_15
REMARK   15  A    between atoms: C_15  and  C_16
REMARK   16  A    between atoms: C_16  and  O_17
REMARK   17  A    between atoms: O_17  and  P_18
REMARK   18  A    between atoms: P_18  and  O_21
REMARK   19  A    between atoms: O_21  and  C_22
REMARK   20  A    between atoms: C_22  and  C_23
REMARK   21  A    between atoms: C_23  and  N_24
REMARK                            x       y       z     vdW  Elec       q    Type
REMARK                         _______ _______ _______ _____ _____    ______ ____
ROOT
ATOM      1  C   UNL     1       8.135   7.987  17.721  0.00  0.00    +0.000 C 
ENDROOT
BRANCH   1   2
ATOM      2  C   UNL     1       6.763   7.281  17.673  0.00  0.00    +0.000 C 
BRANCH   2   3
ATOM      3  O   UNL     1       6.424   6.751  16.403  0.00  0.00    +0.000 OA
BRANCH   3   4
ATOM      4  P   UNL     1       6.921   5.237  16.014  0.00  0.00    +0.000 P 
ATOM      5  O   UNL     1       7.503   5.189  14.632  0.00  0.00    +0.000 OA
ATOM      6  O   UNL     1       7.691   4.677  17.199  0.00  0.00    +0.000 OA
BRANCH   4   7
ATOM      7  O   UNL     1       5.499   4.406  15.881  0.00  0.00    +0.000 OA
BRANCH   7   8
ATOM      8  C   UNL     1       4.838   4.026  17.103  0.00  0.00    +0.000 C 
BRANCH   8   9
ATOM      9  C   UNL     1       3.394   3.505  17.055  0.00  0.00    +0.000 C 
BRANCH   9  10
ATOM     10  N   UNL     1       2.675   3.797  18.324  0.00  0.00    +0.000 N 
ATOM     11  C   UNL     1       3.101   4.783  19.149  0.00  0.00    +0.000 A 
ATOM     12  C   UNL     1       2.476   5.022  20.366  0.00  0.00    +0.000 A 
ATOM     13  C   UNL     1       1.372   4.254  20.717  0.00  0.00    +0.000 A 
ATOM     14  C   UNL     1       0.906   3.294  19.839  0.00  0.00    +0.000 A 
ATOM     15  C   UNL     1       1.575   3.069  18.641  0.00  0.00    +0.000 A 
ENDBRANCH   9  10
ENDBRANCH   8   9
ENDBRANCH   7   8
ENDBRANCH   4   7
ENDBRANCH   3   4
ENDBRANCH   2   3
ENDBRANCH   1   2
BRANCH   1  16
ATOM     16  C   UNL     1       7.928   9.502  17.947  0.00  0.00    +0.000 C 
BRANCH  16  17
ATOM     17  C   UNL     1       8.997  10.207  18.792  0.00  0.00    +0.000 C 
BRANCH  17  18
ATOM     18  C   UNL     1      10.027  10.897  17.881  0.00  0.00    +0.000 C 
BRANCH  18  19
ATOM     19  C   UNL     1      10.512  12.221  18.465  0.00  0.00    +0.000 C 
BRANCH  19  20
ATOM     20  C   UNL     1      10.895  12.078  19.939  0.00  0.00    +0.000 C 
BRANCH  20  21
ATOM     21  C   UNL     1      10.798  13.424  20.650  0.00  0.00    +0.000 C 
BRANCH  21  22
ATOM     22  C   UNL     1       9.769  13.380  21.771  0.00  0.00    +0.000 C 
BRANCH  22  23
ATOM     23  C   UNL     1       8.366  13.180  21.205  0.00  0.00    +0.000 C 
BRANCH  23  24
ATOM     24  C   UNL     1       7.756  14.512  20.785  0.00  0.00    +0.000 C 
BRANCH  24  25
ATOM     25  C   UNL     1       7.633  14.597  19.268  0.00  0.00    +0.000 C 
BRANCH  25  26
ATOM     26  C   UNL     1       7.221  16.000  18.836  0.00  0.00    +0.000 C 
BRANCH  26  27
ATOM     27  C   UNL     1       8.362  16.696  18.102  0.00  0.00    +0.000 C 
BRANCH  27  29
ATOM     28  C   UNL     1      10.831  16.315  18.328  0.00  0.00    +0.000 C 
ATOM     29  C   UNL     1       9.516  15.735  17.836  0.00  0.00    +0.000 C 
ENDBRANCH  27  29
ENDBRANCH  26  27
ENDBRANCH  25  26
ENDBRANCH  24  25
ENDBRANCH  23  24
ENDBRANCH  22  23
ENDBRANCH  21  22
ENDBRANCH  20  21
ENDBRANCH  19  20
ENDBRANCH  18  19
ENDBRANCH  17  18
ENDBRANCH  16  17
ENDBRANCH   1  16
TORSDOF 20
ENDMDL
MODEL 7
REMARK VINA RESULT:      -5.4      1.543      3.313
REMARK  Name = 
REMARK  21 active torsions:
REMARK  status: ('A' for Active; 'I' for Inactive)
REMARK    1  A    between atoms: C_1  and  C_2
REMARK    2  A    between atoms: C_2  and  C_3
REMARK    3  A    between atoms: C_3  and  C_4
REMARK    4  A    between atoms: C_4  and  C_5
REMARK    5  A    between atoms: C_5  and  C_6
REMARK    6  A    between atoms: C_6  and  C_7
REMARK    7  A    between atoms: C_7  and  C_8
REMARK    8  A    between atoms: C_8  and  C_9
REMARK    9  A    between atoms: C_9  and  C_10
REMARK   10  A    between atoms: C_10  and  C_11
REMARK   11  A    between atoms: C_11  and  C_12
REMARK   12  A    between atoms: C_12  and  C_13
REMARK   13  A    between atoms: C_13  and  C_14
REMARK   14  A    between atoms: C_14  and  C_15
REMARK   15  A    between atoms: C_15  and  C_16
REMARK   16  A    between atoms: C_16  and  O_17
REMARK   17  A    between atoms: O_17  and  P_18
REMARK   18  A    between atoms: P_18  and  O_21
REMARK   19  A    between atoms: O_21  and  C_22
REMARK   20  A    between atoms: C_22  and  C_23
REMARK   21  A    between atoms: C_23  and  N_24
REMARK                            x       y       z     vdW  Elec       q    Type
REMARK                         _______ _______ _______ _____ _____    ______ ____
ROOT
ATOM      1  C   UNL     1       2.739   6.878  17.901  0.00  0.00    +0.000 C 
ENDROOT
BRANCH   1   2
ATOM      2  C   UNL     1       4.064   7.156  17.159  0.00  0.00    +0.000 C 
BRANCH   2   3
ATOM      3  O   UNL     1       5.213   6.626  17.798  0.00  0.00    +0.000 OA
BRANCH   3   4
ATOM      4  P   UNL     1       6.067   5.445  17.047  0.00  0.00    +0.000 P 
ATOM      5  O   UNL     1       5.191   4.617  16.154  0.00  0.00    +0.000 OA
ATOM      6  O   UNL     1       7.352   6.060  16.517  0.00  0.00    +0.000 OA
BRANCH   4   7
ATOM      7  O   UNL     1       6.455   4.425  18.288  0.00  0.00    +0.000 OA
BRANCH   7   8
ATOM      8  C   UNL     1       5.435   4.157  19.267  0.00  0.00    +0.000 C 
BRANCH   8   9
ATOM      9  C   UNL     1       4.700   2.807  19.249  0.00  0.00    +0.000 C 
BRANCH   9  10
ATOM     10  N   UNL     1       3.250   2.981  19.526  0.00  0.00    +0.000 N 
ATOM     11  C   UNL     1       2.784   2.989  20.798  0.00  0.00    +0.000 A 
ATOM     12  C   UNL     1       1.425   3.087  21.065  0.00  0.00    +0.000 A 
ATOM     13  C   UNL     1       0.539   3.216  20.003  0.00  0.00    +0.000 A 
ATOM     14  C   UNL     1       1.029   3.272  18.712  0.00  0.00    +0.000 A 
ATOM     15  C   UNL     1       2.395   3.146  18.485  0.00  0.00    +0.000 A 
ENDBRANCH   9  10
ENDBRANCH   8   9
ENDBRANCH   7   8
ENDBRANCH   4   7
ENDBRANCH   3   4
ENDBRANCH   2   3
ENDBRANCH   1   2
BRANCH   1  16
ATOM     16  C   UNL     1       3.022   6.690  19.408  0.00  0.00    +0.000 C 
BRANCH  16  17
ATOM     17  C   UNL     1       1.794   6.708  20.329  0.00  0.00    +0.000 C 
BRANCH  17  18
ATOM     18  C   UNL     1       1.412   8.157  20.679  0.00  0.00    +0.000 C 
BRANCH  18  19
ATOM     19  C   UNL     1       0.249   8.219  21.665  0.00  0.00    +0.000 C 
BRANCH  19  20
ATOM     20  C   UNL     1       0.426   9.356  22.673  0.00  0.00    +0.000 C 
BRANCH  20  21
ATOM     21  C   UNL     1       0.307  10.710  21.980  0.00  0.00    +0.000 C 
BRANCH  21  22
ATOM     22  C   UNL     1      -1.082  11.303  22.170  0.00  0.00    +0.000 C 
BRANCH  22  23
ATOM     23  C   UNL     1      -1.482  12.134  20.954  0.00  0.00    +0.000 C 
BRANCH  23  24
ATOM     24  C   UNL     1      -0.975  11.492  19.669  0.00  0.00    +0.000 C 
BRANCH  24  25
ATOM     25  C   UNL     1      -1.831  11.911  18.480  0.00  0.00    +0.000 C 
BRANCH  25  26
ATOM     26  C   UNL     1      -2.725  10.761  18.024  0.00  0.00    +0.000 C 
BRANCH  26  27
ATOM     27  C   UNL     1      -2.000   9.884  17.009  0.00  0.00    +0.000 C 
BRANCH  27  29
ATOM     28  C   UNL     1      -3.968  10.703  15.686  0.00  0.00    +0.000 C 
ATOM     29  C   UNL     1      -2.606  10.033  15.617  0.00  0.00    +0.000 C 
ENDBRANCH  27  29
ENDBRANCH  26  27
ENDBRANCH  25  26
ENDBRANCH  24  25
ENDBRANCH  23  24
ENDBRANCH  22  23
ENDBRANCH  21  22
ENDBRANCH  20  21
ENDBRANCH  19  20
ENDBRANCH  18  19
ENDBRANCH  17  18
ENDBRANCH  16  17
ENDBRANCH   1  16
TORSDOF 20
ENDMDL
MODEL 8
REMARK VINA RESULT:      -5.4      1.826      2.729
REMARK  Name = 
REMARK  21 active torsions:
REMARK  status: ('A' for Active; 'I' for Inactive)
REMARK    1  A    between atoms: C_1  and  C_2
REMARK    2  A    between atoms: C_2  and  C_3
REMARK    3  A    between atoms: C_3  and  C_4
REMARK    4  A    between atoms: C_4  and  C_5
REMARK    5  A    between atoms: C_5  and  C_6
REMARK    6  A    between atoms: C_6  and  C_7
REMARK    7  A    between atoms: C_7  and  C_8
REMARK    8  A    between atoms: C_8  and  C_9
REMARK    9  A    between atoms: C_9  and  C_10
REMARK   10  A    between atoms: C_10  and  C_11
REMARK   11  A    between atoms: C_11  and  C_12
REMARK   12  A    between atoms: C_12  and  C_13
REMARK   13  A    between atoms: C_13  and  C_14
REMARK   14  A    between atoms: C_14  and  C_15
REMARK   15  A    between atoms: C_15  and  C_16
REMARK   16  A    between atoms: C_16  and  O_17
REMARK   17  A    between atoms: O_17  and  P_18
REMARK   18  A    between atoms: P_18  and  O_21
REMARK   19  A    between atoms: O_21  and  C_22
REMARK   20  A    between atoms: C_22  and  C_23
REMARK   21  A    between atoms: C_23  and  N_24
REMARK                            x       y       z     vdW  Elec       q    Type
REMARK                         _______ _______ _______ _____ _____    ______ ____
ROOT
ATOM      1  C   UNL     1       2.615   8.119  18.210  0.00  0.00    +0.000 C 
ENDROOT
BRANCH   1   2
ATOM      2  C   UNL     1       2.779   6.687  18.761  0.00  0.00    +0.000 C 
BRANCH   2   3
ATOM      3  O   UNL     1       3.461   5.801  17.890  0.00  0.00    +0.000 OA
BRANCH   3   4
ATOM      4  P   UNL     1       5.059   5.521  18.131  0.00  0.00    +0.000 P 
ATOM      5  O   UNL     1       5.908   6.446  17.310  0.00  0.00    +0.000 OA
ATOM      6  O   UNL     1       5.290   5.380  19.626  0.00  0.00    +0.000 OA
BRANCH   4   7
ATOM      7  O   UNL     1       5.282   4.041  17.431  0.00  0.00    +0.000 OA
BRANCH   7   8
ATOM      8  C   UNL     1       4.105   3.292  17.076  0.00  0.00    +0.000 C 
BRANCH   8   9
ATOM      9  C   UNL     1       3.687   2.084  17.929  0.00  0.00    +0.000 C 
BRANCH   9  10
ATOM     10  N   UNL     1       2.864   2.507  19.092  0.00  0.00    +0.000 N 
ATOM     11  C   UNL     1       3.376   2.488  20.346  0.00  0.00    +0.000 A 
ATOM     12  C   UNL     1       2.596   2.820  21.446  0.00  0.00    +0.000 A 
ATOM     13  C   UNL     1       1.280   3.214  21.242  0.00  0.00    +0.000 A 
ATOM     14  C   UNL     1       0.785   3.292  19.954  0.00  0.00    +0.000 A 
ATOM     15  C   UNL     1       1.591   2.928  18.881  0.00  0.00    +0.000 A 
ENDBRANCH   9  10
ENDBRANCH   8   9
ENDBRANCH   7   8
ENDBRANCH   4   7
ENDBRANCH   3   4
ENDBRANCH   2   3
ENDBRANCH   1   2
BRANCH   1  16
ATOM     16  C   UNL     1       1.501   8.850  18.994  0.00  0.00    +0.000 C 
BRANCH  16  17
ATOM     17  C   UNL     1       0.734   9.930  18.221  0.00  0.00    +0.000 C 
BRANCH  17  18
ATOM     18  C   UNL     1      -0.108  10.781  19.189  0.00  0.00    +0.000 C 
BRANCH  18  19
ATOM     19  C   UNL     1      -1.515  11.032  18.654  0.00  0.00    +0.000 C 
BRANCH  19  20
ATOM     20  C   UNL     1      -1.867  10.064  17.524  0.00  0.00    +0.000 C 
BRANCH  20  21
ATOM     21  C   UNL     1      -3.369   9.795  17.496  0.00  0.00    +0.000 C 
BRANCH  21  22
ATOM     22  C   UNL     1      -4.158  11.094  17.416  0.00  0.00    +0.000 C 
BRANCH  22  23
ATOM     23  C   UNL     1      -5.270  11.113  18.461  0.00  0.00    +0.000 C 
BRANCH  23  24
ATOM     24  C   UNL     1      -5.530  12.534  18.948  0.00  0.00    +0.000 C 
BRANCH  24  25
ATOM     25  C   UNL     1      -5.260  12.651  20.443  0.00  0.00    +0.000 C 
BRANCH  25  26
ATOM     26  C   UNL     1      -3.793  12.978  20.705  0.00  0.00    +0.000 C 
BRANCH  26  27
ATOM     27  C   UNL     1      -3.360  12.460  22.072  0.00  0.00    +0.000 C 
BRANCH  27  29
ATOM     28  C   UNL     1      -0.995  11.885  22.682  0.00  0.00    +0.000 C 
ATOM     29  C   UNL     1      -1.992  13.011  22.464  0.00  0.00    +0.000 C 
ENDBRANCH  27  29
ENDBRANCH  26  27
ENDBRANCH  25  26
ENDBRANCH  24  25
ENDBRANCH  23  24
ENDBRANCH  22  23
ENDBRANCH  21  22
ENDBRANCH  20  21
ENDBRANCH  19  20
ENDBRANCH  18  19
ENDBRANCH  17  18
ENDBRANCH  16  17
ENDBRANCH   1  16
TORSDOF 20
ENDMDL
MODEL 9
REMARK VINA RESULT:      -5.4      4.848      6.365
REMARK  Name = 
REMARK  21 active torsions:
REMARK  status: ('A' for Active; 'I' for Inactive)
REMARK    1  A    between atoms: C_1  and  C_2
REMARK    2  A    between atoms: C_2  and  C_3
REMARK    3  A    between atoms: C_3  and  C_4
REMARK    4  A    between atoms: C_4  and  C_5
REMARK    5  A    between atoms: C_5  and  C_6
REMARK    6  A    between atoms: C_6  and  C_7
REMARK    7  A    between atoms: C_7  and  C_8
REMARK    8  A    between atoms: C_8  and  C_9
REMARK    9  A    between atoms: C_9  and  C_10
REMARK   10  A    between atoms: C_10  and  C_11
REMARK   11  A    between atoms: C_11  and  C_12
REMARK   12  A    between atoms: C_12  and  C_13
REMARK   13  A    between atoms: C_13  and  C_14
REMARK   14  A    between atoms: C_14  and  C_15
REMARK   15  A    between atoms: C_15  and  C_16
REMARK   16  A    between atoms: C_16  and  O_17
REMARK   17  A    between atoms: O_17  and  P_18
REMARK   18  A    between atoms: P_18  and  O_21
REMARK   19  A    between atoms: O_21  and  C_22
REMARK   20  A    between atoms: C_22  and  C_23
REMARK   21  A    between atoms: C_23  and  N_24
REMARK                            x       y       z     vdW  Elec       q    Type
REMARK                         _______ _______ _______ _____ _____    ______ ____
ROOT
ATOM      1  C   UNL     1       6.772   7.191  18.027  0.00  0.00    +0.000 C 
ENDROOT
BRANCH   1   2
ATOM      2  C   UNL     1       6.022   6.946  16.700  0.00  0.00    +0.000 C 
BRANCH   2   3
ATOM      3  O   UNL     1       6.768   6.225  15.734  0.00  0.00    +0.000 OA
BRANCH   3   4
ATOM      4  P   UNL     1       6.726   4.585  15.758  0.00  0.00    +0.000 P 
ATOM      5  O   UNL     1       6.684   4.017  14.370  0.00  0.00    +0.000 OA
ATOM      6  O   UNL     1       7.763   4.105  16.760  0.00  0.00    +0.000 OA
BRANCH   4   7
ATOM      7  O   UNL     1       5.226   4.264  16.372  0.00  0.00    +0.000 OA
BRANCH   7   8
ATOM      8  C   UNL     1       5.161   3.632  17.664  0.00  0.00    +0.000 C 
BRANCH   8   9
ATOM      9  C   UNL     1       4.045   2.618  17.959  0.00  0.00    +0.000 C 
BRANCH   9  10
ATOM     10  N   UNL     1       2.995   3.212  18.828  0.00  0.00    +0.000 N 
ATOM     11  C   UNL     1       3.216   4.379  19.481  0.00  0.00    +0.000 A 
ATOM     12  C   UNL     1       2.268   4.910  20.345  0.00  0.00    +0.000 A 
ATOM     13  C   UNL     1       1.058   4.245  20.506  0.00  0.00    +0.000 A 
ATOM     14  C   UNL     1       0.817   3.090  19.786  0.00  0.00    +0.000 A 
ATOM     15  C   UNL     1       1.802   2.577  18.950  0.00  0.00    +0.000 A 
ENDBRANCH   9  10
ENDBRANCH   8   9
ENDBRANCH   7   8
ENDBRANCH   4   7
ENDBRANCH   3   4
ENDBRANCH   2   3
ENDBRANCH   1   2
BRANCH   1  16
ATOM     16  C   UNL     1       8.097   7.934  17.742  0.00  0.00    +0.000 C 
BRANCH  16  17
ATOM     17  C   UNL     1       8.079   9.451  17.970  0.00  0.00    +0.000 C 
BRANCH  17  18
ATOM     18  C   UNL     1       9.017   9.825  19.132  0.00  0.00    +0.000 C 
BRANCH  18  19
ATOM     19  C   UNL     1      10.008  10.917  18.738  0.00  0.00    +0.000 C 
BRANCH  19  20
ATOM     20  C   UNL     1       9.402  11.885  17.720  0.00  0.00    +0.000 C 
BRANCH  20  21
ATOM     21  C   UNL     1       9.444  13.315  18.249  0.00  0.00    +0.000 C 
BRANCH  21  22
ATOM     22  C   UNL     1       9.943  13.355  19.686  0.00  0.00    +0.000 C 
BRANCH  22  23
ATOM     23  C   UNL     1       9.191  14.413  20.487  0.00  0.00    +0.000 C 
BRANCH  23  24
ATOM     24  C   UNL     1       8.452  13.781  21.661  0.00  0.00    +0.000 C 
BRANCH  24  25
ATOM     25  C   UNL     1       9.246  12.613  22.234  0.00  0.00    +0.000 C 
BRANCH  25  26
ATOM     26  C   UNL     1       8.310  11.534  22.769  0.00  0.00    +0.000 C 
BRANCH  26  27
ATOM     27  C   UNL     1       7.939  11.813  24.222  0.00  0.00    +0.000 C 
BRANCH  27  29
ATOM     28  C   UNL     1       6.251  11.236  25.986  0.00  0.00    +0.000 C 
ATOM     29  C   UNL     1       6.483  11.451  24.500  0.00  0.00    +0.000 C 
ENDBRANCH  27  29
ENDBRANCH  26  27
ENDBRANCH  25  26
ENDBRANCH  24  25
ENDBRANCH  23  24
ENDBRANCH  22  23
ENDBRANCH  21  22
ENDBRANCH  20  21
ENDBRANCH  19  20
ENDBRANCH  18  19
ENDBRANCH  17  18
ENDBRANCH  16  17
ENDBRANCH   1  16
TORSDOF 20
ENDMDL
