MODEL 1
REMARK VINA RESULT:      -7.7      0.000      0.000
REMARK  Name = 
REMARK  9 active torsions:
REMARK  status: ('A' for Active; 'I' for Inactive)
REMARK    1  A    between atoms: C_1  and  O_2
REMARK    2  A    between atoms: O_2  and  C_3
REMARK    3  A    between atoms: C_3  and  C_5
REMARK    4  A    between atoms: N_9  and  C_10
REMARK    5  A    between atoms: C_20  and  O_21
REMARK    6  A    between atoms: O_21  and  C_22
REMARK    7  A    between atoms: C_23  and  O_24
REMARK    8  A    between atoms: O_24  and  C_25
REMARK    9  A    between atoms: C_32  and  N_33
REMARK                            x       y       z     vdW  Elec       q    Type
REMARK                         _______ _______ _______ _____ _____    ______ ____
ROOT
ATOM      1  C   UNL     1      -0.902  11.386  22.894  0.00  0.00    +0.000 C 
ATOM      2  C   UNL     1      -0.223  11.777  21.580  0.00  0.00    +0.000 C 
ATOM      3  C   UNL     1      -0.078  10.633  20.574  0.00  0.00    +0.000 C 
ATOM      4  N   UNL     1       0.470   9.460  21.244  0.00  0.00    +0.000 N 
ATOM      5  C   UNL     1       1.095   8.507  20.444  0.00  0.00    +0.000 A 
ATOM      6  N   UNL     1       1.584   8.873  19.251  0.00  0.00    +0.000 NA
ATOM      7  C   UNL     1       2.309   7.979  18.565  0.00  0.00    +0.000 A 
ATOM      8  N   UNL     1       2.796   8.429  17.327  0.00  0.00    +0.000 N 
ATOM      9  C   UNL     1       2.562   6.683  19.017  0.00  0.00    +0.000 A 
ATOM     10  C   UNL     1       3.333   5.704  18.335  0.00  0.00    +0.000 A 
ATOM     11  C   UNL     1       3.534   4.426  18.871  0.00  0.00    +0.000 A 
ATOM     12  C   UNL     1       2.934   4.124  20.101  0.00  0.00    +0.000 A 
ATOM     13  C   UNL     1       2.180   5.109  20.762  0.00  0.00    +0.000 A 
ATOM     14  C   UNL     1       1.988   6.383  20.244  0.00  0.00    +0.000 A 
ATOM     15  N   UNL     1       1.274   7.274  20.941  0.00  0.00    +0.000 NA
ATOM     16  C   UNL     1      -0.308   8.952  22.370  0.00  0.00    +0.000 C 
ATOM     17  C   UNL     1      -0.416  10.039  23.433  0.00  0.00    +0.000 C 
ATOM     18  H   UNL     1       2.514   9.404  17.242  0.00  0.00    +0.000 HD
ATOM     19  H   UNL     1       3.803   8.331  17.272  0.00  0.00    +0.000 HD
ENDROOT
BRANCH   1  24
ATOM     20  C   UNL     1      -4.715  14.677  23.568  0.00  0.00    +0.000 A 
ATOM     21  N   UNL     1      -3.531  14.624  24.235  0.00  0.00    +0.000 NA
ATOM     22  C   UNL     1      -2.773  13.534  23.965  0.00  0.00    +0.000 A 
ATOM     23  C   UNL     1      -3.123  12.531  23.057  0.00  0.00    +0.000 A 
ATOM     24  N   UNL     1      -2.364  11.403  22.796  0.00  0.00    +0.000 N 
ATOM     25  N   UNL     1      -4.313  12.605  22.415  0.00  0.00    +0.000 NA
ATOM     26  C   UNL     1      -5.118  13.670  22.679  0.00  0.00    +0.000 A 
ATOM     27  H   UNL     1      -2.789  10.871  22.041  0.00  0.00    +0.000 HD
BRANCH  26  28
ATOM     28  N   UNL     1      -6.293  13.725  21.927  0.00  0.00    +0.000 N 
ATOM     29  H   UNL     1      -7.086  13.510  22.521  0.00  0.00    +0.000 HD
ATOM     30  H   UNL     1      -6.387  14.600  21.410  0.00  0.00    +0.000 HD
ENDBRANCH  26  28
BRANCH  20  31
ATOM     31  C   UNL     1      -5.621  15.822  23.873  0.00  0.00    +0.000 C 
ATOM     32  O   UNL     1      -6.832  15.724  24.004  0.00  0.00    +0.000 OA
BRANCH  31  34
ATOM     33  C   UNL     1      -5.149  17.718  25.178  0.00  0.00    +0.000 C 
ATOM     34  O   UNL     1      -4.900  16.970  23.989  0.00  0.00    +0.000 OA
ENDBRANCH  31  34
ENDBRANCH  20  31
ENDBRANCH   1  24
BRANCH  11  35
ATOM     35  O   UNL     1       4.290   3.469  18.256  0.00  0.00    +0.000 OA
ATOM     36  C   UNL     1       4.669   3.666  16.901  0.00  0.00    +0.000 C 
ENDBRANCH  11  35
BRANCH  12  37
ATOM     37  O   UNL     1       2.974   2.951  20.811  0.00  0.00    +0.000 OA
ATOM     38  C   UNL     1       1.832   2.552  21.550  0.00  0.00    +0.000 C 
ENDBRANCH  12  37
TORSDOF 6
ENDMDL
MODEL 2
REMARK VINA RESULT:      -7.6      3.229     11.849
REMARK  Name = 
REMARK  9 active torsions:
REMARK  status: ('A' for Active; 'I' for Inactive)
REMARK    1  A    between atoms: C_1  and  O_2
REMARK    2  A    between atoms: O_2  and  C_3
REMARK    3  A    between atoms: C_3  and  C_5
REMARK    4  A    between atoms: N_9  and  C_10
REMARK    5  A    between atoms: C_20  and  O_21
REMARK    6  A    between atoms: O_21  and  C_22
REMARK    7  A    between atoms: C_23  and  O_24
REMARK    8  A    between atoms: O_24  and  C_25
REMARK    9  A    between atoms: C_32  and  N_33
REMARK                            x       y       z     vdW  Elec       q    Type
REMARK                         _______ _______ _______ _____ _____    ______ ____
ROOT
ATOM      1  C   UNL     1       2.353   6.384  19.171  0.00  0.00    +0.000 C 
ATOM      2  C   UNL     1       1.708   7.105  17.986  0.00  0.00    +0.000 C 
ATOM      3  C   UNL     1       1.582   8.621  18.155  0.00  0.00    +0.000 C 
ATOM      4  N   UNL     1       1.013   8.920  19.463  0.00  0.00    +0.000 N 
ATOM      5  C   UNL     1       0.403  10.162  19.621  0.00  0.00    +0.000 A 
ATOM      6  N   UNL     1      -0.055  10.808  18.539  0.00  0.00    +0.000 NA
ATOM      7  C   UNL     1      -0.767  11.927  18.727  0.00  0.00    +0.000 A 
ATOM      8  N   UNL     1      -1.222  12.549  17.553  0.00  0.00    +0.000 N 
ATOM      9  C   UNL     1      -1.037  12.466  19.986  0.00  0.00    +0.000 A 
ATOM     10  C   UNL     1      -1.795  13.640  20.239  0.00  0.00    +0.000 A 
ATOM     11  C   UNL     1      -2.015  14.104  21.541  0.00  0.00    +0.000 A 
ATOM     12  C   UNL     1      -1.446  13.386  22.603  0.00  0.00    +0.000 A 
ATOM     13  C   UNL     1      -0.704  12.224  22.331  0.00  0.00    +0.000 A 
ATOM     14  C   UNL     1      -0.494  11.750  21.043  0.00  0.00    +0.000 A 
ATOM     15  N   UNL     1       0.207  10.624  20.865  0.00  0.00    +0.000 NA
ATOM     16  C   UNL     1       1.762   8.415  20.611  0.00  0.00    +0.000 C 
ATOM     17  C   UNL     1       1.848   6.897  20.521  0.00  0.00    +0.000 C 
ATOM     18  H   UNL     1      -0.934  11.953  16.779  0.00  0.00    +0.000 HD
ATOM     19  H   UNL     1      -2.228  12.670  17.569  0.00  0.00    +0.000 HD
ENDROOT
BRANCH   1  24
ATOM     20  C   UNL     1       6.074   5.271  15.892  0.00  0.00    +0.000 A 
ATOM     21  N   UNL     1       4.867   4.658  16.024  0.00  0.00    +0.000 NA
ATOM     22  C   UNL     1       4.141   5.054  17.098  0.00  0.00    +0.000 A 
ATOM     23  C   UNL     1       4.544   6.033  18.009  0.00  0.00    +0.000 A 
ATOM     24  N   UNL     1       3.817   6.423  19.121  0.00  0.00    +0.000 N 
ATOM     25  N   UNL     1       5.755   6.620  17.858  0.00  0.00    +0.000 NA
ATOM     26  C   UNL     1       6.529   6.230  16.809  0.00  0.00    +0.000 A 
ATOM     27  H   UNL     1       4.280   7.206  19.576  0.00  0.00    +0.000 HD
BRANCH  26  28
ATOM     28  N   UNL     1       7.729   6.929  16.666  0.00  0.00    +0.000 N 
ATOM     29  H   UNL     1       7.538   7.868  16.336  0.00  0.00    +0.000 HD
ATOM     30  H   UNL     1       8.305   6.894  17.509  0.00  0.00    +0.000 HD
ENDBRANCH  26  28
BRANCH  20  31
ATOM     31  C   UNL     1       6.945   4.830  14.765  0.00  0.00    +0.000 C 
ATOM     32  O   UNL     1       7.925   5.446  14.371  0.00  0.00    +0.000 OA
BRANCH  31  34
ATOM     33  C   UNL     1       6.332   3.630  12.840  0.00  0.00    +0.000 C 
ATOM     34  O   UNL     1       6.491   3.652  14.258  0.00  0.00    +0.000 OA
ENDBRANCH  31  34
ENDBRANCH  20  31
ENDBRANCH   1  24
BRANCH  11  35
ATOM     35  O   UNL     1      -2.761  15.213  21.824  0.00  0.00    +0.000 OA
ATOM     36  C   UNL     1      -4.156  15.058  22.045  0.00  0.00    +0.000 C 
ENDBRANCH  11  35
BRANCH  12  37
ATOM     37  O   UNL     1      -1.509  13.649  23.948  0.00  0.00    +0.000 OA
ATOM     38  C   UNL     1      -1.112  14.925  24.420  0.00  0.00    +0.000 C 
ENDBRANCH  12  37
TORSDOF 6
ENDMDL
MODEL 3
REMARK VINA RESULT:      -7.6      1.470      1.962
REMARK  Name = 
REMARK  9 active torsions:
REMARK  status: ('A' for Active; 'I' for Inactive)
REMARK    1  A    between atoms: C_1  and  O_2
REMARK    2  A    between atoms: O_2  and  C_3
REMARK    3  A    between atoms: C_3  and  C_5
REMARK    4  A    between atoms: N_9  and  C_10
REMARK    5  A    between atoms: C_20  and  O_21
REMARK    6  A    between atoms: O_21  and  C_22
REMARK    7  A    between atoms: C_23  and  O_24
REMARK    8  A    between atoms: O_24  and  C_25
REMARK    9  A    between atoms: C_32  and  N_33
REMARK                            x       y       z     vdW  Elec       q    Type
REMARK                         _______ _______ _______ _____ _____    ______ ____
ROOT
ATOM      1  C   UNL     1      -0.221  11.726  20.954  0.00  0.00    +0.000 C 
ATOM      2  C   UNL     1       0.749  11.727  19.771  0.00  0.00    +0.000 C 
ATOM      3  C   UNL     1       0.897  10.377  19.067  0.00  0.00    +0.000 C 
ATOM      4  N   UNL     1       1.111   9.330  20.059  0.00  0.00    +0.000 N 
ATOM      5  C   UNL     1       1.715   8.154  19.621  0.00  0.00    +0.000 A 
ATOM      6  N   UNL     1       2.474   8.181  18.516  0.00  0.00    +0.000 NA
ATOM      7  C   UNL     1       3.162   7.077  18.196  0.00  0.00    +0.000 A 
ATOM      8  N   UNL     1       3.941   7.175  17.032  0.00  0.00    +0.000 N 
ATOM      9  C   UNL     1       3.113   5.897  18.939  0.00  0.00    +0.000 A 
ATOM     10  C   UNL     1       3.831   4.706  18.650  0.00  0.00    +0.000 A 
ATOM     11  C   UNL     1       3.718   3.568  19.459  0.00  0.00    +0.000 A 
ATOM     12  C   UNL     1       2.855   3.625  20.562  0.00  0.00    +0.000 A 
ATOM     13  C   UNL     1       2.158   4.814  20.832  0.00  0.00    +0.000 A 
ATOM     14  C   UNL     1       2.276   5.951  20.044  0.00  0.00    +0.000 A 
ATOM     15  N   UNL     1       1.595   7.054  20.378  0.00  0.00    +0.000 NA
ATOM     16  C   UNL     1       0.062   9.184  21.064  0.00  0.00    +0.000 C 
ATOM     17  C   UNL     1      -0.069  10.488  21.841  0.00  0.00    +0.000 C 
ATOM     18  H   UNL     1       3.841   8.131  16.696  0.00  0.00    +0.000 HD
ATOM     19  H   UNL     1       4.911   6.951  17.220  0.00  0.00    +0.000 HD
ENDROOT
BRANCH   1  24
ATOM     20  C   UNL     1      -4.604  13.386  22.919  0.00  0.00    +0.000 A 
ATOM     21  N   UNL     1      -3.582  12.763  23.566  0.00  0.00    +0.000 NA
ATOM     22  C   UNL     1      -2.609  12.276  22.758  0.00  0.00    +0.000 A 
ATOM     23  C   UNL     1      -2.595  12.407  21.367  0.00  0.00    +0.000 A 
ATOM     24  N   UNL     1      -1.616  11.890  20.536  0.00  0.00    +0.000 N 
ATOM     25  N   UNL     1      -3.630  13.024  20.749  0.00  0.00    +0.000 NA
ATOM     26  C   UNL     1      -4.643  13.502  21.522  0.00  0.00    +0.000 A 
ATOM     27  H   UNL     1      -1.785  12.190  19.579  0.00  0.00    +0.000 HD
BRANCH  26  28
ATOM     28  N   UNL     1      -5.639  14.194  20.830  0.00  0.00    +0.000 N 
ATOM     29  H   UNL     1      -5.648  13.896  19.861  0.00  0.00    +0.000 HD
ATOM     30  H   UNL     1      -6.549  14.137  21.290  0.00  0.00    +0.000 HD
ENDBRANCH  26  28
BRANCH  20  31
ATOM     31  C   UNL     1      -5.737  13.886  23.751  0.00  0.00    +0.000 C 
ATOM     32  O   UNL     1      -5.978  15.068  23.945  0.00  0.00    +0.000 OA
BRANCH  31  34
ATOM     33  C   UNL     1      -7.685  12.585  23.576  0.00  0.00    +0.000 C 
ATOM     34  O   UNL     1      -6.450  12.838  24.244  0.00  0.00    +0.000 OA
ENDBRANCH  31  34
ENDBRANCH  20  31
ENDBRANCH   1  24
BRANCH  11  35
ATOM     35  O   UNL     1       4.414   2.415  19.226  0.00  0.00    +0.000 OA
ATOM     36  C   UNL     1       3.816   1.410  18.418  0.00  0.00    +0.000 C 
ENDBRANCH  11  35
BRANCH  12  37
ATOM     37  O   UNL     1       2.570   2.645  21.479  0.00  0.00    +0.000 OA
ATOM     38  C   UNL     1       1.248   2.528  21.975  0.00  0.00    +0.000 C 
ENDBRANCH  12  37
TORSDOF 6
ENDMDL
MODEL 4
REMARK VINA RESULT:      -7.5      1.589      2.041
REMARK  Name = 
REMARK  9 active torsions:
REMARK  status: ('A' for Active; 'I' for Inactive)
REMARK    1  A    between atoms: C_1  and  O_2
REMARK    2  A    between atoms: O_2  and  C_3
REMARK    3  A    between atoms: C_3  and  C_5
REMARK    4  A    between atoms: N_9  and  C_10
REMARK    5  A    between atoms: C_20  and  O_21
REMARK    6  A    between atoms: O_21  and  C_22
REMARK    7  A    between atoms: C_23  and  O_24
REMARK    8  A    between atoms: O_24  and  C_25
REMARK    9  A    between atoms: C_32  and  N_33
REMARK                            x       y       z     vdW  Elec       q    Type
REMARK                         _______ _______ _______ _____ _____    ______ ____
ROOT
ATOM      1  C   UNL     1       0.109  11.917  20.394  0.00  0.00    +0.000 C 
ATOM      2  C   UNL     1       1.071  11.815  19.209  0.00  0.00    +0.000 C 
ATOM      3  C   UNL     1       1.176  10.419  18.592  0.00  0.00    +0.000 C 
ATOM      4  N   UNL     1       1.368   9.433  19.647  0.00  0.00    +0.000 N 
ATOM      5  C   UNL     1       1.936   8.215  19.282  0.00  0.00    +0.000 A 
ATOM      6  N   UNL     1       2.688   8.149  18.174  0.00  0.00    +0.000 NA
ATOM      7  C   UNL     1       3.342   7.008  17.921  0.00  0.00    +0.000 A 
ATOM      8  N   UNL     1       4.116   7.010  16.750  0.00  0.00    +0.000 N 
ATOM      9  C   UNL     1       3.265   5.880  18.739  0.00  0.00    +0.000 A 
ATOM     10  C   UNL     1       3.948   4.653  18.522  0.00  0.00    +0.000 A 
ATOM     11  C   UNL     1       3.809   3.572  19.402  0.00  0.00    +0.000 A 
ATOM     12  C   UNL     1       2.955   3.723  20.504  0.00  0.00    +0.000 A 
ATOM     13  C   UNL     1       2.293   4.947  20.701  0.00  0.00    +0.000 A 
ATOM     14  C   UNL     1       2.437   6.028  19.842  0.00  0.00    +0.000 A 
ATOM     15  N   UNL     1       1.790   7.168  20.108  0.00  0.00    +0.000 NA
ATOM     16  C   UNL     1       0.321   9.380  20.664  0.00  0.00    +0.000 C 
ATOM     17  C   UNL     1       0.232  10.734  21.358  0.00  0.00    +0.000 C 
ATOM     18  H   UNL     1       4.041   7.946  16.355  0.00  0.00    +0.000 HD
ATOM     19  H   UNL     1       5.081   6.772  16.947  0.00  0.00    +0.000 HD
ENDROOT
BRANCH   1  24
ATOM     20  C   UNL     1      -4.396  12.944  22.509  0.00  0.00    +0.000 A 
ATOM     21  N   UNL     1      -3.357  12.254  23.052  0.00  0.00    +0.000 NA
ATOM     22  C   UNL     1      -2.343  11.984  22.196  0.00  0.00    +0.000 A 
ATOM     23  C   UNL     1      -2.306  12.389  20.859  0.00  0.00    +0.000 A 
ATOM     24  N   UNL     1      -1.283  12.094  19.974  0.00  0.00    +0.000 N 
ATOM     25  N   UNL     1      -3.359  13.065  20.342  0.00  0.00    +0.000 NA
ATOM     26  C   UNL     1      -4.412  13.332  21.161  0.00  0.00    +0.000 A 
ATOM     27  H   UNL     1      -1.448  12.568  19.089  0.00  0.00    +0.000 HD
BRANCH  26  28
ATOM     28  N   UNL     1      -5.429  14.099  20.588  0.00  0.00    +0.000 N 
ATOM     29  H   UNL     1      -6.120  14.328  21.294  0.00  0.00    +0.000 HD
ATOM     30  H   UNL     1      -5.070  14.909  20.081  0.00  0.00    +0.000 HD
ENDBRANCH  26  28
BRANCH  20  31
ATOM     31  C   UNL     1      -5.572  13.214  23.387  0.00  0.00    +0.000 C 
ATOM     32  O   UNL     1      -6.170  12.355  24.018  0.00  0.00    +0.000 OA
BRANCH  31  34
ATOM     33  C   UNL     1      -4.910  15.368  24.055  0.00  0.00    +0.000 C 
ATOM     34  O   UNL     1      -5.862  14.543  23.383  0.00  0.00    +0.000 OA
ENDBRANCH  31  34
ENDBRANCH  20  31
ENDBRANCH   1  24
BRANCH  11  35
ATOM     35  O   UNL     1       4.470   2.387  19.240  0.00  0.00    +0.000 OA
ATOM     36  C   UNL     1       3.828   1.341  18.524  0.00  0.00    +0.000 C 
ENDBRANCH  11  35
BRANCH  12  37
ATOM     37  O   UNL     1       2.649   2.813  21.483  0.00  0.00    +0.000 OA
ATOM     38  C   UNL     1       1.288   2.525  21.757  0.00  0.00    +0.000 C 
ENDBRANCH  12  37
TORSDOF 6
ENDMDL
MODEL 5
REMARK VINA RESULT:      -7.3      1.192      1.261
REMARK  Name = 
REMARK  9 active torsions:
REMARK  status: ('A' for Active; 'I' for Inactive)
REMARK    1  A    between atoms: C_1  and  O_2
REMARK    2  A    between atoms: O_2  and  C_3
REMARK    3  A    between atoms: C_3  and  C_5
REMARK    4  A    between atoms: N_9  and  C_10
REMARK    5  A    between atoms: C_20  and  O_21
REMARK    6  A    between atoms: O_21  and  C_22
REMARK    7  A    between atoms: C_23  and  O_24
REMARK    8  A    between atoms: O_24  and  C_25
REMARK    9  A    between atoms: C_32  and  N_33
REMARK                            x       y       z     vdW  Elec       q    Type
REMARK                         _______ _______ _______ _____ _____    ______ ____
ROOT
ATOM      1  C   UNL     1      -0.255  11.820  21.263  0.00  0.00    +0.000 C 
ATOM      2  C   UNL     1       0.650  11.851  20.030  0.00  0.00    +0.000 C 
ATOM      3  C   UNL     1       0.765  10.516  19.292  0.00  0.00    +0.000 C 
ATOM      4  N   UNL     1       1.038   9.451  20.249  0.00  0.00    +0.000 N 
ATOM      5  C   UNL     1       1.623   8.287  19.755  0.00  0.00    +0.000 A 
ATOM      6  N   UNL     1       2.321   8.340  18.612  0.00  0.00    +0.000 NA
ATOM      7  C   UNL     1       2.995   7.247  18.233  0.00  0.00    +0.000 A 
ATOM      8  N   UNL     1       3.710   7.372  17.031  0.00  0.00    +0.000 N 
ATOM      9  C   UNL     1       2.992   6.052  18.954  0.00  0.00    +0.000 A 
ATOM     10  C   UNL     1       3.699   4.871  18.603  0.00  0.00    +0.000 A 
ATOM     11  C   UNL     1       3.636   3.717  19.393  0.00  0.00    +0.000 A 
ATOM     12  C   UNL     1       2.833   3.746  20.542  0.00  0.00    +0.000 A 
ATOM     13  C   UNL     1       2.146   4.926  20.874  0.00  0.00    +0.000 A 
ATOM     14  C   UNL     1       2.216   6.079  20.104  0.00  0.00    +0.000 A 
ATOM     15  N   UNL     1       1.549   7.171  20.496  0.00  0.00    +0.000 NA
ATOM     16  C   UNL     1       0.045   9.279  21.306  0.00  0.00    +0.000 C 
ATOM     17  C   UNL     1      -0.049  10.566  22.116  0.00  0.00    +0.000 C 
ATOM     18  H   UNL     1       3.588   8.335  16.721  0.00  0.00    +0.000 HD
ATOM     19  H   UNL     1       4.690   7.150  17.162  0.00  0.00    +0.000 HD
ENDROOT
BRANCH   1  24
ATOM     20  C   UNL     1      -4.332  14.259  23.067  0.00  0.00    +0.000 A 
ATOM     21  N   UNL     1      -3.292  13.738  23.772  0.00  0.00    +0.000 NA
ATOM     22  C   UNL     1      -2.428  12.990  23.043  0.00  0.00    +0.000 A 
ATOM     23  C   UNL     1      -2.537  12.769  21.668  0.00  0.00    +0.000 A 
ATOM     24  N   UNL     1      -1.671  11.985  20.924  0.00  0.00    +0.000 N 
ATOM     25  N   UNL     1      -3.588  13.292  20.994  0.00  0.00    +0.000 NA
ATOM     26  C   UNL     1      -4.496  14.026  21.694  0.00  0.00    +0.000 A 
ATOM     27  H   UNL     1      -1.911  12.049  19.938  0.00  0.00    +0.000 HD
BRANCH  26  28
ATOM     28  N   UNL     1      -5.510  14.600  20.926  0.00  0.00    +0.000 N 
ATOM     29  H   UNL     1      -6.178  13.886  20.658  0.00  0.00    +0.000 HD
ATOM     30  H   UNL     1      -5.932  15.413  21.378  0.00  0.00    +0.000 HD
ENDBRANCH  26  28
BRANCH  20  31
ATOM     31  C   UNL     1      -5.352  15.038  23.828  0.00  0.00    +0.000 C 
ATOM     32  O   UNL     1      -6.556  14.838  23.766  0.00  0.00    +0.000 OA
BRANCH  31  34
ATOM     33  C   UNL     1      -5.365  17.267  24.573  0.00  0.00    +0.000 C 
ATOM     34  O   UNL     1      -4.741  15.983  24.593  0.00  0.00    +0.000 OA
ENDBRANCH  31  34
ENDBRANCH  20  31
ENDBRANCH   1  24
BRANCH  11  35
ATOM     35  O   UNL     1       4.323   2.572  19.100  0.00  0.00    +0.000 OA
ATOM     36  C   UNL     1       3.639   1.518  18.436  0.00  0.00    +0.000 C 
ENDBRANCH  11  35
BRANCH  12  37
ATOM     37  O   UNL     1       2.603   2.747  21.454  0.00  0.00    +0.000 OA
ATOM     38  C   UNL     1       1.270   2.464  21.846  0.00  0.00    +0.000 C 
ENDBRANCH  12  37
TORSDOF 6
ENDMDL
MODEL 6
REMARK VINA RESULT:      -7.3      0.948      1.101
REMARK  Name = 
REMARK  9 active torsions:
REMARK  status: ('A' for Active; 'I' for Inactive)
REMARK    1  A    between atoms: C_1  and  O_2
REMARK    2  A    between atoms: O_2  and  C_3
REMARK    3  A    between atoms: C_3  and  C_5
REMARK    4  A    between atoms: N_9  and  C_10
REMARK    5  A    between atoms: C_20  and  O_21
REMARK    6  A    between atoms: O_21  and  C_22
REMARK    7  A    between atoms: C_23  and  O_24
REMARK    8  A    between atoms: O_24  and  C_25
REMARK    9  A    between atoms: C_32  and  N_33
REMARK                            x       y       z     vdW  Elec       q    Type
REMARK                         _______ _______ _______ _____ _____    ______ ____
ROOT
ATOM      1  C   UNL     1      -1.083  11.467  23.002  0.00  0.00    +0.000 C 
ATOM      2  C   UNL     1      -0.425  11.915  21.695  0.00  0.00    +0.000 C 
ATOM      3  C   UNL     1      -0.261  10.806  20.653  0.00  0.00    +0.000 C 
ATOM      4  N   UNL     1       0.321   9.627  21.283  0.00  0.00    +0.000 N 
ATOM      5  C   UNL     1       0.963   8.714  20.450  0.00  0.00    +0.000 A 
ATOM      6  N   UNL     1       1.432   9.128  19.264  0.00  0.00    +0.000 NA
ATOM      7  C   UNL     1       2.172   8.274  18.545  0.00  0.00    +0.000 A 
ATOM      8  N   UNL     1       2.637   8.773  17.318  0.00  0.00    +0.000 N 
ATOM      9  C   UNL     1       2.462   6.972  18.956  0.00  0.00    +0.000 A 
ATOM     10  C   UNL     1       3.250   6.033  18.238  0.00  0.00    +0.000 A 
ATOM     11  C   UNL     1       3.488   4.745  18.733  0.00  0.00    +0.000 A 
ATOM     12  C   UNL     1       2.906   4.392  19.959  0.00  0.00    +0.000 A 
ATOM     13  C   UNL     1       2.134   5.337  20.655  0.00  0.00    +0.000 A 
ATOM     14  C   UNL     1       1.906   6.620  20.178  0.00  0.00    +0.000 A 
ATOM     15  N   UNL     1       1.177   7.472  20.908  0.00  0.00    +0.000 NA
ATOM     16  C   UNL     1      -0.434   9.066  22.399  0.00  0.00    +0.000 C 
ATOM     17  C   UNL     1      -0.558  10.117  23.496  0.00  0.00    +0.000 C 
ATOM     18  H   UNL     1       2.331   9.743  17.265  0.00  0.00    +0.000 HD
ATOM     19  H   UNL     1       3.646   8.702  17.251  0.00  0.00    +0.000 HD
ENDROOT
BRANCH   1  24
ATOM     20  C   UNL     1      -4.904  14.798  22.633  0.00  0.00    +0.000 A 
ATOM     21  N   UNL     1      -3.714  14.960  23.272  0.00  0.00    +0.000 NA
ATOM     22  C   UNL     1      -2.954  13.841  23.354  0.00  0.00    +0.000 A 
ATOM     23  C   UNL     1      -3.307  12.603  22.814  0.00  0.00    +0.000 A 
ATOM     24  N   UNL     1      -2.546  11.451  22.917  0.00  0.00    +0.000 N 
ATOM     25  N   UNL     1      -4.503  12.467  22.192  0.00  0.00    +0.000 NA
ATOM     26  C   UNL     1      -5.309  13.560  22.113  0.00  0.00    +0.000 A 
ATOM     27  H   UNL     1      -2.974  10.706  22.373  0.00  0.00    +0.000 HD
BRANCH  26  28
ATOM     28  N   UNL     1      -6.491  13.373  21.392  0.00  0.00    +0.000 N 
ATOM     29  H   UNL     1      -7.192  12.956  21.994  0.00  0.00    +0.000 HD
ATOM     30  H   UNL     1      -6.801  14.223  20.920  0.00  0.00    +0.000 HD
ENDBRANCH  26  28
BRANCH  20  31
ATOM     31  C   UNL     1      -5.812  15.979  22.568  0.00  0.00    +0.000 C 
ATOM     32  O   UNL     1      -6.198  16.604  23.545  0.00  0.00    +0.000 OA
BRANCH  31  34
ATOM     33  C   UNL     1      -5.157  17.016  20.564  0.00  0.00    +0.000 C 
ATOM     34  O   UNL     1      -6.131  16.252  21.274  0.00  0.00    +0.000 OA
ENDBRANCH  31  34
ENDBRANCH  20  31
ENDBRANCH   1  24
BRANCH  11  35
ATOM     35  O   UNL     1       4.262   3.826  18.083  0.00  0.00    +0.000 OA
ATOM     36  C   UNL     1       4.767   4.149  16.795  0.00  0.00    +0.000 C 
ENDBRANCH  11  35
BRANCH  12  37
ATOM     37  O   UNL     1       2.982   3.198  20.632  0.00  0.00    +0.000 OA
ATOM     38  C   UNL     1       2.127   2.976  21.741  0.00  0.00    +0.000 C 
ENDBRANCH  12  37
TORSDOF 6
ENDMDL
MODEL 7
REMARK VINA RESULT:      -7.0      3.283     11.548
REMARK  Name = 
REMARK  9 active torsions:
REMARK  status: ('A' for Active; 'I' for Inactive)
REMARK    1  A    between atoms: C_1  and  O_2
REMARK    2  A    between atoms: O_2  and  C_3
REMARK    3  A    between atoms: C_3  and  C_5
REMARK    4  A    between atoms: N_9  and  C_10
REMARK    5  A    between atoms: C_20  and  O_21
REMARK    6  A    between atoms: O_21  and  C_22
REMARK    7  A    between atoms: C_23  and  O_24
REMARK    8  A    between atoms: O_24  and  C_25
REMARK    9  A    between atoms: C_32  and  N_33
REMARK                            x       y       z     vdW  Elec       q    Type
REMARK                         _______ _______ _______ _____ _____    ______ ____
ROOT
ATOM      1  C   UNL     1       1.817   6.033  19.711  0.00  0.00    +0.000 C 
ATOM      2  C   UNL     1       1.848   6.955  18.490  0.00  0.00    +0.000 C 
ATOM      3  C   UNL     1       2.074   8.433  18.814  0.00  0.00    +0.000 C 
ATOM      4  N   UNL     1       1.179   8.839  19.890  0.00  0.00    +0.000 N 
ATOM      5  C   UNL     1       0.903  10.200  20.006  0.00  0.00    +0.000 A 
ATOM      6  N   UNL     1       1.045  10.990  18.932  0.00  0.00    +0.000 NA
ATOM      7  C   UNL     1       0.635  12.262  19.026  0.00  0.00    +0.000 A 
ATOM      8  N   UNL     1       0.807  13.032  17.865  0.00  0.00    +0.000 N 
ATOM      9  C   UNL     1       0.088  12.811  20.187  0.00  0.00    +0.000 A 
ATOM     10  C   UNL     1      -0.372  14.147  20.334  0.00  0.00    +0.000 A 
ATOM     11  C   UNL     1      -0.909  14.608  21.542  0.00  0.00    +0.000 A 
ATOM     12  C   UNL     1      -0.964  13.717  22.623  0.00  0.00    +0.000 A 
ATOM     13  C   UNL     1      -0.507  12.398  22.455  0.00  0.00    +0.000 A 
ATOM     14  C   UNL     1       0.012  11.929  21.256  0.00  0.00    +0.000 A 
ATOM     15  N   UNL     1       0.408  10.655  21.166  0.00  0.00    +0.000 NA
ATOM     16  C   UNL     1       1.311   8.096  21.140  0.00  0.00    +0.000 C 
ATOM     17  C   UNL     1       1.020   6.624  20.877  0.00  0.00    +0.000 C 
ATOM     18  H   UNL     1       1.182  12.406  17.155  0.00  0.00    +0.000 HD
ATOM     19  H   UNL     1      -0.070  13.443  17.565  0.00  0.00    +0.000 HD
ENDROOT
BRANCH   1  24
ATOM     20  C   UNL     1       6.353   5.036  17.648  0.00  0.00    +0.000 A 
ATOM     21  N   UNL     1       5.123   4.811  17.110  0.00  0.00    +0.000 NA
ATOM     22  C   UNL     1       4.085   5.016  17.956  0.00  0.00    +0.000 A 
ATOM     23  C   UNL     1       4.215   5.454  19.276  0.00  0.00    +0.000 A 
ATOM     24  N   UNL     1       3.158   5.641  20.152  0.00  0.00    +0.000 N 
ATOM     25  N   UNL     1       5.451   5.660  19.788  0.00  0.00    +0.000 NA
ATOM     26  C   UNL     1       6.523   5.438  18.980  0.00  0.00    +0.000 A 
ATOM     27  H   UNL     1       3.501   6.043  21.022  0.00  0.00    +0.000 HD
BRANCH  26  28
ATOM     28  N   UNL     1       7.763   5.744  19.544  0.00  0.00    +0.000 N 
ATOM     29  H   UNL     1       7.870   6.751  19.602  0.00  0.00    +0.000 HD
ATOM     30  H   UNL     1       7.922   5.259  20.428  0.00  0.00    +0.000 HD
ENDBRANCH  26  28
BRANCH  20  31
ATOM     31  C   UNL     1       7.537   4.764  16.783  0.00  0.00    +0.000 C 
ATOM     32  O   UNL     1       8.439   3.992  17.075  0.00  0.00    +0.000 OA
BRANCH  31  34
ATOM     33  C   UNL     1       7.119   4.737  14.471  0.00  0.00    +0.000 C 
ATOM     34  O   UNL     1       7.454   5.491  15.636  0.00  0.00    +0.000 OA
ENDBRANCH  31  34
ENDBRANCH  20  31
ENDBRANCH   1  24
BRANCH  11  35
ATOM     35  O   UNL     1      -1.385  15.877  21.712  0.00  0.00    +0.000 OA
ATOM     36  C   UNL     1      -1.800  16.608  20.566  0.00  0.00    +0.000 C 
ENDBRANCH  11  35
BRANCH  12  37
ATOM     37  O   UNL     1      -1.427  13.938  23.895  0.00  0.00    +0.000 OA
ATOM     38  C   UNL     1      -2.826  13.967  24.125  0.00  0.00    +0.000 C 
ENDBRANCH  12  37
TORSDOF 6
ENDMDL
MODEL 8
REMARK VINA RESULT:      -6.6      1.948     11.534
REMARK  Name = 
REMARK  9 active torsions:
REMARK  status: ('A' for Active; 'I' for Inactive)
REMARK    1  A    between atoms: C_1  and  O_2
REMARK    2  A    between atoms: O_2  and  C_3
REMARK    3  A    between atoms: C_3  and  C_5
REMARK    4  A    between atoms: N_9  and  C_10
REMARK    5  A    between atoms: C_20  and  O_21
REMARK    6  A    between atoms: O_21  and  C_22
REMARK    7  A    between atoms: C_23  and  O_24
REMARK    8  A    between atoms: O_24  and  C_25
REMARK    9  A    between atoms: C_32  and  N_33
REMARK                            x       y       z     vdW  Elec       q    Type
REMARK                         _______ _______ _______ _____ _____    ______ ____
ROOT
ATOM      1  C   UNL     1       1.166   9.322  21.543  0.00  0.00    +0.000 C 
ATOM      2  C   UNL     1       0.745   9.683  22.969  0.00  0.00    +0.000 C 
ATOM      3  C   UNL     1      -0.734  10.039  23.126  0.00  0.00    +0.000 C 
ATOM      4  N   UNL     1      -1.118  10.994  22.093  0.00  0.00    +0.000 N 
ATOM      5  C   UNL     1      -2.246  11.773  22.336  0.00  0.00    +0.000 A 
ATOM      6  N   UNL     1      -2.641  11.976  23.601  0.00  0.00    +0.000 NA
ATOM      7  C   UNL     1      -3.637  12.845  23.820  0.00  0.00    +0.000 A 
ATOM      8  N   UNL     1      -3.995  13.016  25.167  0.00  0.00    +0.000 N 
ATOM      9  C   UNL     1      -4.297  13.532  22.800  0.00  0.00    +0.000 A 
ATOM     10  C   UNL     1      -5.348  14.470  22.980  0.00  0.00    +0.000 A 
ATOM     11  C   UNL     1      -5.951  15.112  21.892  0.00  0.00    +0.000 A 
ATOM     12  C   UNL     1      -5.503  14.789  20.603  0.00  0.00    +0.000 A 
ATOM     13  C   UNL     1      -4.458  13.862  20.448  0.00  0.00    +0.000 A 
ATOM     14  C   UNL     1      -3.846  13.232  21.523  0.00  0.00    +0.000 A 
ATOM     15  N   UNL     1      -2.843  12.376  21.297  0.00  0.00    +0.000 NA
ATOM     16  C   UNL     1      -0.921  10.552  20.715  0.00  0.00    +0.000 C 
ATOM     17  C   UNL     1       0.557  10.255  20.494  0.00  0.00    +0.000 C 
ATOM     18  H   UNL     1      -3.351  12.446  25.712  0.00  0.00    +0.000 HD
ATOM     19  H   UNL     1      -3.942  13.991  25.440  0.00  0.00    +0.000 HD
ENDROOT
BRANCH   1  24
ATOM     20  C   UNL     1       3.106   5.646  18.619  0.00  0.00    +0.000 A 
ATOM     21  N   UNL     1       3.106   6.986  18.385  0.00  0.00    +0.000 NA
ATOM     22  C   UNL     1       2.364   7.716  19.253  0.00  0.00    +0.000 A 
ATOM     23  C   UNL     1       1.663   7.184  20.337  0.00  0.00    +0.000 A 
ATOM     24  N   UNL     1       0.884   7.923  21.212  0.00  0.00    +0.000 N 
ATOM     25  N   UNL     1       1.672   5.845  20.540  0.00  0.00    +0.000 NA
ATOM     26  C   UNL     1       2.382   5.072  19.674  0.00  0.00    +0.000 A 
ATOM     27  H   UNL     1       0.548   7.323  21.962  0.00  0.00    +0.000 HD
BRANCH  26  28
ATOM     28  N   UNL     1       2.414   3.711  19.985  0.00  0.00    +0.000 N 
ATOM     29  H   UNL     1       3.291   3.489  20.444  0.00  0.00    +0.000 HD
ATOM     30  H   UNL     1       1.587   3.407  20.501  0.00  0.00    +0.000 HD
ENDBRANCH  26  28
BRANCH  20  31
ATOM     31  C   UNL     1       3.852   4.784  17.657  0.00  0.00    +0.000 C 
ATOM     32  O   UNL     1       3.352   3.863  17.029  0.00  0.00    +0.000 OA
BRANCH  31  34
ATOM     33  C   UNL     1       5.929   4.904  18.749  0.00  0.00    +0.000 C 
ATOM     34  O   UNL     1       5.151   5.182  17.585  0.00  0.00    +0.000 OA
ENDBRANCH  31  34
ENDBRANCH  20  31
ENDBRANCH   1  24
BRANCH  11  35
ATOM     35  O   UNL     1      -6.945  16.040  22.028  0.00  0.00    +0.000 OA
ATOM     36  C   UNL     1      -7.174  16.609  23.310  0.00  0.00    +0.000 C 
ENDBRANCH  11  35
BRANCH  12  37
ATOM     37  O   UNL     1      -5.943  15.269  19.396  0.00  0.00    +0.000 OA
ATOM     38  C   UNL     1      -6.712  14.424  18.556  0.00  0.00    +0.000 C 
ENDBRANCH  12  37
TORSDOF 6
ENDMDL
MODEL 9
REMARK VINA RESULT:      -6.6      2.348     11.735
REMARK  Name = 
REMARK  9 active torsions:
REMARK  status: ('A' for Active; 'I' for Inactive)
REMARK    1  A    between atoms: C_1  and  O_2
REMARK    2  A    between atoms: O_2  and  C_3
REMARK    3  A    between atoms: C_3  and  C_5
REMARK    4  A    between atoms: N_9  and  C_10
REMARK    5  A    between atoms: C_20  and  O_21
REMARK    6  A    between atoms: O_21  and  C_22
REMARK    7  A    between atoms: C_23  and  O_24
REMARK    8  A    between atoms: O_24  and  C_25
REMARK    9  A    between atoms: C_32  and  N_33
REMARK                            x       y       z     vdW  Elec       q    Type
REMARK                         _______ _______ _______ _____ _____    ______ ____
ROOT
ATOM      1  C   UNL     1       1.012  10.372  19.463  0.00  0.00    +0.000 C 
ATOM      2  C   UNL     1       1.068  11.196  20.751  0.00  0.00    +0.000 C 
ATOM      3  C   UNL     1      -0.284  11.398  21.438  0.00  0.00    +0.000 C 
ATOM      4  N   UNL     1      -1.271  11.828  20.455  0.00  0.00    +0.000 N 
ATOM      5  C   UNL     1      -2.396  12.494  20.934  0.00  0.00    +0.000 A 
ATOM      6  N   UNL     1      -2.332  13.116  22.120  0.00  0.00    +0.000 NA
ATOM      7  C   UNL     1      -3.374  13.871  22.494  0.00  0.00    +0.000 A 
ATOM      8  N   UNL     1      -3.239  14.499  23.743  0.00  0.00    +0.000 N 
ATOM      9  C   UNL     1      -4.528  14.026  21.724  0.00  0.00    +0.000 A 
ATOM     10  C   UNL     1      -5.652  14.823  22.069  0.00  0.00    +0.000 A 
ATOM     11  C   UNL     1      -6.767  14.918  21.228  0.00  0.00    +0.000 A 
ATOM     12  C   UNL     1      -6.759  14.184  20.034  0.00  0.00    +0.000 A 
ATOM     13  C   UNL     1      -5.634  13.406  19.710  0.00  0.00    +0.000 A 
ATOM     14  C   UNL     1      -4.519  13.318  20.531  0.00  0.00    +0.000 A 
ATOM     15  N   UNL     1      -3.477  12.573  20.144  0.00  0.00    +0.000 NA
ATOM     16  C   UNL     1      -1.485  10.920  19.332  0.00  0.00    +0.000 C 
ATOM     17  C   UNL     1      -0.175  10.748  18.573  0.00  0.00    +0.000 C 
ATOM     18  H   UNL     1      -2.308  14.266  24.085  0.00  0.00    +0.000 HD
ATOM     19  H   UNL     1      -3.360  15.502  23.664  0.00  0.00    +0.000 HD
ENDROOT
BRANCH   1  24
ATOM     20  C   UNL     1       3.799   6.315  18.197  0.00  0.00    +0.000 A 
ATOM     21  N   UNL     1       3.555   7.426  17.451  0.00  0.00    +0.000 NA
ATOM     22  C   UNL     1       2.635   8.273  17.974  0.00  0.00    +0.000 A 
ATOM     23  C   UNL     1       1.984   8.079  19.194  0.00  0.00    +0.000 A 
ATOM     24  N   UNL     1       1.025   8.929  19.720  0.00  0.00    +0.000 N 
ATOM     25  N   UNL     1       2.238   6.959  19.911  0.00  0.00    +0.000 NA
ATOM     26  C   UNL     1       3.135   6.068  19.408  0.00  0.00    +0.000 A 
ATOM     27  H   UNL     1       0.765   8.617  20.652  0.00  0.00    +0.000 HD
BRANCH  26  28
ATOM     28  N   UNL     1       3.410   4.975  20.232  0.00  0.00    +0.000 N 
ATOM     29  H   UNL     1       4.367   4.674  20.088  0.00  0.00    +0.000 HD
ATOM     30  H   UNL     1       3.173   5.152  21.209  0.00  0.00    +0.000 HD
ENDBRANCH  26  28
BRANCH  20  31
ATOM     31  C   UNL     1       4.755   5.314  17.641  0.00  0.00    +0.000 C 
ATOM     32  O   UNL     1       4.468   4.152  17.397  0.00  0.00    +0.000 OA
BRANCH  31  34
ATOM     33  C   UNL     1       7.017   4.982  17.098  0.00  0.00    +0.000 C 
ATOM     34  O   UNL     1       5.971   5.890  17.445  0.00  0.00    +0.000 OA
ENDBRANCH  31  34
ENDBRANCH  20  31
ENDBRANCH   1  24
BRANCH  11  35
ATOM     35  O   UNL     1      -7.854  15.695  21.514  0.00  0.00    +0.000 OA
ATOM     36  C   UNL     1      -7.719  17.108  21.446  0.00  0.00    +0.000 C 
ENDBRANCH  11  35
BRANCH  12  37
ATOM     37  O   UNL     1      -7.730  14.106  19.068  0.00  0.00    +0.000 OA
ATOM     38  C   UNL     1      -7.648  13.085  18.088  0.00  0.00    +0.000 C 
ENDBRANCH  12  37
TORSDOF 6
ENDMDL
