MODEL 1
REMARK VINA RESULT:      -7.3      0.000      0.000
REMARK  Name = 
REMARK  10 active torsions:
REMARK  status: ('A' for Active; 'I' for Inactive)
REMARK    1  A    between atoms: C_3  and  C_4
REMARK    2  A    between atoms: C_11  and  O_12
REMARK    3  A    between atoms: O_12  and  C_13
REMARK    4  A    between atoms: C_13  and  C_14
REMARK    5  A    between atoms: C_14  and  C_15
REMARK    6  A    between atoms: C_15  and  C_16
REMARK    7  A    between atoms: C_16  and  C_17
REMARK    8  A    between atoms: C_17  and  O_18
REMARK    9  A    between atoms: O_18  and  C_19
REMARK   10  A    between atoms: C_22  and  C_23
REMARK                            x       y       z     vdW  Elec       q    Type
REMARK                         _______ _______ _______ _____ _____    ______ ____
ROOT
ATOM      1  C   UNL     1       0.970   3.033  20.982  0.00  0.00    +0.000 C 
ENDROOT
BRANCH   1   2
ATOM      2  C   UNL     1       2.154   2.297  20.350  0.00  0.00    +0.000 C 
BRANCH   2   3
ATOM      3  C   UNL     1       1.757   1.823  18.955  0.00  0.00    +0.000 C 
BRANCH   3   4
ATOM      4  O   UNL     1       2.842   1.817  18.100  0.00  0.00    +0.000 OA
BRANCH   4  10
ATOM      5  C   UNL     1       3.549   3.735  16.800  0.00  0.00    +0.000 A 
ATOM      6  C   UNL     1       4.416   4.812  16.631  0.00  0.00    +0.000 A 
ATOM      7  C   UNL     1       5.430   5.065  17.565  0.00  0.00    +0.000 A 
ATOM      8  C   UNL     1       5.545   4.222  18.687  0.00  0.00    +0.000 A 
ATOM      9  C   UNL     1       4.667   3.144  18.860  0.00  0.00    +0.000 A 
ATOM     10  C   UNL     1       3.665   2.885  17.916  0.00  0.00    +0.000 A 
BRANCH   7  11
ATOM     11  C   UNL     1       6.359   6.194  17.334  0.00  0.00    +0.000 A 
ATOM     12  N   UNL     1       6.103   7.470  17.686  0.00  0.00    +0.000 NA
ATOM     13  N   UNL     1       7.161   8.164  17.296  0.00  0.00    +0.000 NA
ATOM     14  N   UNL     1       8.041   7.355  16.724  0.00  0.00    +0.000 NA
ATOM     15  N   UNL     1       7.562   6.123  16.737  0.00  0.00    +0.000 N 
ATOM     16  H   UNL     1       8.052   5.290  16.347  0.00  0.00    +0.000 HD
ENDBRANCH   7  11
ENDBRANCH   4  10
ENDBRANCH   3   4
ENDBRANCH   2   3
ENDBRANCH   1   2
BRANCH   1  17
ATOM     17  C   UNL     1       0.877   4.490  20.524  0.00  0.00    +0.000 C 
BRANCH  17  18
ATOM     18  C   UNL     1       2.257   5.132  20.613  0.00  0.00    +0.000 C 
BRANCH  18  19
ATOM     19  O   UNL     1       2.534   5.857  19.472  0.00  0.00    +0.000 OA
BRANCH  19  20
ATOM     20  C   UNL     1       2.202   7.163  19.300  0.00  0.00    +0.000 A 
ATOM     21  C   UNL     1       2.469   7.856  18.101  0.00  0.00    +0.000 A 
ATOM     22  C   UNL     1       2.101   9.191  17.957  0.00  0.00    +0.000 A 
ATOM     23  C   UNL     1       1.463   9.873  19.005  0.00  0.00    +0.000 A 
ATOM     24  C   UNL     1       1.207   9.185  20.207  0.00  0.00    +0.000 A 
ATOM     25  C   UNL     1       1.573   7.844  20.350  0.00  0.00    +0.000 A 
BRANCH  23  26
ATOM     26  C   UNL     1       1.075  11.290  18.824  0.00  0.00    +0.000 A 
ATOM     27  N   UNL     1       1.900  12.252  18.364  0.00  0.00    +0.000 NA
ATOM     28  N   UNL     1       1.176  13.360  18.346  0.00  0.00    +0.000 NA
ATOM     29  N   UNL     1      -0.049  13.100  18.778  0.00  0.00    +0.000 NA
ATOM     30  N   UNL     1      -0.135  11.818  19.080  0.00  0.00    +0.000 N 
ATOM     31  H   UNL     1      -0.990  11.349  19.447  0.00  0.00    +0.000 HD
ENDBRANCH  23  26
ENDBRANCH  19  20
ENDBRANCH  18  19
ENDBRANCH  17  18
ENDBRANCH   1  17
TORSDOF 10
ENDMDL
MODEL 2
REMARK VINA RESULT:      -7.1      3.251      4.147
REMARK  Name = 
REMARK  10 active torsions:
REMARK  status: ('A' for Active; 'I' for Inactive)
REMARK    1  A    between atoms: C_3  and  C_4
REMARK    2  A    between atoms: C_11  and  O_12
REMARK    3  A    between atoms: O_12  and  C_13
REMARK    4  A    between atoms: C_13  and  C_14
REMARK    5  A    between atoms: C_14  and  C_15
REMARK    6  A    between atoms: C_15  and  C_16
REMARK    7  A    between atoms: C_16  and  C_17
REMARK    8  A    between atoms: C_17  and  O_18
REMARK    9  A    between atoms: O_18  and  C_19
REMARK   10  A    between atoms: C_22  and  C_23
REMARK                            x       y       z     vdW  Elec       q    Type
REMARK                         _______ _______ _______ _____ _____    ______ ____
ROOT
ATOM      1  C   UNL     1       2.220   5.997  19.276  0.00  0.00    +0.000 C 
ENDROOT
BRANCH   1   2
ATOM      2  C   UNL     1       2.203   5.176  20.568  0.00  0.00    +0.000 C 
BRANCH   2   3
ATOM      3  C   UNL     1       2.483   3.714  20.232  0.00  0.00    +0.000 C 
BRANCH   3   4
ATOM      4  O   UNL     1       3.836   3.488  20.070  0.00  0.00    +0.000 OA
BRANCH   4  10
ATOM      5  C   UNL     1       5.652   4.581  18.895  0.00  0.00    +0.000 A 
ATOM      6  C   UNL     1       6.316   4.844  17.700  0.00  0.00    +0.000 A 
ATOM      7  C   UNL     1       5.858   4.297  16.494  0.00  0.00    +0.000 A 
ATOM      8  C   UNL     1       4.726   3.460  16.513  0.00  0.00    +0.000 A 
ATOM      9  C   UNL     1       4.063   3.190  17.718  0.00  0.00    +0.000 A 
ATOM     10  C   UNL     1       4.514   3.751  18.919  0.00  0.00    +0.000 A 
BRANCH   7  11
ATOM     11  C   UNL     1       6.565   4.629  15.235  0.00  0.00    +0.000 A 
ATOM     12  N   UNL     1       6.352   4.006  14.060  0.00  0.00    +0.000 NA
ATOM     13  N   UNL     1       7.181   4.577  13.200  0.00  0.00    +0.000 NA
ATOM     14  N   UNL     1       7.884   5.517  13.815  0.00  0.00    +0.000 NA
ATOM     15  N   UNL     1       7.516   5.567  15.083  0.00  0.00    +0.000 N 
ATOM     16  H   UNL     1       7.914   6.219  15.793  0.00  0.00    +0.000 HD
ENDBRANCH   7  11
ENDBRANCH   4  10
ENDBRANCH   3   4
ENDBRANCH   2   3
ENDBRANCH   1   2
BRANCH   1  17
ATOM     17  C   UNL     1       2.190   7.503  19.541  0.00  0.00    +0.000 C 
BRANCH  17  18
ATOM     18  C   UNL     1       1.432   7.769  20.838  0.00  0.00    +0.000 C 
BRANCH  18  19
ATOM     19  O   UNL     1       1.643   9.061  21.273  0.00  0.00    +0.000 OA
BRANCH  19  20
ATOM     20  C   UNL     1       0.653   9.901  21.675  0.00  0.00    +0.000 A 
ATOM     21  C   UNL     1       0.317  11.066  20.956  0.00  0.00    +0.000 A 
ATOM     22  C   UNL     1      -0.713  11.895  21.391  0.00  0.00    +0.000 A 
ATOM     23  C   UNL     1      -1.431  11.588  22.558  0.00  0.00    +0.000 A 
ATOM     24  C   UNL     1      -1.088  10.430  23.283  0.00  0.00    +0.000 A 
ATOM     25  C   UNL     1      -0.056   9.597  22.843  0.00  0.00    +0.000 A 
BRANCH  23  26
ATOM     26  C   UNL     1      -2.528  12.482  22.996  0.00  0.00    +0.000 A 
ATOM     27  N   UNL     1      -3.814  12.350  22.616  0.00  0.00    +0.000 NA
ATOM     28  N   UNL     1      -4.465  13.329  23.224  0.00  0.00    +0.000 NA
ATOM     29  N   UNL     1      -3.619  14.043  23.953  0.00  0.00    +0.000 NA
ATOM     30  N   UNL     1      -2.408  13.533  23.826  0.00  0.00    +0.000 N 
ATOM     31  H   UNL     1      -1.553  13.906  24.292  0.00  0.00    +0.000 HD
ENDBRANCH  23  26
ENDBRANCH  19  20
ENDBRANCH  18  19
ENDBRANCH  17  18
ENDBRANCH   1  17
TORSDOF 10
ENDMDL
MODEL 3
REMARK VINA RESULT:      -7.1      2.380      3.129
REMARK  Name = 
REMARK  10 active torsions:
REMARK  status: ('A' for Active; 'I' for Inactive)
REMARK    1  A    between atoms: C_3  and  C_4
REMARK    2  A    between atoms: C_11  and  O_12
REMARK    3  A    between atoms: O_12  and  C_13
REMARK    4  A    between atoms: C_13  and  C_14
REMARK    5  A    between atoms: C_14  and  C_15
REMARK    6  A    between atoms: C_15  and  C_16
REMARK    7  A    between atoms: C_16  and  C_17
REMARK    8  A    between atoms: C_17  and  O_18
REMARK    9  A    between atoms: O_18  and  C_19
REMARK   10  A    between atoms: C_22  and  C_23
REMARK                            x       y       z     vdW  Elec       q    Type
REMARK                         _______ _______ _______ _____ _____    ______ ____
ROOT
ATOM      1  C   UNL     1       2.473   2.390  19.278  0.00  0.00    +0.000 C 
ENDROOT
BRANCH   1   2
ATOM      2  C   UNL     1       3.377   2.880  20.412  0.00  0.00    +0.000 C 
BRANCH   2   3
ATOM      3  C   UNL     1       4.835   2.743  19.980  0.00  0.00    +0.000 C 
BRANCH   3   4
ATOM      4  O   UNL     1       5.344   3.951  19.546  0.00  0.00    +0.000 OA
BRANCH   4  10
ATOM      5  C   UNL     1       5.172   3.515  17.169  0.00  0.00    +0.000 A 
ATOM      6  C   UNL     1       5.612   3.766  15.872  0.00  0.00    +0.000 A 
ATOM      7  C   UNL     1       6.643   4.684  15.633  0.00  0.00    +0.000 A 
ATOM      8  C   UNL     1       7.213   5.365  16.727  0.00  0.00    +0.000 A 
ATOM      9  C   UNL     1       6.764   5.117  18.031  0.00  0.00    +0.000 A 
ATOM     10  C   UNL     1       5.744   4.186  18.266  0.00  0.00    +0.000 A 
BRANCH   7  11
ATOM     11  C   UNL     1       7.114   4.898  14.245  0.00  0.00    +0.000 A 
ATOM     12  N   UNL     1       6.618   4.256  13.170  0.00  0.00    +0.000 NA
ATOM     13  N   UNL     1       7.310   4.709  12.136  0.00  0.00    +0.000 NA
ATOM     14  N   UNL     1       8.202   5.597  12.550  0.00  0.00    +0.000 NA
ATOM     15  N   UNL     1       8.098   5.730  13.861  0.00  0.00    +0.000 N 
ATOM     16  H   UNL     1       8.685   6.364  14.443  0.00  0.00    +0.000 HD
ENDBRANCH   7  11
ENDBRANCH   4  10
ENDBRANCH   3   4
ENDBRANCH   2   3
ENDBRANCH   1   2
BRANCH   1  17
ATOM     17  C   UNL     1       1.331   3.363  18.981  0.00  0.00    +0.000 C 
BRANCH  17  18
ATOM     18  C   UNL     1       1.760   4.318  17.873  0.00  0.00    +0.000 C 
BRANCH  18  19
ATOM     19  O   UNL     1       2.587   5.306  18.369  0.00  0.00    +0.000 OA
BRANCH  19  20
ATOM     20  C   UNL     1       2.147   6.392  19.057  0.00  0.00    +0.000 A 
ATOM     21  C   UNL     1       1.697   6.307  20.391  0.00  0.00    +0.000 A 
ATOM     22  C   UNL     1       1.266   7.444  21.068  0.00  0.00    +0.000 A 
ATOM     23  C   UNL     1       1.268   8.696  20.432  0.00  0.00    +0.000 A 
ATOM     24  C   UNL     1       1.707   8.780  19.096  0.00  0.00    +0.000 A 
ATOM     25  C   UNL     1       2.142   7.638  18.419  0.00  0.00    +0.000 A 
BRANCH  23  26
ATOM     26  C   UNL     1       0.813   9.893  21.176  0.00  0.00    +0.000 A 
ATOM     27  N   UNL     1       1.104  11.162  20.827  0.00  0.00    +0.000 NA
ATOM     28  N   UNL     1       0.512  11.923  21.735  0.00  0.00    +0.000 NA
ATOM     29  N   UNL     1      -0.122  11.160  22.613  0.00  0.00    +0.000 NA
ATOM     30  N   UNL     1       0.052   9.892  22.284  0.00  0.00    +0.000 N 
ATOM     31  H   UNL     1      -0.339   9.083  22.811  0.00  0.00    +0.000 HD
ENDBRANCH  23  26
ENDBRANCH  19  20
ENDBRANCH  18  19
ENDBRANCH  17  18
ENDBRANCH   1  17
TORSDOF 10
ENDMDL
MODEL 4
REMARK VINA RESULT:      -7.1      1.350      1.971
REMARK  Name = 
REMARK  10 active torsions:
REMARK  status: ('A' for Active; 'I' for Inactive)
REMARK    1  A    between atoms: C_3  and  C_4
REMARK    2  A    between atoms: C_11  and  O_12
REMARK    3  A    between atoms: O_12  and  C_13
REMARK    4  A    between atoms: C_13  and  C_14
REMARK    5  A    between atoms: C_14  and  C_15
REMARK    6  A    between atoms: C_15  and  C_16
REMARK    7  A    between atoms: C_16  and  C_17
REMARK    8  A    between atoms: C_17  and  O_18
REMARK    9  A    between atoms: O_18  and  C_19
REMARK   10  A    between atoms: C_22  and  C_23
REMARK                            x       y       z     vdW  Elec       q    Type
REMARK                         _______ _______ _______ _____ _____    ______ ____
ROOT
ATOM      1  C   UNL     1       2.018   3.066  19.249  0.00  0.00    +0.000 C 
ENDROOT
BRANCH   1   2
ATOM      2  C   UNL     1       2.977   2.387  18.267  0.00  0.00    +0.000 C 
BRANCH   2   3
ATOM      3  C   UNL     1       3.346   3.379  17.167  0.00  0.00    +0.000 C 
BRANCH   3   4
ATOM      4  O   UNL     1       4.715   3.452  16.999  0.00  0.00    +0.000 OA
BRANCH   4  10
ATOM      5  C   UNL     1       4.966   5.862  17.037  0.00  0.00    +0.000 A 
ATOM      6  C   UNL     1       5.749   6.979  17.318  0.00  0.00    +0.000 A 
ATOM      7  C   UNL     1       7.043   6.831  17.835  0.00  0.00    +0.000 A 
ATOM      8  C   UNL     1       7.531   5.534  18.086  0.00  0.00    +0.000 A 
ATOM      9  C   UNL     1       6.739   4.411  17.809  0.00  0.00    +0.000 A 
ATOM     10  C   UNL     1       5.452   4.562  17.277  0.00  0.00    +0.000 A 
BRANCH   7  11
ATOM     11  C   UNL     1       7.864   8.038  18.085  0.00  0.00    +0.000 A 
ATOM     12  N   UNL     1       7.870   9.127  17.291  0.00  0.00    +0.000 NA
ATOM     13  N   UNL     1       8.736   9.963  17.844  0.00  0.00    +0.000 NA
ATOM     14  N   UNL     1       9.248   9.417  18.937  0.00  0.00    +0.000 NA
ATOM     15  N   UNL     1       8.719   8.219  19.107  0.00  0.00    +0.000 N 
ATOM     16  H   UNL     1       8.950   7.571  19.891  0.00  0.00    +0.000 HD
ENDBRANCH   7  11
ENDBRANCH   4  10
ENDBRANCH   3   4
ENDBRANCH   2   3
ENDBRANCH   1   2
BRANCH   1  17
ATOM     17  C   UNL     1       2.743   3.642  20.466  0.00  0.00    +0.000 C 
BRANCH  17  18
ATOM     18  C   UNL     1       2.293   5.084  20.681  0.00  0.00    +0.000 C 
BRANCH  18  19
ATOM     19  O   UNL     1       2.511   5.839  19.547  0.00  0.00    +0.000 OA
BRANCH  19  20
ATOM     20  C   UNL     1       2.093   7.123  19.396  0.00  0.00    +0.000 A 
ATOM     21  C   UNL     1       2.123   7.782  18.150  0.00  0.00    +0.000 A 
ATOM     22  C   UNL     1       1.673   9.094  18.030  0.00  0.00    +0.000 A 
ATOM     23  C   UNL     1       1.186   9.786  19.151  0.00  0.00    +0.000 A 
ATOM     24  C   UNL     1       1.165   9.132  20.398  0.00  0.00    +0.000 A 
ATOM     25  C   UNL     1       1.615   7.814  20.516  0.00  0.00    +0.000 A 
BRANCH  23  26
ATOM     26  C   UNL     1       0.705  11.178  18.996  0.00  0.00    +0.000 A 
ATOM     27  N   UNL     1       1.282  12.250  19.575  0.00  0.00    +0.000 NA
ATOM     28  N   UNL     1       0.563  13.291  19.186  0.00  0.00    +0.000 NA
ATOM     29  N   UNL     1      -0.422  12.885  18.398  0.00  0.00    +0.000 NA
ATOM     30  N   UNL     1      -0.352  11.573  18.266  0.00  0.00    +0.000 N 
ATOM     31  H   UNL     1      -1.010  10.996  17.701  0.00  0.00    +0.000 HD
ENDBRANCH  23  26
ENDBRANCH  19  20
ENDBRANCH  18  19
ENDBRANCH  17  18
ENDBRANCH   1  17
TORSDOF 10
ENDMDL
MODEL 5
REMARK VINA RESULT:      -6.9      3.661      9.490
REMARK  Name = 
REMARK  10 active torsions:
REMARK  status: ('A' for Active; 'I' for Inactive)
REMARK    1  A    between atoms: C_3  and  C_4
REMARK    2  A    between atoms: C_11  and  O_12
REMARK    3  A    between atoms: O_12  and  C_13
REMARK    4  A    between atoms: C_13  and  C_14
REMARK    5  A    between atoms: C_14  and  C_15
REMARK    6  A    between atoms: C_15  and  C_16
REMARK    7  A    between atoms: C_16  and  C_17
REMARK    8  A    between atoms: C_17  and  O_18
REMARK    9  A    between atoms: O_18  and  C_19
REMARK   10  A    between atoms: C_22  and  C_23
REMARK                            x       y       z     vdW  Elec       q    Type
REMARK                         _______ _______ _______ _____ _____    ______ ____
ROOT
ATOM      1  C   UNL     1       0.436   8.323  21.211  0.00  0.00    +0.000 C 
ENDROOT
BRANCH   1   2
ATOM      2  C   UNL     1       1.238   9.560  21.625  0.00  0.00    +0.000 C 
BRANCH   2   3
ATOM      3  C   UNL     1       0.727  10.767  20.845  0.00  0.00    +0.000 C 
BRANCH   3   4
ATOM      4  O   UNL     1       0.172  10.386  19.639  0.00  0.00    +0.000 OA
BRANCH   4  10
ATOM      5  C   UNL     1      -1.768  11.824  19.836  0.00  0.00    +0.000 A 
ATOM      6  C   UNL     1      -3.039  12.185  19.396  0.00  0.00    +0.000 A 
ATOM      7  C   UNL     1      -3.649  11.498  18.338  0.00  0.00    +0.000 A 
ATOM      8  C   UNL     1      -2.947  10.449  17.713  0.00  0.00    +0.000 A 
ATOM      9  C   UNL     1      -1.665  10.092  18.153  0.00  0.00    +0.000 A 
ATOM     10  C   UNL     1      -1.065  10.770  19.221  0.00  0.00    +0.000 A 
BRANCH   7  11
ATOM     11  C   UNL     1      -5.018  11.882  17.921  0.00  0.00    +0.000 A 
ATOM     12  N   UNL     1      -6.142  11.310  18.394  0.00  0.00    +0.000 NA
ATOM     13  N   UNL     1      -7.138  11.915  17.767  0.00  0.00    +0.000 NA
ATOM     14  N   UNL     1      -6.655  12.827  16.935  0.00  0.00    +0.000 NA
ATOM     15  N   UNL     1      -5.336  12.823  17.015  0.00  0.00    +0.000 N 
ATOM     16  H   UNL     1      -4.705  13.443  16.463  0.00  0.00    +0.000 HD
ENDBRANCH   7  11
ENDBRANCH   4  10
ENDBRANCH   3   4
ENDBRANCH   2   3
ENDBRANCH   1   2
BRANCH   1  17
ATOM     17  C   UNL     1       1.314   7.078  21.074  0.00  0.00    +0.000 C 
BRANCH  17  18
ATOM     18  C   UNL     1       2.132   7.179  19.791  0.00  0.00    +0.000 C 
BRANCH  18  19
ATOM     19  O   UNL     1       2.872   6.032  19.589  0.00  0.00    +0.000 OA
BRANCH  19  20
ATOM     20  C   UNL     1       3.635   5.802  18.489  0.00  0.00    +0.000 A 
ATOM     21  C   UNL     1       4.074   6.844  17.646  0.00  0.00    +0.000 A 
ATOM     22  C   UNL     1       4.866   6.570  16.535  0.00  0.00    +0.000 A 
ATOM     23  C   UNL     1       5.238   5.251  16.231  0.00  0.00    +0.000 A 
ATOM     24  C   UNL     1       4.791   4.209  17.066  0.00  0.00    +0.000 A 
ATOM     25  C   UNL     1       3.998   4.485  18.184  0.00  0.00    +0.000 A 
BRANCH  23  26
ATOM     26  C   UNL     1       6.088   4.987  15.047  0.00  0.00    +0.000 A 
ATOM     27  N   UNL     1       7.278   5.578  14.819  0.00  0.00    +0.000 NA
ATOM     28  N   UNL     1       7.711   5.071  13.675  0.00  0.00    +0.000 NA
ATOM     29  N   UNL     1       6.827   4.200  13.210  0.00  0.00    +0.000 NA
ATOM     30  N   UNL     1       5.810   4.132  14.049  0.00  0.00    +0.000 N 
ATOM     31  H   UNL     1       4.973   3.524  13.920  0.00  0.00    +0.000 HD
ENDBRANCH  23  26
ENDBRANCH  19  20
ENDBRANCH  18  19
ENDBRANCH  17  18
ENDBRANCH   1  17
TORSDOF 10
ENDMDL
MODEL 6
REMARK VINA RESULT:      -6.9      1.169      1.665
REMARK  Name = 
REMARK  10 active torsions:
REMARK  status: ('A' for Active; 'I' for Inactive)
REMARK    1  A    between atoms: C_3  and  C_4
REMARK    2  A    between atoms: C_11  and  O_12
REMARK    3  A    between atoms: O_12  and  C_13
REMARK    4  A    between atoms: C_13  and  C_14
REMARK    5  A    between atoms: C_14  and  C_15
REMARK    6  A    between atoms: C_15  and  C_16
REMARK    7  A    between atoms: C_16  and  C_17
REMARK    8  A    between atoms: C_17  and  O_18
REMARK    9  A    between atoms: O_18  and  C_19
REMARK   10  A    between atoms: C_22  and  C_23
REMARK                            x       y       z     vdW  Elec       q    Type
REMARK                         _______ _______ _______ _____ _____    ______ ____
ROOT
ATOM      1  C   UNL     1       1.266   2.804  20.508  0.00  0.00    +0.000 C 
ENDROOT
BRANCH   1   2
ATOM      2  C   UNL     1       2.233   2.199  19.486  0.00  0.00    +0.000 C 
BRANCH   2   3
ATOM      3  C   UNL     1       1.758   2.556  18.080  0.00  0.00    +0.000 C 
BRANCH   3   4
ATOM      4  O   UNL     1       2.821   2.663  17.205  0.00  0.00    +0.000 OA
BRANCH   4  10
ATOM      5  C   UNL     1       5.095   3.421  16.854  0.00  0.00    +0.000 A 
ATOM      6  C   UNL     1       6.050   4.429  16.961  0.00  0.00    +0.000 A 
ATOM      7  C   UNL     1       5.715   5.673  17.511  0.00  0.00    +0.000 A 
ATOM      8  C   UNL     1       4.390   5.894  17.935  0.00  0.00    +0.000 A 
ATOM      9  C   UNL     1       3.428   4.882  17.820  0.00  0.00    +0.000 A 
ATOM     10  C   UNL     1       3.771   3.634  17.284  0.00  0.00    +0.000 A 
BRANCH   7  11
ATOM     11  C   UNL     1       6.764   6.710  17.647  0.00  0.00    +0.000 A 
ATOM     12  N   UNL     1       7.693   6.722  18.623  0.00  0.00    +0.000 NA
ATOM     13  N   UNL     1       8.421   7.806  18.404  0.00  0.00    +0.000 NA
ATOM     14  N   UNL     1       7.964   8.444  17.336  0.00  0.00    +0.000 NA
ATOM     15  N   UNL     1       6.932   7.778  16.849  0.00  0.00    +0.000 N 
ATOM     16  H   UNL     1       6.383   8.063  16.010  0.00  0.00    +0.000 HD
ENDBRANCH   7  11
ENDBRANCH   4  10
ENDBRANCH   3   4
ENDBRANCH   2   3
ENDBRANCH   1   2
BRANCH   1  17
ATOM     17  C   UNL     1       1.849   4.034  21.205  0.00  0.00    +0.000 C 
BRANCH  17  18
ATOM     18  C   UNL     1       1.515   5.278  20.389  0.00  0.00    +0.000 C 
BRANCH  18  19
ATOM     19  O   UNL     1       1.763   6.423  21.118  0.00  0.00    +0.000 OA
BRANCH  19  20
ATOM     20  C   UNL     1       1.443   7.676  20.700  0.00  0.00    +0.000 A 
ATOM     21  C   UNL     1       0.860   8.630  21.559  0.00  0.00    +0.000 A 
ATOM     22  C   UNL     1       0.558   9.908  21.099  0.00  0.00    +0.000 A 
ATOM     23  C   UNL     1       0.825  10.269  19.768  0.00  0.00    +0.000 A 
ATOM     24  C   UNL     1       1.398   9.313  18.906  0.00  0.00    +0.000 A 
ATOM     25  C   UNL     1       1.703   8.031  19.371  0.00  0.00    +0.000 A 
BRANCH  23  26
ATOM     26  C   UNL     1       0.503  11.638  19.305  0.00  0.00    +0.000 A 
ATOM     27  N   UNL     1       0.962  12.765  19.884  0.00  0.00    +0.000 NA
ATOM     28  N   UNL     1       0.455  13.760  19.174  0.00  0.00    +0.000 NA
ATOM     29  N   UNL     1      -0.292  13.274  18.192  0.00  0.00    +0.000 NA
ATOM     30  N   UNL     1      -0.275  11.955  18.255  0.00  0.00    +0.000 N 
ATOM     31  H   UNL     1      -0.783  11.322  17.601  0.00  0.00    +0.000 HD
ENDBRANCH  23  26
ENDBRANCH  19  20
ENDBRANCH  18  19
ENDBRANCH  17  18
ENDBRANCH   1  17
TORSDOF 10
ENDMDL
MODEL 7
REMARK VINA RESULT:      -6.9      2.863      7.351
REMARK  Name = 
REMARK  10 active torsions:
REMARK  status: ('A' for Active; 'I' for Inactive)
REMARK    1  A    between atoms: C_3  and  C_4
REMARK    2  A    between atoms: C_11  and  O_12
REMARK    3  A    between atoms: O_12  and  C_13
REMARK    4  A    between atoms: C_13  and  C_14
REMARK    5  A    between atoms: C_14  and  C_15
REMARK    6  A    between atoms: C_15  and  C_16
REMARK    7  A    between atoms: C_16  and  C_17
REMARK    8  A    between atoms: C_17  and  O_18
REMARK    9  A    between atoms: O_18  and  C_19
REMARK   10  A    between atoms: C_22  and  C_23
REMARK                            x       y       z     vdW  Elec       q    Type
REMARK                         _______ _______ _______ _____ _____    ______ ____
ROOT
ATOM      1  C   UNL     1       4.572   3.755  17.106  0.00  0.00    +0.000 C 
ENDROOT
BRANCH   1   2
ATOM      2  C   UNL     1       3.298   4.598  17.215  0.00  0.00    +0.000 C 
BRANCH   2   3
ATOM      3  C   UNL     1       3.498   5.664  18.287  0.00  0.00    +0.000 C 
BRANCH   3   4
ATOM      4  O   UNL     1       2.824   6.827  17.969  0.00  0.00    +0.000 OA
BRANCH   4  10
ATOM      5  C   UNL     1       1.976   7.194  20.209  0.00  0.00    +0.000 A 
ATOM      6  C   UNL     1       1.337   8.026  21.125  0.00  0.00    +0.000 A 
ATOM      7  C   UNL     1       0.910   9.307  20.749  0.00  0.00    +0.000 A 
ATOM      8  C   UNL     1       1.155   9.745  19.433  0.00  0.00    +0.000 A 
ATOM      9  C   UNL     1       1.804   8.909  18.514  0.00  0.00    +0.000 A 
ATOM     10  C   UNL     1       2.216   7.624  18.890  0.00  0.00    +0.000 A 
BRANCH   7  11
ATOM     11  C   UNL     1       0.199  10.151  21.736  0.00  0.00    +0.000 A 
ATOM     12  N   UNL     1       0.308  11.492  21.803  0.00  0.00    +0.000 NA
ATOM     13  N   UNL     1      -0.460  11.859  22.817  0.00  0.00    +0.000 NA
ATOM     14  N   UNL     1      -1.024  10.791  23.361  0.00  0.00    +0.000 NA
ATOM     15  N   UNL     1      -0.627   9.715  22.703  0.00  0.00    +0.000 N 
ATOM     16  H   UNL     1      -0.919   8.740  22.926  0.00  0.00    +0.000 HD
ENDBRANCH   7  11
ENDBRANCH   4  10
ENDBRANCH   3   4
ENDBRANCH   2   3
ENDBRANCH   1   2
BRANCH   1  17
ATOM     17  C   UNL     1       5.268   3.923  15.755  0.00  0.00    +0.000 C 
BRANCH  17  18
ATOM     18  C   UNL     1       6.721   4.325  15.986  0.00  0.00    +0.000 C 
BRANCH  18  19
ATOM     19  O   UNL     1       6.931   4.663  17.308  0.00  0.00    +0.000 OA
BRANCH  19  20
ATOM     20  C   UNL     1       7.403   5.869  17.719  0.00  0.00    +0.000 A 
ATOM     21  C   UNL     1       8.119   6.025  18.924  0.00  0.00    +0.000 A 
ATOM     22  C   UNL     1       8.599   7.275  19.306  0.00  0.00    +0.000 A 
ATOM     23  C   UNL     1       8.374   8.403  18.500  0.00  0.00    +0.000 A 
ATOM     24  C   UNL     1       7.650   8.249  17.302  0.00  0.00    +0.000 A 
ATOM     25  C   UNL     1       7.171   6.993  16.918  0.00  0.00    +0.000 A 
BRANCH  23  26
ATOM     26  C   UNL     1       8.902   9.719  18.925  0.00  0.00    +0.000 A 
ATOM     27  N   UNL     1       9.309  10.685  18.076  0.00  0.00    +0.000 NA
ATOM     28  N   UNL     1       9.698  11.690  18.845  0.00  0.00    +0.000 NA
ATOM     29  N   UNL     1       9.540  11.365  20.120  0.00  0.00    +0.000 NA
ATOM     30  N   UNL     1       9.046  10.142  20.193  0.00  0.00    +0.000 N 
ATOM     31  H   UNL     1       8.828   9.640  21.080  0.00  0.00    +0.000 HD
ENDBRANCH  23  26
ENDBRANCH  19  20
ENDBRANCH  18  19
ENDBRANCH  17  18
ENDBRANCH   1  17
TORSDOF 10
ENDMDL
MODEL 8
REMARK VINA RESULT:      -6.8      2.863      3.705
REMARK  Name = 
REMARK  10 active torsions:
REMARK  status: ('A' for Active; 'I' for Inactive)
REMARK    1  A    between atoms: C_3  and  C_4
REMARK    2  A    between atoms: C_11  and  O_12
REMARK    3  A    between atoms: O_12  and  C_13
REMARK    4  A    between atoms: C_13  and  C_14
REMARK    5  A    between atoms: C_14  and  C_15
REMARK    6  A    between atoms: C_15  and  C_16
REMARK    7  A    between atoms: C_16  and  C_17
REMARK    8  A    between atoms: C_17  and  O_18
REMARK    9  A    between atoms: O_18  and  C_19
REMARK   10  A    between atoms: C_22  and  C_23
REMARK                            x       y       z     vdW  Elec       q    Type
REMARK                         _______ _______ _______ _____ _____    ______ ____
ROOT
ATOM      1  C   UNL     1       1.860   5.246  20.322  0.00  0.00    +0.000 C 
ENDROOT
BRANCH   1   2
ATOM      2  C   UNL     1       1.203   3.904  20.653  0.00  0.00    +0.000 C 
BRANCH   2   3
ATOM      3  C   UNL     1       2.091   2.775  20.136  0.00  0.00    +0.000 C 
BRANCH   3   4
ATOM      4  O   UNL     1       3.423   3.139  20.153  0.00  0.00    +0.000 OA
BRANCH   4  10
ATOM      5  C   UNL     1       3.670   3.202  17.743  0.00  0.00    +0.000 A 
ATOM      6  C   UNL     1       4.413   3.576  16.627  0.00  0.00    +0.000 A 
ATOM      7  C   UNL     1       5.631   4.252  16.774  0.00  0.00    +0.000 A 
ATOM      8  C   UNL     1       6.083   4.565  18.071  0.00  0.00    +0.000 A 
ATOM      9  C   UNL     1       5.330   4.194  19.194  0.00  0.00    +0.000 A 
ATOM     10  C   UNL     1       4.120   3.504  19.043  0.00  0.00    +0.000 A 
BRANCH   7  11
ATOM     11  C   UNL     1       6.415   4.600  15.567  0.00  0.00    +0.000 A 
ATOM     12  N   UNL     1       6.280   3.988  14.374  0.00  0.00    +0.000 NA
ATOM     13  N   UNL     1       7.161   4.571  13.575  0.00  0.00    +0.000 NA
ATOM     14  N   UNL     1       7.819   5.508  14.243  0.00  0.00    +0.000 NA
ATOM     15  N   UNL     1       7.370   5.543  15.486  0.00  0.00    +0.000 N 
ATOM     16  H   UNL     1       7.719   6.189  16.226  0.00  0.00    +0.000 HD
ENDBRANCH   7  11
ENDBRANCH   4  10
ENDBRANCH   3   4
ENDBRANCH   2   3
ENDBRANCH   1   2
BRANCH   1  17
ATOM     17  C   UNL     1       0.912   6.428  20.534  0.00  0.00    +0.000 C 
BRANCH  17  18
ATOM     18  C   UNL     1       1.731   7.704  20.699  0.00  0.00    +0.000 C 
BRANCH  18  19
ATOM     19  O   UNL     1       1.413   8.342  21.880  0.00  0.00    +0.000 OA
BRANCH  19  20
ATOM     20  C   UNL     1       0.526   9.366  21.978  0.00  0.00    +0.000 A 
ATOM     21  C   UNL     1      -0.167   9.650  23.172  0.00  0.00    +0.000 A 
ATOM     22  C   UNL     1      -1.058  10.717  23.238  0.00  0.00    +0.000 A 
ATOM     23  C   UNL     1      -1.286  11.527  22.114  0.00  0.00    +0.000 A 
ATOM     24  C   UNL     1      -0.602  11.238  20.918  0.00  0.00    +0.000 A 
ATOM     25  C   UNL     1       0.295  10.168  20.854  0.00  0.00    +0.000 A 
BRANCH  23  26
ATOM     26  C   UNL     1      -2.233  12.661  22.212  0.00  0.00    +0.000 A 
ATOM     27  N   UNL     1      -3.549  12.580  21.929  0.00  0.00    +0.000 NA
ATOM     28  N   UNL     1      -4.033  13.793  22.146  0.00  0.00    +0.000 NA
ATOM     29  N   UNL     1      -3.059  14.598  22.548  0.00  0.00    +0.000 NA
ATOM     30  N   UNL     1      -1.930  13.913  22.596  0.00  0.00    +0.000 N 
ATOM     31  H   UNL     1      -1.008  14.307  22.878  0.00  0.00    +0.000 HD
ENDBRANCH  23  26
ENDBRANCH  19  20
ENDBRANCH  18  19
ENDBRANCH  17  18
ENDBRANCH   1  17
TORSDOF 10
ENDMDL
MODEL 9
REMARK VINA RESULT:      -6.8      1.807      7.834
REMARK  Name = 
REMARK  10 active torsions:
REMARK  status: ('A' for Active; 'I' for Inactive)
REMARK    1  A    between atoms: C_3  and  C_4
REMARK    2  A    between atoms: C_11  and  O_12
REMARK    3  A    between atoms: O_12  and  C_13
REMARK    4  A    between atoms: C_13  and  C_14
REMARK    5  A    between atoms: C_14  and  C_15
REMARK    6  A    between atoms: C_15  and  C_16
REMARK    7  A    between atoms: C_16  and  C_17
REMARK    8  A    between atoms: C_17  and  O_18
REMARK    9  A    between atoms: O_18  and  C_19
REMARK   10  A    between atoms: C_22  and  C_23
REMARK                            x       y       z     vdW  Elec       q    Type
REMARK                         _______ _______ _______ _____ _____    ______ ____
ROOT
ATOM      1  C   UNL     1       1.347   4.943  20.520  0.00  0.00    +0.000 C 
ENDROOT
BRANCH   1   2
ATOM      2  C   UNL     1       2.086   6.283  20.458  0.00  0.00    +0.000 C 
BRANCH   2   3
ATOM      3  C   UNL     1       2.377   6.623  18.999  0.00  0.00    +0.000 C 
BRANCH   3   4
ATOM      4  O   UNL     1       2.487   7.987  18.815  0.00  0.00    +0.000 OA
BRANCH   4  10
ATOM      5  C   UNL     1       1.122   9.176  20.425  0.00  0.00    +0.000 A 
ATOM      6  C   UNL     1       0.089  10.073  20.687  0.00  0.00    +0.000 A 
ATOM      7  C   UNL     1      -0.611  10.682  19.637  0.00  0.00    +0.000 A 
ATOM      8  C   UNL     1      -0.239  10.387  18.311  0.00  0.00    +0.000 A 
ATOM      9  C   UNL     1       0.805   9.489  18.049  0.00  0.00    +0.000 A 
ATOM     10  C   UNL     1       1.492   8.870  19.101  0.00  0.00    +0.000 A 
BRANCH   7  11
ATOM     11  C   UNL     1      -1.729  11.601  19.951  0.00  0.00    +0.000 A 
ATOM     12  N   UNL     1      -1.835  12.301  21.098  0.00  0.00    +0.000 NA
ATOM     13  N   UNL     1      -2.968  12.978  20.996  0.00  0.00    +0.000 NA
ATOM     14  N   UNL     1      -3.546  12.710  19.834  0.00  0.00    +0.000 NA
ATOM     15  N   UNL     1      -2.791  11.855  19.167  0.00  0.00    +0.000 N 
ATOM     16  H   UNL     1      -3.015  11.474  18.222  0.00  0.00    +0.000 HD
ENDBRANCH   7  11
ENDBRANCH   4  10
ENDBRANCH   3   4
ENDBRANCH   2   3
ENDBRANCH   1   2
BRANCH   1  17
ATOM     17  C   UNL     1       2.142   3.872  21.268  0.00  0.00    +0.000 C 
BRANCH  17  18
ATOM     18  C   UNL     1       1.588   2.497  20.914  0.00  0.00    +0.000 C 
BRANCH  18  19
ATOM     19  O   UNL     1       2.061   2.079  19.687  0.00  0.00    +0.000 OA
BRANCH  19  20
ATOM     20  C   UNL     1       3.005   2.743  18.968  0.00  0.00    +0.000 A 
ATOM     21  C   UNL     1       2.797   3.128  17.628  0.00  0.00    +0.000 A 
ATOM     22  C   UNL     1       3.782   3.819  16.929  0.00  0.00    +0.000 A 
ATOM     23  C   UNL     1       5.003   4.140  17.544  0.00  0.00    +0.000 A 
ATOM     24  C   UNL     1       5.215   3.746  18.880  0.00  0.00    +0.000 A 
ATOM     25  C   UNL     1       4.224   3.055  19.582  0.00  0.00    +0.000 A 
BRANCH  23  26
ATOM     26  C   UNL     1       6.032   4.883  16.782  0.00  0.00    +0.000 A 
ATOM     27  N   UNL     1       6.652   5.995  17.225  0.00  0.00    +0.000 NA
ATOM     28  N   UNL     1       7.492   6.339  16.261  0.00  0.00    +0.000 NA
ATOM     29  N   UNL     1       7.398   5.479  15.258  0.00  0.00    +0.000 NA
ATOM     30  N   UNL     1       6.496   4.563  15.561  0.00  0.00    +0.000 N 
ATOM     31  H   UNL     1       6.224   3.769  14.944  0.00  0.00    +0.000 HD
ENDBRANCH  23  26
ENDBRANCH  19  20
ENDBRANCH  18  19
ENDBRANCH  17  18
ENDBRANCH   1  17
TORSDOF 10
ENDMDL
