MODEL 1
REMARK VINA RESULT:      -7.3      0.000      0.000
REMARK  Name = 
REMARK  6 active torsions:
REMARK  status: ('A' for Active; 'I' for Inactive)
REMARK    1  A    between atoms: C_2  and  C_16
REMARK    2  A    between atoms: N_3  and  C_4
REMARK    3  A    between atoms: C_4  and  C_5
REMARK    4  A    between atoms: C_5  and  C_6
REMARK    5  A    between atoms: C_6  and  C_7
REMARK    6  A    between atoms: C_21  and  C_23
REMARK                            x       y       z     vdW  Elec       q    Type
REMARK                         _______ _______ _______ _____ _____    ______ ____
ROOT
ATOM      1  O   UNL     1       1.585   6.052  17.974  0.00  0.00    +0.000 OA
ATOM      2  C   UNL     1       2.484   6.731  18.458  0.00  0.00    +0.000 C 
ATOM      3  N   UNL     1       3.809   6.682  18.038  0.00  0.00    +0.000 N 
ATOM      4  H   UNL     1       4.389   7.479  18.267  0.00  0.00    +0.000 HD
ENDROOT
BRANCH   2   5
ATOM      5  C   UNL     1       2.261   7.722  19.622  0.00  0.00    +0.000 C 
ATOM      6  C   UNL     1       1.602   7.002  20.804  0.00  0.00    +0.000 C 
ATOM      7  C   UNL     1       1.100   8.144  21.674  0.00  0.00    +0.000 C 
ATOM      8  C   UNL     1       0.748   9.240  20.680  0.00  0.00    +0.000 C 
ATOM      9  N   UNL     1       1.363   8.856  19.415  0.00  0.00    +0.000 N 
ATOM     10  C   UNL     1       1.528   9.696  18.316  0.00  0.00    +0.000 C 
ATOM     11  O   UNL     1       2.211   9.358  17.347  0.00  0.00    +0.000 OA
BRANCH  10  12
ATOM     12  C   UNL     1       0.967  11.095  18.337  0.00  0.00    +0.000 A 
ATOM     13  C   UNL     1       1.852  12.144  18.564  0.00  0.00    +0.000 A 
ATOM     14  C   UNL     1       1.333  13.408  18.829  0.00  0.00    +0.000 A 
ATOM     15  C   UNL     1      -0.046  13.591  18.835  0.00  0.00    +0.000 A 
ATOM     16  C   UNL     1      -0.853  12.509  18.539  0.00  0.00    +0.000 A 
ATOM     17  N   UNL     1      -0.379  11.271  18.287  0.00  0.00    +0.000 NA
ENDBRANCH  10  12
ENDBRANCH   2   5
BRANCH   3  18
ATOM     18  C   UNL     1       4.274   5.814  16.968  0.00  0.00    +0.000 C 
BRANCH  18  19
ATOM     19  C   UNL     1       5.354   4.879  17.548  0.00  0.00    +0.000 C 
ATOM     20  C   UNL     1       6.810   5.038  16.963  0.00  0.00    +0.000 C 
ATOM     21  C   UNL     1       7.357   5.045  18.397  0.00  0.00    +0.000 C 
ATOM     22  C   UNL     1       5.968   5.493  18.867  0.00  0.00    +0.000 C 
BRANCH  19  23
ATOM     23  C   UNL     1       4.895   3.401  17.665  0.00  0.00    +0.000 C 
BRANCH  23  24
ATOM     24  C   UNL     1       3.580   3.207  18.404  0.00  0.00    +0.000 A 
ATOM     25  C   UNL     1       2.399   2.776  17.793  0.00  0.00    +0.000 A 
ATOM     26  C   UNL     1       1.210   2.638  18.510  0.00  0.00    +0.000 A 
ATOM     27  C   UNL     1       1.185   2.911  19.868  0.00  0.00    +0.000 A 
ATOM     28  C   UNL     1       2.357   3.306  20.506  0.00  0.00    +0.000 A 
ATOM     29  C   UNL     1       3.549   3.450  19.790  0.00  0.00    +0.000 A 
ENDBRANCH  23  24
ENDBRANCH  19  23
ENDBRANCH  18  19
ENDBRANCH   3  18
TORSDOF 6
ENDMDL
MODEL 2
REMARK VINA RESULT:      -7.2      2.232      3.999
REMARK  Name = 
REMARK  6 active torsions:
REMARK  status: ('A' for Active; 'I' for Inactive)
REMARK    1  A    between atoms: C_2  and  C_16
REMARK    2  A    between atoms: N_3  and  C_4
REMARK    3  A    between atoms: C_4  and  C_5
REMARK    4  A    between atoms: C_5  and  C_6
REMARK    5  A    between atoms: C_6  and  C_7
REMARK    6  A    between atoms: C_21  and  C_23
REMARK                            x       y       z     vdW  Elec       q    Type
REMARK                         _______ _______ _______ _____ _____    ______ ____
ROOT
ATOM      1  O   UNL     1       1.046   9.955  20.893  0.00  0.00    +0.000 OA
ATOM      2  C   UNL     1       1.190   9.967  19.676  0.00  0.00    +0.000 C 
ATOM      3  N   UNL     1       1.695   8.900  18.940  0.00  0.00    +0.000 N 
ATOM      4  H   UNL     1       1.481   8.888  17.951  0.00  0.00    +0.000 HD
ENDROOT
BRANCH   2   5
ATOM      5  C   UNL     1       0.845  11.190  18.798  0.00  0.00    +0.000 C 
ATOM      6  C   UNL     1       1.670  12.404  19.241  0.00  0.00    +0.000 C 
ATOM      7  C   UNL     1       0.957  13.574  18.582  0.00  0.00    +0.000 C 
ATOM      8  C   UNL     1      -0.504  13.149  18.555  0.00  0.00    +0.000 C 
ATOM      9  N   UNL     1      -0.517  11.718  18.833  0.00  0.00    +0.000 N 
ATOM     10  C   UNL     1      -1.607  10.872  18.633  0.00  0.00    +0.000 C 
ATOM     11  O   UNL     1      -1.494   9.648  18.724  0.00  0.00    +0.000 OA
BRANCH  10  12
ATOM     12  C   UNL     1      -2.933  11.433  18.186  0.00  0.00    +0.000 A 
ATOM     13  C   UNL     1      -3.777  11.953  19.162  0.00  0.00    +0.000 A 
ATOM     14  C   UNL     1      -5.092  12.250  18.815  0.00  0.00    +0.000 A 
ATOM     15  C   UNL     1      -5.515  12.043  17.507  0.00  0.00    +0.000 A 
ATOM     16  C   UNL     1      -4.595  11.580  16.585  0.00  0.00    +0.000 A 
ATOM     17  N   UNL     1      -3.317  11.275  16.893  0.00  0.00    +0.000 NA
ENDBRANCH  10  12
ENDBRANCH   2   5
BRANCH   3  18
ATOM     18  C   UNL     1       2.107   7.642  19.541  0.00  0.00    +0.000 C 
BRANCH  18  19
ATOM     19  C   UNL     1       2.738   6.771  18.437  0.00  0.00    +0.000 C 
ATOM     20  C   UNL     1       3.671   7.512  17.403  0.00  0.00    +0.000 C 
ATOM     21  C   UNL     1       4.716   6.404  17.592  0.00  0.00    +0.000 C 
ATOM     22  C   UNL     1       4.074   6.104  18.952  0.00  0.00    +0.000 C 
BRANCH  19  23
ATOM     23  C   UNL     1       1.733   5.794  17.769  0.00  0.00    +0.000 C 
BRANCH  23  24
ATOM     24  C   UNL     1       1.751   4.386  18.341  0.00  0.00    +0.000 A 
ATOM     25  C   UNL     1       1.203   4.040  19.581  0.00  0.00    +0.000 A 
ATOM     26  C   UNL     1       1.267   2.737  20.073  0.00  0.00    +0.000 A 
ATOM     27  C   UNL     1       1.867   1.741  19.321  0.00  0.00    +0.000 A 
ATOM     28  C   UNL     1       2.387   2.052  18.068  0.00  0.00    +0.000 A 
ATOM     29  C   UNL     1       2.329   3.358  17.573  0.00  0.00    +0.000 A 
ENDBRANCH  23  24
ENDBRANCH  19  23
ENDBRANCH  18  19
ENDBRANCH   3  18
TORSDOF 6
ENDMDL
MODEL 3
REMARK VINA RESULT:      -7.1      2.490      4.661
REMARK  Name = 
REMARK  6 active torsions:
REMARK  status: ('A' for Active; 'I' for Inactive)
REMARK    1  A    between atoms: C_2  and  C_16
REMARK    2  A    between atoms: N_3  and  C_4
REMARK    3  A    between atoms: C_4  and  C_5
REMARK    4  A    between atoms: C_5  and  C_6
REMARK    5  A    between atoms: C_6  and  C_7
REMARK    6  A    between atoms: C_21  and  C_23
REMARK                            x       y       z     vdW  Elec       q    Type
REMARK                         _______ _______ _______ _____ _____    ______ ____
ROOT
ATOM      1  O   UNL     1       2.100  10.347  17.828  0.00  0.00    +0.000 OA
ATOM      2  C   UNL     1       1.372   9.467  18.272  0.00  0.00    +0.000 C 
ATOM      3  N   UNL     1       1.766   8.144  18.446  0.00  0.00    +0.000 N 
ATOM      4  H   UNL     1       1.222   7.588  19.094  0.00  0.00    +0.000 HD
ENDROOT
BRANCH   2   5
ATOM      5  C   UNL     1      -0.098   9.711  18.679  0.00  0.00    +0.000 C 
ATOM      6  C   UNL     1      -0.946   9.998  17.434  0.00  0.00    +0.000 C 
ATOM      7  C   UNL     1      -2.223  10.592  18.008  0.00  0.00    +0.000 C 
ATOM      8  C   UNL     1      -1.760  11.331  19.256  0.00  0.00    +0.000 C 
ATOM      9  N   UNL     1      -0.409  10.857  19.531  0.00  0.00    +0.000 N 
ATOM     10  C   UNL     1       0.284  11.058  20.724  0.00  0.00    +0.000 C 
ATOM     11  O   UNL     1       1.350  10.482  20.951  0.00  0.00    +0.000 OA
BRANCH  10  12
ATOM     12  C   UNL     1      -0.317  11.901  21.820  0.00  0.00    +0.000 A 
ATOM     13  C   UNL     1      -1.371  11.359  22.549  0.00  0.00    +0.000 A 
ATOM     14  C   UNL     1      -2.097  12.195  23.391  0.00  0.00    +0.000 A 
ATOM     15  C   UNL     1      -1.737  13.534  23.498  0.00  0.00    +0.000 A 
ATOM     16  C   UNL     1      -0.639  13.978  22.786  0.00  0.00    +0.000 A 
ATOM     17  N   UNL     1       0.078  13.194  21.955  0.00  0.00    +0.000 NA
ENDBRANCH  10  12
ENDBRANCH   2   5
BRANCH   3  18
ATOM     18  C   UNL     1       3.098   7.661  18.120  0.00  0.00    +0.000 C 
BRANCH  18  19
ATOM     19  C   UNL     1       3.097   6.126  18.269  0.00  0.00    +0.000 C 
ATOM     20  C   UNL     1       2.873   5.561  19.724  0.00  0.00    +0.000 C 
ATOM     21  C   UNL     1       1.836   4.583  19.156  0.00  0.00    +0.000 C 
ATOM     22  C   UNL     1       1.661   5.541  17.971  0.00  0.00    +0.000 C 
BRANCH  19  23
ATOM     23  C   UNL     1       4.259   5.430  17.510  0.00  0.00    +0.000 C 
BRANCH  23  24
ATOM     24  C   UNL     1       5.647   5.903  17.915  0.00  0.00    +0.000 A 
ATOM     25  C   UNL     1       6.381   5.354  18.970  0.00  0.00    +0.000 A 
ATOM     26  C   UNL     1       7.641   5.840  19.318  0.00  0.00    +0.000 A 
ATOM     27  C   UNL     1       8.205   6.882  18.600  0.00  0.00    +0.000 A 
ATOM     28  C   UNL     1       7.509   7.421  17.521  0.00  0.00    +0.000 A 
ATOM     29  C   UNL     1       6.244   6.939  17.172  0.00  0.00    +0.000 A 
ENDBRANCH  23  24
ENDBRANCH  19  23
ENDBRANCH  18  19
ENDBRANCH   3  18
TORSDOF 6
ENDMDL
MODEL 4
REMARK VINA RESULT:      -7.0      0.954      3.232
REMARK  Name = 
REMARK  6 active torsions:
REMARK  status: ('A' for Active; 'I' for Inactive)
REMARK    1  A    between atoms: C_2  and  C_16
REMARK    2  A    between atoms: N_3  and  C_4
REMARK    3  A    between atoms: C_4  and  C_5
REMARK    4  A    between atoms: C_5  and  C_6
REMARK    5  A    between atoms: C_6  and  C_7
REMARK    6  A    between atoms: C_21  and  C_23
REMARK                            x       y       z     vdW  Elec       q    Type
REMARK                         _______ _______ _______ _____ _____    ______ ____
ROOT
ATOM      1  O   UNL     1       3.357   7.241  17.722  0.00  0.00    +0.000 OA
ATOM      2  C   UNL     1       2.533   7.007  18.598  0.00  0.00    +0.000 C 
ATOM      3  N   UNL     1       1.768   5.846  18.658  0.00  0.00    +0.000 N 
ATOM      4  H   UNL     1       1.368   5.610  19.557  0.00  0.00    +0.000 HD
ENDROOT
BRANCH   2   5
ATOM      5  C   UNL     1       2.219   7.990  19.748  0.00  0.00    +0.000 C 
ATOM      6  C   UNL     1       1.597   7.236  20.928  0.00  0.00    +0.000 C 
ATOM      7  C   UNL     1       0.998   8.345  21.778  0.00  0.00    +0.000 C 
ATOM      8  C   UNL     1       0.581   9.402  20.766  0.00  0.00    +0.000 C 
ATOM      9  N   UNL     1       1.242   9.052  19.515  0.00  0.00    +0.000 N 
ATOM     10  C   UNL     1       1.362   9.891  18.409  0.00  0.00    +0.000 C 
ATOM     11  O   UNL     1       2.082   9.594  17.454  0.00  0.00    +0.000 OA
BRANCH  10  12
ATOM     12  C   UNL     1       0.698  11.244  18.406  0.00  0.00    +0.000 A 
ATOM     13  C   UNL     1       1.494  12.356  18.661  0.00  0.00    +0.000 A 
ATOM     14  C   UNL     1       0.873  13.578  18.904  0.00  0.00    +0.000 A 
ATOM     15  C   UNL     1      -0.515  13.658  18.860  0.00  0.00    +0.000 A 
ATOM     16  C   UNL     1      -1.228  12.518  18.538  0.00  0.00    +0.000 A 
ATOM     17  N   UNL     1      -0.655  11.319  18.307  0.00  0.00    +0.000 NA
ENDBRANCH  10  12
ENDBRANCH   2   5
BRANCH   3  18
ATOM     18  C   UNL     1       1.868   4.775  17.680  0.00  0.00    +0.000 C 
BRANCH  18  19
ATOM     19  C   UNL     1       2.384   3.516  18.404  0.00  0.00    +0.000 C 
ATOM     20  C   UNL     1       2.419   3.575  19.980  0.00  0.00    +0.000 C 
ATOM     21  C   UNL     1       1.744   2.197  20.020  0.00  0.00    +0.000 C 
ATOM     22  C   UNL     1       1.215   2.475  18.609  0.00  0.00    +0.000 C 
BRANCH  19  23
ATOM     23  C   UNL     1       3.681   2.931  17.782  0.00  0.00    +0.000 C 
BRANCH  23  24
ATOM     24  C   UNL     1       4.766   3.961  17.509  0.00  0.00    +0.000 A 
ATOM     25  C   UNL     1       5.563   4.536  18.503  0.00  0.00    +0.000 A 
ATOM     26  C   UNL     1       6.530   5.496  18.204  0.00  0.00    +0.000 A 
ATOM     27  C   UNL     1       6.734   5.888  16.892  0.00  0.00    +0.000 A 
ATOM     28  C   UNL     1       5.979   5.302  15.880  0.00  0.00    +0.000 A 
ATOM     29  C   UNL     1       5.006   4.344  16.176  0.00  0.00    +0.000 A 
ENDBRANCH  23  24
ENDBRANCH  19  23
ENDBRANCH  18  19
ENDBRANCH   3  18
TORSDOF 6
ENDMDL
MODEL 5
REMARK VINA RESULT:      -7.0      0.581      1.068
REMARK  Name = 
REMARK  6 active torsions:
REMARK  status: ('A' for Active; 'I' for Inactive)
REMARK    1  A    between atoms: C_2  and  C_16
REMARK    2  A    between atoms: N_3  and  C_4
REMARK    3  A    between atoms: C_4  and  C_5
REMARK    4  A    between atoms: C_5  and  C_6
REMARK    5  A    between atoms: C_6  and  C_7
REMARK    6  A    between atoms: C_21  and  C_23
REMARK                            x       y       z     vdW  Elec       q    Type
REMARK                         _______ _______ _______ _____ _____    ______ ____
ROOT
ATOM      1  O   UNL     1       1.623   6.290  17.951  0.00  0.00    +0.000 OA
ATOM      2  C   UNL     1       2.494   6.937  18.522  0.00  0.00    +0.000 C 
ATOM      3  N   UNL     1       3.848   6.865  18.210  0.00  0.00    +0.000 N 
ATOM      4  H   UNL     1       4.425   7.643  18.503  0.00  0.00    +0.000 HD
ENDROOT
BRANCH   2   5
ATOM      5  C   UNL     1       2.199   7.907  19.687  0.00  0.00    +0.000 C 
ATOM      6  C   UNL     1       1.534   7.152  20.843  0.00  0.00    +0.000 C 
ATOM      7  C   UNL     1       0.963   8.265  21.707  0.00  0.00    +0.000 C 
ATOM      8  C   UNL     1       0.598   9.357  20.712  0.00  0.00    +0.000 C 
ATOM      9  N   UNL     1       1.265   9.008  19.463  0.00  0.00    +0.000 N 
ATOM     10  C   UNL     1       1.430   9.865  18.376  0.00  0.00    +0.000 C 
ATOM     11  O   UNL     1       2.154   9.562  17.425  0.00  0.00    +0.000 OA
BRANCH  10  12
ATOM     12  C   UNL     1       0.816  11.241  18.392  0.00  0.00    +0.000 A 
ATOM     13  C   UNL     1       1.645  12.317  18.691  0.00  0.00    +0.000 A 
ATOM     14  C   UNL     1       1.064  13.554  18.950  0.00  0.00    +0.000 A 
ATOM     15  C   UNL     1      -0.319  13.686  18.880  0.00  0.00    +0.000 A 
ATOM     16  C   UNL     1      -1.066  12.581  18.517  0.00  0.00    +0.000 A 
ATOM     17  N   UNL     1      -0.531  11.367  18.268  0.00  0.00    +0.000 NA
ENDBRANCH  10  12
ENDBRANCH   2   5
BRANCH   3  18
ATOM     18  C   UNL     1       4.379   6.010  17.160  0.00  0.00    +0.000 C 
BRANCH  18  19
ATOM     19  C   UNL     1       5.505   5.151  17.770  0.00  0.00    +0.000 C 
ATOM     20  C   UNL     1       6.287   4.208  16.777  0.00  0.00    +0.000 C 
ATOM     21  C   UNL     1       7.606   4.714  17.376  0.00  0.00    +0.000 C 
ATOM     22  C   UNL     1       6.854   5.969  17.834  0.00  0.00    +0.000 C 
BRANCH  19  23
ATOM     23  C   UNL     1       5.101   4.450  19.095  0.00  0.00    +0.000 C 
BRANCH  23  24
ATOM     24  C   UNL     1       3.790   3.682  19.025  0.00  0.00    +0.000 A 
ATOM     25  C   UNL     1       2.813   3.715  20.025  0.00  0.00    +0.000 A 
ATOM     26  C   UNL     1       1.637   2.972  19.925  0.00  0.00    +0.000 A 
ATOM     27  C   UNL     1       1.404   2.190  18.805  0.00  0.00    +0.000 A 
ATOM     28  C   UNL     1       2.344   2.171  17.780  0.00  0.00    +0.000 A 
ATOM     29  C   UNL     1       3.526   2.911  17.878  0.00  0.00    +0.000 A 
ENDBRANCH  23  24
ENDBRANCH  19  23
ENDBRANCH  18  19
ENDBRANCH   3  18
TORSDOF 6
ENDMDL
MODEL 6
REMARK VINA RESULT:      -6.9      1.959      4.661
REMARK  Name = 
REMARK  6 active torsions:
REMARK  status: ('A' for Active; 'I' for Inactive)
REMARK    1  A    between atoms: C_2  and  C_16
REMARK    2  A    between atoms: N_3  and  C_4
REMARK    3  A    between atoms: C_4  and  C_5
REMARK    4  A    between atoms: C_5  and  C_6
REMARK    5  A    between atoms: C_6  and  C_7
REMARK    6  A    between atoms: C_21  and  C_23
REMARK                            x       y       z     vdW  Elec       q    Type
REMARK                         _______ _______ _______ _____ _____    ______ ____
ROOT
ATOM      1  O   UNL     1       2.173   2.851  17.116  0.00  0.00    +0.000 OA
ATOM      2  C   UNL     1       3.032   3.398  17.798  0.00  0.00    +0.000 C 
ATOM      3  N   UNL     1       4.314   3.694  17.346  0.00  0.00    +0.000 N 
ATOM      4  H   UNL     1       4.823   4.406  17.854  0.00  0.00    +0.000 HD
ENDROOT
BRANCH   2   5
ATOM      5  C   UNL     1       2.806   3.812  19.269  0.00  0.00    +0.000 C 
ATOM      6  C   UNL     1       1.986   2.740  19.995  0.00  0.00    +0.000 C 
ATOM      7  C   UNL     1       1.522   3.448  21.258  0.00  0.00    +0.000 C 
ATOM      8  C   UNL     1       1.359   4.900  20.830  0.00  0.00    +0.000 C 
ATOM      9  N   UNL     1       2.040   5.024  19.547  0.00  0.00    +0.000 N 
ATOM     10  C   UNL     1       2.375   6.228  18.931  0.00  0.00    +0.000 C 
ATOM     11  O   UNL     1       3.102   6.259  17.935  0.00  0.00    +0.000 OA
BRANCH  10  12
ATOM     12  C   UNL     1       1.948   7.539  19.540  0.00  0.00    +0.000 A 
ATOM     13  C   UNL     1       1.674   7.560  20.904  0.00  0.00    +0.000 A 
ATOM     14  C   UNL     1       1.050   8.682  21.440  0.00  0.00    +0.000 A 
ATOM     15  C   UNL     1       0.742   9.754  20.609  0.00  0.00    +0.000 A 
ATOM     16  C   UNL     1       1.104   9.677  19.278  0.00  0.00    +0.000 A 
ATOM     17  N   UNL     1       1.702   8.599  18.727  0.00  0.00    +0.000 NA
ENDBRANCH  10  12
ENDBRANCH   2   5
BRANCH   3  18
ATOM     18  C   UNL     1       4.775   3.387  16.001  0.00  0.00    +0.000 C 
BRANCH  18  19
ATOM     19  C   UNL     1       5.651   4.560  15.519  0.00  0.00    +0.000 C 
ATOM     20  C   UNL     1       7.196   4.273  15.381  0.00  0.00    +0.000 C 
ATOM     21  C   UNL     1       7.168   4.933  13.995  0.00  0.00    +0.000 C 
ATOM     22  C   UNL     1       5.666   4.631  13.942  0.00  0.00    +0.000 C 
BRANCH  19  23
ATOM     23  C   UNL     1       5.336   5.903  16.232  0.00  0.00    +0.000 C 
BRANCH  23  24
ATOM     24  C   UNL     1       6.426   6.382  17.179  0.00  0.00    +0.000 A 
ATOM     25  C   UNL     1       6.900   5.638  18.263  0.00  0.00    +0.000 A 
ATOM     26  C   UNL     1       7.884   6.133  19.118  0.00  0.00    +0.000 A 
ATOM     27  C   UNL     1       8.432   7.386  18.893  0.00  0.00    +0.000 A 
ATOM     28  C   UNL     1       8.003   8.130  17.798  0.00  0.00    +0.000 A 
ATOM     29  C   UNL     1       7.014   7.639  16.941  0.00  0.00    +0.000 A 
ENDBRANCH  23  24
ENDBRANCH  19  23
ENDBRANCH  18  19
ENDBRANCH   3  18
TORSDOF 6
ENDMDL
MODEL 7
REMARK VINA RESULT:      -6.9      1.857      3.615
REMARK  Name = 
REMARK  6 active torsions:
REMARK  status: ('A' for Active; 'I' for Inactive)
REMARK    1  A    between atoms: C_2  and  C_16
REMARK    2  A    between atoms: N_3  and  C_4
REMARK    3  A    between atoms: C_4  and  C_5
REMARK    4  A    between atoms: C_5  and  C_6
REMARK    5  A    between atoms: C_6  and  C_7
REMARK    6  A    between atoms: C_21  and  C_23
REMARK                            x       y       z     vdW  Elec       q    Type
REMARK                         _______ _______ _______ _____ _____    ______ ____
ROOT
ATOM      1  O   UNL     1       2.056   5.853  17.804  0.00  0.00    +0.000 OA
ATOM      2  C   UNL     1       2.814   6.702  18.259  0.00  0.00    +0.000 C 
ATOM      3  N   UNL     1       4.086   6.960  17.757  0.00  0.00    +0.000 N 
ATOM      4  H   UNL     1       4.490   7.860  17.982  0.00  0.00    +0.000 HD
ENDROOT
BRANCH   2   5
ATOM      5  C   UNL     1       2.458   7.589  19.473  0.00  0.00    +0.000 C 
ATOM      6  C   UNL     1       1.839   6.734  20.583  0.00  0.00    +0.000 C 
ATOM      7  C   UNL     1       1.199   7.761  21.503  0.00  0.00    +0.000 C 
ATOM      8  C   UNL     1       0.769   8.881  20.566  0.00  0.00    +0.000 C 
ATOM      9  N   UNL     1       1.458   8.641  19.304  0.00  0.00    +0.000 N 
ATOM     10  C   UNL     1       1.572   9.563  18.265  0.00  0.00    +0.000 C 
ATOM     11  O   UNL     1       2.314   9.356  17.302  0.00  0.00    +0.000 OA
BRANCH  10  12
ATOM     12  C   UNL     1       0.873  10.896  18.351  0.00  0.00    +0.000 A 
ATOM     13  C   UNL     1       1.641  12.009  18.680  0.00  0.00    +0.000 A 
ATOM     14  C   UNL     1       0.989  13.195  19.003  0.00  0.00    +0.000 A 
ATOM     15  C   UNL     1      -0.400  13.242  18.965  0.00  0.00    +0.000 A 
ATOM     16  C   UNL     1      -1.084  12.109  18.568  0.00  0.00    +0.000 A 
ATOM     17  N   UNL     1      -0.481  10.942  18.258  0.00  0.00    +0.000 NA
ENDBRANCH  10  12
ENDBRANCH   2   5
BRANCH   3  18
ATOM     18  C   UNL     1       4.656   6.245  16.627  0.00  0.00    +0.000 C 
BRANCH  18  19
ATOM     19  C   UNL     1       5.975   5.594  17.092  0.00  0.00    +0.000 C 
ATOM     20  C   UNL     1       7.237   6.538  17.165  0.00  0.00    +0.000 C 
ATOM     21  C   UNL     1       7.543   5.976  18.560  0.00  0.00    +0.000 C 
ATOM     22  C   UNL     1       6.064   5.587  18.668  0.00  0.00    +0.000 C 
BRANCH  19  23
ATOM     23  C   UNL     1       6.265   4.229  16.412  0.00  0.00    +0.000 C 
BRANCH  23  24
ATOM     24  C   UNL     1       6.553   4.318  14.922  0.00  0.00    +0.000 A 
ATOM     25  C   UNL     1       7.545   5.132  14.366  0.00  0.00    +0.000 A 
ATOM     26  C   UNL     1       7.753   5.197  12.988  0.00  0.00    +0.000 A 
ATOM     27  C   UNL     1       6.980   4.428  12.133  0.00  0.00    +0.000 A 
ATOM     28  C   UNL     1       6.012   3.582  12.665  0.00  0.00    +0.000 A 
ATOM     29  C   UNL     1       5.797   3.518  14.045  0.00  0.00    +0.000 A 
ENDBRANCH  23  24
ENDBRANCH  19  23
ENDBRANCH  18  19
ENDBRANCH   3  18
TORSDOF 6
ENDMDL
MODEL 8
REMARK VINA RESULT:      -6.9      2.623      5.090
REMARK  Name = 
REMARK  6 active torsions:
REMARK  status: ('A' for Active; 'I' for Inactive)
REMARK    1  A    between atoms: C_2  and  C_16
REMARK    2  A    between atoms: N_3  and  C_4
REMARK    3  A    between atoms: C_4  and  C_5
REMARK    4  A    between atoms: C_5  and  C_6
REMARK    5  A    between atoms: C_6  and  C_7
REMARK    6  A    between atoms: C_21  and  C_23
REMARK                            x       y       z     vdW  Elec       q    Type
REMARK                         _______ _______ _______ _____ _____    ______ ____
ROOT
ATOM      1  O   UNL     1       5.209   2.508  19.997  0.00  0.00    +0.000 OA
ATOM      2  C   UNL     1       4.280   3.051  19.410  0.00  0.00    +0.000 C 
ATOM      3  N   UNL     1       4.334   3.470  18.084  0.00  0.00    +0.000 N 
ATOM      4  H   UNL     1       3.449   3.607  17.614  0.00  0.00    +0.000 HD
ENDROOT
BRANCH   2   5
ATOM      5  C   UNL     1       2.924   3.364  20.081  0.00  0.00    +0.000 C 
ATOM      6  C   UNL     1       1.907   2.268  19.745  0.00  0.00    +0.000 C 
ATOM      7  C   UNL     1       0.575   2.897  20.122  0.00  0.00    +0.000 C 
ATOM      8  C   UNL     1       0.773   4.380  19.843  0.00  0.00    +0.000 C 
ATOM      9  N   UNL     1       2.210   4.576  19.687  0.00  0.00    +0.000 N 
ATOM     10  C   UNL     1       2.856   5.811  19.696  0.00  0.00    +0.000 C 
ATOM     11  O   UNL     1       4.085   5.891  19.734  0.00  0.00    +0.000 OA
BRANCH  10  12
ATOM     12  C   UNL     1       2.057   7.087  19.775  0.00  0.00    +0.000 A 
ATOM     13  C   UNL     1       2.014   7.895  18.643  0.00  0.00    +0.000 A 
ATOM     14  C   UNL     1       1.494   9.180  18.762  0.00  0.00    +0.000 A 
ATOM     15  C   UNL     1       1.013   9.610  19.994  0.00  0.00    +0.000 A 
ATOM     16  C   UNL     1       1.036   8.722  21.053  0.00  0.00    +0.000 A 
ATOM     17  N   UNL     1       1.542   7.474  20.971  0.00  0.00    +0.000 NA
ENDBRANCH  10  12
ENDBRANCH   2   5
BRANCH   3  18
ATOM     18  C   UNL     1       5.508   3.303  17.244  0.00  0.00    +0.000 C 
BRANCH  18  19
ATOM     19  C   UNL     1       5.978   4.702  16.798  0.00  0.00    +0.000 C 
ATOM     20  C   UNL     1       6.099   5.796  17.927  0.00  0.00    +0.000 C 
ATOM     21  C   UNL     1       7.484   6.169  17.380  0.00  0.00    +0.000 C 
ATOM     22  C   UNL     1       7.555   4.771  16.757  0.00  0.00    +0.000 C 
BRANCH  19  23
ATOM     23  C   UNL     1       5.266   5.215  15.518  0.00  0.00    +0.000 C 
BRANCH  23  24
ATOM     24  C   UNL     1       5.857   4.693  14.217  0.00  0.00    +0.000 A 
ATOM     25  C   UNL     1       5.235   3.741  13.405  0.00  0.00    +0.000 A 
ATOM     26  C   UNL     1       5.830   3.275  12.233  0.00  0.00    +0.000 A 
ATOM     27  C   UNL     1       7.062   3.770  11.837  0.00  0.00    +0.000 A 
ATOM     28  C   UNL     1       7.684   4.746  12.609  0.00  0.00    +0.000 A 
ATOM     29  C   UNL     1       7.092   5.212  13.787  0.00  0.00    +0.000 A 
ENDBRANCH  23  24
ENDBRANCH  19  23
ENDBRANCH  18  19
ENDBRANCH   3  18
TORSDOF 6
ENDMDL
MODEL 9
REMARK VINA RESULT:      -6.9      2.382      3.427
REMARK  Name = 
REMARK  6 active torsions:
REMARK  status: ('A' for Active; 'I' for Inactive)
REMARK    1  A    between atoms: C_2  and  C_16
REMARK    2  A    between atoms: N_3  and  C_4
REMARK    3  A    between atoms: C_4  and  C_5
REMARK    4  A    between atoms: C_5  and  C_6
REMARK    5  A    between atoms: C_6  and  C_7
REMARK    6  A    between atoms: C_21  and  C_23
REMARK                            x       y       z     vdW  Elec       q    Type
REMARK                         _______ _______ _______ _____ _____    ______ ____
ROOT
ATOM      1  O   UNL     1       2.295  10.459  17.903  0.00  0.00    +0.000 OA
ATOM      2  C   UNL     1       1.593   9.510  18.233  0.00  0.00    +0.000 C 
ATOM      3  N   UNL     1       2.031   8.190  18.265  0.00  0.00    +0.000 N 
ATOM      4  H   UNL     1       1.498   7.547  18.837  0.00  0.00    +0.000 HD
ENDROOT
BRANCH   2   5
ATOM      5  C   UNL     1       0.109   9.658  18.638  0.00  0.00    +0.000 C 
ATOM      6  C   UNL     1      -0.753   9.897  17.393  0.00  0.00    +0.000 C 
ATOM      7  C   UNL     1      -2.066  10.405  17.967  0.00  0.00    +0.000 C 
ATOM      8  C   UNL     1      -1.653  11.165  19.219  0.00  0.00    +0.000 C 
ATOM      9  N   UNL     1      -0.275  10.777  19.495  0.00  0.00    +0.000 N 
ATOM     10  C   UNL     1       0.401  11.016  20.690  0.00  0.00    +0.000 C 
ATOM     11  O   UNL     1       1.501  10.508  20.917  0.00  0.00    +0.000 OA
BRANCH  10  12
ATOM     12  C   UNL     1      -0.255  11.813  21.789  0.00  0.00    +0.000 A 
ATOM     13  C   UNL     1      -1.250  11.190  22.535  0.00  0.00    +0.000 A 
ATOM     14  C   UNL     1      -2.033  11.969  23.382  0.00  0.00    +0.000 A 
ATOM     15  C   UNL     1      -1.784  13.334  23.477  0.00  0.00    +0.000 A 
ATOM     16  C   UNL     1      -0.736  13.862  22.748  0.00  0.00    +0.000 A 
ATOM     17  N   UNL     1       0.034  13.135  21.912  0.00  0.00    +0.000 NA
ENDBRANCH  10  12
ENDBRANCH   2   5
BRANCH   3  18
ATOM     18  C   UNL     1       3.383   7.791  17.911  0.00  0.00    +0.000 C 
BRANCH  18  19
ATOM     19  C   UNL     1       3.433   6.250  17.883  0.00  0.00    +0.000 C 
ATOM     20  C   UNL     1       4.428   5.598  16.848  0.00  0.00    +0.000 C 
ATOM     21  C   UNL     1       4.941   4.675  17.962  0.00  0.00    +0.000 C 
ATOM     22  C   UNL     1       4.436   5.708  18.976  0.00  0.00    +0.000 C 
BRANCH  19  23
ATOM     23  C   UNL     1       2.031   5.585  17.892  0.00  0.00    +0.000 C 
BRANCH  23  24
ATOM     24  C   UNL     1       1.863   4.487  18.932  0.00  0.00    +0.000 A 
ATOM     25  C   UNL     1       1.764   3.128  18.621  0.00  0.00    +0.000 A 
ATOM     26  C   UNL     1       1.585   2.161  19.610  0.00  0.00    +0.000 A 
ATOM     27  C   UNL     1       1.520   2.536  20.942  0.00  0.00    +0.000 A 
ATOM     28  C   UNL     1       1.654   3.880  21.279  0.00  0.00    +0.000 A 
ATOM     29  C   UNL     1       1.829   4.852  20.291  0.00  0.00    +0.000 A 
ENDBRANCH  23  24
ENDBRANCH  19  23
ENDBRANCH  18  19
ENDBRANCH   3  18
TORSDOF 6
ENDMDL
