MODEL 1
REMARK VINA RESULT:      -8.3      0.000      0.000
REMARK  Name = 
REMARK  4 active torsions:
REMARK  status: ('A' for Active; 'I' for Inactive)
REMARK    1  A    between atoms: C_1  and  C_2
REMARK    2  A    between atoms: C_2  and  C_3
REMARK    3  A    between atoms: C_2  and  N_4
REMARK    4  A    between atoms: C_6  and  C_7
REMARK                            x       y       z     vdW  Elec       q    Type
REMARK                         _______ _______ _______ _____ _____    ______ ____
ROOT
ATOM      1  N   UNL     1       5.279   5.121  18.511  0.00  0.00    +0.000 N 
ATOM      2  N   UNL     1       4.538   6.214  18.411  0.00  0.00    +0.000 NA
ATOM      3  C   UNL     1       3.386   6.029  19.102  0.00  0.00    +0.000 A 
ATOM      4  C   UNL     1       3.387   4.724  19.616  0.00  0.00    +0.000 A 
ATOM      5  C   UNL     1       2.512   3.887  20.339  0.00  0.00    +0.000 A 
ATOM      6  N   UNL     1       1.175   4.230  20.644  0.00  0.00    +0.000 N 
ATOM      7  N   UNL     1       2.957   2.638  20.673  0.00  0.00    +0.000 NA
ATOM      8  C   UNL     1       4.194   2.188  20.308  0.00  0.00    +0.000 A 
ATOM      9  N   UNL     1       5.019   2.974  19.566  0.00  0.00    +0.000 NA
ATOM     10  C   UNL     1       4.601   4.218  19.239  0.00  0.00    +0.000 A 
ATOM     11  H   UNL     1       0.708   5.021  20.191  0.00  0.00    +0.000 HD
ATOM     12  H   UNL     1       0.588   3.568  21.171  0.00  0.00    +0.000 HD
ENDROOT
BRANCH   3  13
ATOM     13  C   UNL     1       2.460   7.159  19.287  0.00  0.00    +0.000 A 
ATOM     14  C   UNL     1       1.855   7.571  20.473  0.00  0.00    +0.000 A 
ATOM     15  C   UNL     1       1.194   8.737  20.165  0.00  0.00    +0.000 A 
ATOM     16  C   UNL     1       0.452   9.604  20.967  0.00  0.00    +0.000 A 
ATOM     17 CL   UNL     1       0.201   9.286  22.675  0.00  0.00    +0.000 Cl
ATOM     18  C   UNL     1      -0.077  10.762  20.364  0.00  0.00    +0.000 A 
ATOM     19  C   UNL     1       0.140  11.017  18.991  0.00  0.00    +0.000 A 
ATOM     20  C   UNL     1       0.889  10.120  18.209  0.00  0.00    +0.000 A 
ATOM     21  C   UNL     1       1.406   8.989  18.837  0.00  0.00    +0.000 A 
ATOM     22  N   UNL     1       2.179   8.037  18.293  0.00  0.00    +0.000 N 
ATOM     23  H   UNL     1       2.515   7.995  17.303  0.00  0.00    +0.000 HD
ENDBRANCH   3  13
BRANCH   1  25
ATOM     24  C   UNL     1       6.389   4.429  16.460  0.00  0.00    +0.000 C 
ATOM     25  C   UNL     1       6.590   4.937  17.887  0.00  0.00    +0.000 C 
ATOM     26  C   UNL     1       7.409   6.235  17.899  0.00  0.00    +0.000 C 
ENDBRANCH   1  25
TORSDOF 2
ENDMDL
MODEL 2
REMARK VINA RESULT:      -8.3      1.626      2.061
REMARK  Name = 
REMARK  4 active torsions:
REMARK  status: ('A' for Active; 'I' for Inactive)
REMARK    1  A    between atoms: C_1  and  C_2
REMARK    2  A    between atoms: C_2  and  C_3
REMARK    3  A    between atoms: C_2  and  N_4
REMARK    4  A    between atoms: C_6  and  C_7
REMARK                            x       y       z     vdW  Elec       q    Type
REMARK                         _______ _______ _______ _____ _____    ______ ____
ROOT
ATOM      1  N   UNL     1       4.465   4.802  17.457  0.00  0.00    +0.000 N 
ATOM      2  N   UNL     1       4.002   5.992  17.807  0.00  0.00    +0.000 NA
ATOM      3  C   UNL     1       2.976   5.825  18.678  0.00  0.00    +0.000 A 
ATOM      4  C   UNL     1       2.753   4.450  18.836  0.00  0.00    +0.000 A 
ATOM      5  C   UNL     1       1.843   3.611  19.511  0.00  0.00    +0.000 A 
ATOM      6  N   UNL     1       0.700   4.086  20.194  0.00  0.00    +0.000 N 
ATOM      7  N   UNL     1       2.027   2.260  19.411  0.00  0.00    +0.000 NA
ATOM      8  C   UNL     1       3.038   1.719  18.667  0.00  0.00    +0.000 A 
ATOM      9  N   UNL     1       3.886   2.525  17.974  0.00  0.00    +0.000 NA
ATOM     10  C   UNL     1       3.727   3.865  18.074  0.00  0.00    +0.000 A 
ATOM     11  H   UNL     1       0.364   5.047  20.074  0.00  0.00    +0.000 HD
ATOM     12  H   UNL     1       0.072   3.417  20.661  0.00  0.00    +0.000 HD
ENDROOT
BRANCH   3  13
ATOM     13  C   UNL     1       2.393   7.000  19.349  0.00  0.00    +0.000 A 
ATOM     14  C   UNL     1       1.934   8.173  18.752  0.00  0.00    +0.000 A 
ATOM     15  C   UNL     1       1.363   8.905  19.768  0.00  0.00    +0.000 A 
ATOM     16  C   UNL     1       0.713  10.139  19.748  0.00  0.00    +0.000 A 
ATOM     17 CL   UNL     1       0.531  11.056  18.262  0.00  0.00    +0.000 Cl
ATOM     18  C   UNL     1       0.187  10.620  20.962  0.00  0.00    +0.000 A 
ATOM     19  C   UNL     1       0.328   9.870  22.151  0.00  0.00    +0.000 A 
ATOM     20  C   UNL     1       0.992   8.630  22.138  0.00  0.00    +0.000 A 
ATOM     21  C   UNL     1       1.493   8.178  20.919  0.00  0.00    +0.000 A 
ATOM     22  N   UNL     1       2.116   7.014  20.676  0.00  0.00    +0.000 N 
ATOM     23  H   UNL     1       2.324   6.260  21.371  0.00  0.00    +0.000 HD
ENDBRANCH   3  13
BRANCH   1  25
ATOM     24  C   UNL     1       5.443   5.567  15.365  0.00  0.00    +0.000 C 
ATOM     25  C   UNL     1       5.566   4.574  16.519  0.00  0.00    +0.000 C 
ATOM     26  C   UNL     1       6.931   4.699  17.208  0.00  0.00    +0.000 C 
ENDBRANCH   1  25
TORSDOF 2
ENDMDL
MODEL 3
REMARK VINA RESULT:      -7.6      3.062      7.144
REMARK  Name = 
REMARK  4 active torsions:
REMARK  status: ('A' for Active; 'I' for Inactive)
REMARK    1  A    between atoms: C_1  and  C_2
REMARK    2  A    between atoms: C_2  and  C_3
REMARK    3  A    between atoms: C_2  and  N_4
REMARK    4  A    between atoms: C_6  and  C_7
REMARK                            x       y       z     vdW  Elec       q    Type
REMARK                         _______ _______ _______ _____ _____    ______ ____
ROOT
ATOM      1  N   UNL     1      -0.567  10.901  19.210  0.00  0.00    +0.000 N 
ATOM      2  N   UNL     1       0.319  10.116  18.616  0.00  0.00    +0.000 NA
ATOM      3  C   UNL     1       0.993   9.420  19.564  0.00  0.00    +0.000 A 
ATOM      4  C   UNL     1       0.538   9.837  20.823  0.00  0.00    +0.000 A 
ATOM      5  C   UNL     1       0.840   9.587  22.178  0.00  0.00    +0.000 A 
ATOM      6  N   UNL     1       1.941   8.808  22.602  0.00  0.00    +0.000 N 
ATOM      7  N   UNL     1       0.084  10.217  23.126  0.00  0.00    +0.000 NA
ATOM      8  C   UNL     1      -0.920  11.083  22.794  0.00  0.00    +0.000 A 
ATOM      9  N   UNL     1      -1.180  11.366  21.489  0.00  0.00    +0.000 NA
ATOM     10  C   UNL     1      -0.451  10.739  20.538  0.00  0.00    +0.000 A 
ATOM     11  H   UNL     1       2.690   8.541  21.957  0.00  0.00    +0.000 HD
ATOM     12  H   UNL     1       2.107   8.670  23.609  0.00  0.00    +0.000 HD
ENDROOT
BRANCH   3  13
ATOM     13  C   UNL     1       1.923   8.351  19.158  0.00  0.00    +0.000 A 
ATOM     14  C   UNL     1       2.058   7.087  19.729  0.00  0.00    +0.000 A 
ATOM     15  C   UNL     1       2.948   6.412  18.925  0.00  0.00    +0.000 A 
ATOM     16  C   UNL     1       3.426   5.104  18.992  0.00  0.00    +0.000 A 
ATOM     17 CL   UNL     1       2.928   4.009  20.271  0.00  0.00    +0.000 Cl
ATOM     18  C   UNL     1       4.312   4.679  17.984  0.00  0.00    +0.000 A 
ATOM     19  C   UNL     1       4.699   5.563  16.951  0.00  0.00    +0.000 A 
ATOM     20  C   UNL     1       4.202   6.878  16.915  0.00  0.00    +0.000 A 
ATOM     21  C   UNL     1       3.320   7.265  17.921  0.00  0.00    +0.000 A 
ATOM     22  N   UNL     1       2.699   8.447  18.051  0.00  0.00    +0.000 N 
ATOM     23  H   UNL     1       2.782   9.269  17.410  0.00  0.00    +0.000 HD
ENDBRANCH   3  13
BRANCH   1  25
ATOM     24  C   UNL     1      -0.702  13.073  18.122  0.00  0.00    +0.000 C 
ATOM     25  C   UNL     1      -1.475  11.816  18.515  0.00  0.00    +0.000 C 
ATOM     26  C   UNL     1      -2.111  11.154  17.284  0.00  0.00    +0.000 C 
ENDBRANCH   1  25
TORSDOF 2
ENDMDL
MODEL 4
REMARK VINA RESULT:      -7.5      3.092      7.311
REMARK  Name = 
REMARK  4 active torsions:
REMARK  status: ('A' for Active; 'I' for Inactive)
REMARK    1  A    between atoms: C_1  and  C_2
REMARK    2  A    between atoms: C_2  and  C_3
REMARK    3  A    between atoms: C_2  and  N_4
REMARK    4  A    between atoms: C_6  and  C_7
REMARK                            x       y       z     vdW  Elec       q    Type
REMARK                         _______ _______ _______ _____ _____    ______ ____
ROOT
ATOM      1  N   UNL     1      -0.575  10.758  19.137  0.00  0.00    +0.000 N 
ATOM      2  N   UNL     1       0.268   9.914  18.561  0.00  0.00    +0.000 NA
ATOM      3  C   UNL     1       0.950   9.249  19.525  0.00  0.00    +0.000 A 
ATOM      4  C   UNL     1       0.548   9.748  20.773  0.00  0.00    +0.000 A 
ATOM      5  C   UNL     1       0.885   9.562  22.129  0.00  0.00    +0.000 A 
ATOM      6  N   UNL     1       1.974   8.772  22.563  0.00  0.00    +0.000 N 
ATOM      7  N   UNL     1       0.178  10.266  23.064  0.00  0.00    +0.000 NA
ATOM      8  C   UNL     1      -0.809  11.144  22.715  0.00  0.00    +0.000 A 
ATOM      9  N   UNL     1      -1.101  11.364  21.405  0.00  0.00    +0.000 NA
ATOM     10  C   UNL     1      -0.422  10.664  20.468  0.00  0.00    +0.000 A 
ATOM     11  H   UNL     1       2.694   8.446  21.911  0.00  0.00    +0.000 HD
ATOM     12  H   UNL     1       2.168   8.683  23.571  0.00  0.00    +0.000 HD
ENDROOT
BRANCH   3  13
ATOM     13  C   UNL     1       1.833   8.130  19.151  0.00  0.00    +0.000 A 
ATOM     14  C   UNL     1       2.629   8.027  18.012  0.00  0.00    +0.000 A 
ATOM     15  C   UNL     1       3.363   6.875  18.177  0.00  0.00    +0.000 A 
ATOM     16  C   UNL     1       4.345   6.296  17.373  0.00  0.00    +0.000 A 
ATOM     17 CL   UNL     1       4.824   7.018  15.846  0.00  0.00    +0.000 Cl
ATOM     18  C   UNL     1       4.959   5.117  17.837  0.00  0.00    +0.000 A 
ATOM     19  C   UNL     1       4.576   4.549  19.073  0.00  0.00    +0.000 A 
ATOM     20  C   UNL     1       3.579   5.156  19.859  0.00  0.00    +0.000 A 
ATOM     21  C   UNL     1       2.998   6.326  19.376  0.00  0.00    +0.000 A 
ATOM     22  N   UNL     1       2.070   7.084  19.980  0.00  0.00    +0.000 N 
ATOM     23  H   UNL     1       1.634   6.911  20.915  0.00  0.00    +0.000 HD
ENDBRANCH   3  13
BRANCH   1  25
ATOM     24  C   UNL     1      -0.710  12.932  18.052  0.00  0.00    +0.000 C 
ATOM     25  C   UNL     1      -1.476  11.662  18.420  0.00  0.00    +0.000 C 
ATOM     26  C   UNL     1      -2.069  10.996  17.171  0.00  0.00    +0.000 C 
ENDBRANCH   1  25
TORSDOF 2
ENDMDL
MODEL 5
REMARK VINA RESULT:      -7.4      1.218      1.218
REMARK  Name = 
REMARK  4 active torsions:
REMARK  status: ('A' for Active; 'I' for Inactive)
REMARK    1  A    between atoms: C_1  and  C_2
REMARK    2  A    between atoms: C_2  and  C_3
REMARK    3  A    between atoms: C_2  and  N_4
REMARK    4  A    between atoms: C_6  and  C_7
REMARK                            x       y       z     vdW  Elec       q    Type
REMARK                         _______ _______ _______ _____ _____    ______ ____
ROOT
ATOM      1  N   UNL     1       5.478   4.869  18.154  0.00  0.00    +0.000 N 
ATOM      2  N   UNL     1       4.890   6.049  18.277  0.00  0.00    +0.000 NA
ATOM      3  C   UNL     1       3.552   5.862  18.397  0.00  0.00    +0.000 A 
ATOM      4  C   UNL     1       3.289   4.489  18.287  0.00  0.00    +0.000 A 
ATOM      5  C   UNL     1       2.162   3.642  18.255  0.00  0.00    +0.000 A 
ATOM      6  N   UNL     1       0.830   4.113  18.207  0.00  0.00    +0.000 N 
ATOM      7  N   UNL     1       2.380   2.295  18.166  0.00  0.00    +0.000 NA
ATOM      8  C   UNL     1       3.638   1.768  18.085  0.00  0.00    +0.000 A 
ATOM      9  N   UNL     1       4.724   2.586  18.062  0.00  0.00    +0.000 NA
ATOM     10  C   UNL     1       4.527   3.921  18.165  0.00  0.00    +0.000 A 
ATOM     11  H   UNL     1       0.615   5.093  17.998  0.00  0.00    +0.000 HD
ATOM     12  H   UNL     1       0.053   3.438  18.180  0.00  0.00    +0.000 HD
ENDROOT
BRANCH   3  13
ATOM     13  C   UNL     1       2.683   7.009  18.714  0.00  0.00    +0.000 A 
ATOM     14  C   UNL     1       2.108   7.318  19.945  0.00  0.00    +0.000 A 
ATOM     15  C   UNL     1       1.502   8.541  19.772  0.00  0.00    +0.000 A 
ATOM     16  C   UNL     1       0.809   9.351  20.671  0.00  0.00    +0.000 A 
ATOM     17 CL   UNL     1       0.555   8.862  22.339  0.00  0.00    +0.000 Cl
ATOM     18  C   UNL     1       0.333  10.591  20.204  0.00  0.00    +0.000 A 
ATOM     19  C   UNL     1       0.552  10.982  18.863  0.00  0.00    +0.000 A 
ATOM     20  C   UNL     1       1.252  10.141  17.980  0.00  0.00    +0.000 A 
ATOM     21  C   UNL     1       1.718   8.925  18.476  0.00  0.00    +0.000 A 
ATOM     22  N   UNL     1       2.439   8.001  17.823  0.00  0.00    +0.000 N 
ATOM     23  H   UNL     1       2.766   8.051  16.831  0.00  0.00    +0.000 HD
ENDBRANCH   3  13
BRANCH   1  25
ATOM     24  C   UNL     1       7.241   4.609  16.498  0.00  0.00    +0.000 C 
ATOM     25  C   UNL     1       6.919   4.664  17.990  0.00  0.00    +0.000 C 
ATOM     26  C   UNL     1       7.729   5.765  18.687  0.00  0.00    +0.000 C 
ENDBRANCH   1  25
TORSDOF 2
ENDMDL
MODEL 6
REMARK VINA RESULT:      -7.4      2.129      3.846
REMARK  Name = 
REMARK  4 active torsions:
REMARK  status: ('A' for Active; 'I' for Inactive)
REMARK    1  A    between atoms: C_1  and  C_2
REMARK    2  A    between atoms: C_2  and  C_3
REMARK    3  A    between atoms: C_2  and  N_4
REMARK    4  A    between atoms: C_6  and  C_7
REMARK                            x       y       z     vdW  Elec       q    Type
REMARK                         _______ _______ _______ _____ _____    ______ ____
ROOT
ATOM      1  N   UNL     1       2.768   3.736  17.992  0.00  0.00    +0.000 N 
ATOM      2  N   UNL     1       2.242   4.634  18.812  0.00  0.00    +0.000 NA
ATOM      3  C   UNL     1       2.850   5.828  18.602  0.00  0.00    +0.000 A 
ATOM      4  C   UNL     1       3.848   5.650  17.634  0.00  0.00    +0.000 A 
ATOM      5  C   UNL     1       4.856   6.421  17.020  0.00  0.00    +0.000 A 
ATOM      6  N   UNL     1       5.187   7.736  17.419  0.00  0.00    +0.000 N 
ATOM      7  N   UNL     1       5.617   5.823  16.054  0.00  0.00    +0.000 NA
ATOM      8  C   UNL     1       5.439   4.516  15.698  0.00  0.00    +0.000 A 
ATOM      9  N   UNL     1       4.502   3.755  16.325  0.00  0.00    +0.000 NA
ATOM     10  C   UNL     1       3.730   4.336  17.272  0.00  0.00    +0.000 A 
ATOM     11  H   UNL     1       4.845   8.131  18.301  0.00  0.00    +0.000 HD
ATOM     12  H   UNL     1       5.940   8.242  16.931  0.00  0.00    +0.000 HD
ENDROOT
BRANCH   3  13
ATOM     13  C   UNL     1       2.333   7.034  19.273  0.00  0.00    +0.000 A 
ATOM     14  C   UNL     1       1.960   8.238  18.678  0.00  0.00    +0.000 A 
ATOM     15  C   UNL     1       1.422   8.999  19.690  0.00  0.00    +0.000 A 
ATOM     16  C   UNL     1       0.854  10.272  19.670  0.00  0.00    +0.000 A 
ATOM     17 CL   UNL     1       0.753  11.209  18.189  0.00  0.00    +0.000 Cl
ATOM     18  C   UNL     1       0.341  10.779  20.880  0.00  0.00    +0.000 A 
ATOM     19  C   UNL     1       0.415  10.013  22.065  0.00  0.00    +0.000 A 
ATOM     20  C   UNL     1       0.999   8.733  22.053  0.00  0.00    +0.000 A 
ATOM     21  C   UNL     1       1.488   8.257  20.838  0.00  0.00    +0.000 A 
ATOM     22  N   UNL     1       2.037   7.057  20.596  0.00  0.00    +0.000 N 
ATOM     23  H   UNL     1       2.185   6.287  21.287  0.00  0.00    +0.000 HD
ENDBRANCH   3  13
BRANCH   1  25
ATOM     24  C   UNL     1       3.473   1.485  18.584  0.00  0.00    +0.000 C 
ATOM     25  C   UNL     1       2.378   2.326  17.932  0.00  0.00    +0.000 C 
ATOM     26  C   UNL     1       1.022   2.086  18.610  0.00  0.00    +0.000 C 
ENDBRANCH   1  25
TORSDOF 2
ENDMDL
MODEL 7
REMARK VINA RESULT:      -7.3      1.838      3.841
REMARK  Name = 
REMARK  4 active torsions:
REMARK  status: ('A' for Active; 'I' for Inactive)
REMARK    1  A    between atoms: C_1  and  C_2
REMARK    2  A    between atoms: C_2  and  C_3
REMARK    3  A    between atoms: C_2  and  N_4
REMARK    4  A    between atoms: C_6  and  C_7
REMARK                            x       y       z     vdW  Elec       q    Type
REMARK                         _______ _______ _______ _____ _____    ______ ____
ROOT
ATOM      1  N   UNL     1       2.708   4.190  19.775  0.00  0.00    +0.000 N 
ATOM      2  N   UNL     1       2.162   5.185  20.456  0.00  0.00    +0.000 NA
ATOM      3  C   UNL     1       2.409   6.349  19.806  0.00  0.00    +0.000 A 
ATOM      4  C   UNL     1       3.201   6.067  18.684  0.00  0.00    +0.000 A 
ATOM      5  C   UNL     1       3.847   6.783  17.656  0.00  0.00    +0.000 A 
ATOM      6  N   UNL     1       3.928   8.194  17.617  0.00  0.00    +0.000 N 
ATOM      7  N   UNL     1       4.515   6.066  16.702  0.00  0.00    +0.000 NA
ATOM      8  C   UNL     1       4.587   4.702  16.739  0.00  0.00    +0.000 A 
ATOM      9  N   UNL     1       4.008   4.012  17.759  0.00  0.00    +0.000 NA
ATOM     10  C   UNL     1       3.330   4.705  18.702  0.00  0.00    +0.000 A 
ATOM     11  H   UNL     1       3.689   8.768  18.431  0.00  0.00    +0.000 HD
ATOM     12  H   UNL     1       4.421   8.654  16.838  0.00  0.00    +0.000 HD
ENDROOT
BRANCH   3  13
ATOM     13  C   UNL     1       1.767   7.592  20.270  0.00  0.00    +0.000 A 
ATOM     14  C   UNL     1       1.263   8.627  19.485  0.00  0.00    +0.000 A 
ATOM     15  C   UNL     1       0.649   9.491  20.363  0.00  0.00    +0.000 A 
ATOM     16  C   UNL     1      -0.055  10.673  20.136  0.00  0.00    +0.000 A 
ATOM     17 CL   UNL     1      -0.262  11.322  18.517  0.00  0.00    +0.000 Cl
ATOM     18  C   UNL     1      -0.615  11.325  21.251  0.00  0.00    +0.000 A 
ATOM     19  C   UNL     1      -0.453  10.790  22.549  0.00  0.00    +0.000 A 
ATOM     20  C   UNL     1       0.266   9.597  22.744  0.00  0.00    +0.000 A 
ATOM     21  C   UNL     1       0.799   8.972  21.620  0.00  0.00    +0.000 A 
ATOM     22  N   UNL     1       1.475   7.813  21.576  0.00  0.00    +0.000 N 
ATOM     23  H   UNL     1       1.709   7.195  22.386  0.00  0.00    +0.000 HD
ENDBRANCH   3  13
BRANCH   1  25
ATOM     24  C   UNL     1       2.263   2.694  21.641  0.00  0.00    +0.000 C 
ATOM     25  C   UNL     1       2.664   2.781  20.170  0.00  0.00    +0.000 C 
ATOM     26  C   UNL     1       1.698   1.976  19.289  0.00  0.00    +0.000 C 
ENDBRANCH   1  25
TORSDOF 2
ENDMDL
MODEL 8
REMARK VINA RESULT:      -7.3      1.474      3.374
REMARK  Name = 
REMARK  4 active torsions:
REMARK  status: ('A' for Active; 'I' for Inactive)
REMARK    1  A    between atoms: C_1  and  C_2
REMARK    2  A    between atoms: C_2  and  C_3
REMARK    3  A    between atoms: C_2  and  N_4
REMARK    4  A    between atoms: C_6  and  C_7
REMARK                            x       y       z     vdW  Elec       q    Type
REMARK                         _______ _______ _______ _____ _____    ______ ____
ROOT
ATOM      1  N   UNL     1       2.777   4.027  19.649  0.00  0.00    +0.000 N 
ATOM      2  N   UNL     1       2.189   5.076  20.204  0.00  0.00    +0.000 NA
ATOM      3  C   UNL     1       2.504   6.184  19.489  0.00  0.00    +0.000 A 
ATOM      4  C   UNL     1       3.383   5.811  18.462  0.00  0.00    +0.000 A 
ATOM      5  C   UNL     1       4.121   6.441  17.440  0.00  0.00    +0.000 A 
ATOM      6  N   UNL     1       4.223   7.844  17.299  0.00  0.00    +0.000 N 
ATOM      7  N   UNL     1       4.857   5.648  16.604  0.00  0.00    +0.000 NA
ATOM      8  C   UNL     1       4.908   4.290  16.752  0.00  0.00    +0.000 A 
ATOM      9  N   UNL     1       4.238   3.685  17.769  0.00  0.00    +0.000 NA
ATOM     10  C   UNL     1       3.493   4.454  18.596  0.00  0.00    +0.000 A 
ATOM     11  H   UNL     1       3.924   8.481  18.044  0.00  0.00    +0.000 HD
ATOM     12  H   UNL     1       4.785   8.238  16.531  0.00  0.00    +0.000 HD
ENDROOT
BRANCH   3  13
ATOM     13  C   UNL     1       1.841   7.463  19.801  0.00  0.00    +0.000 A 
ATOM     14  C   UNL     1       1.291   7.854  21.020  0.00  0.00    +0.000 A 
ATOM     15  C   UNL     1       0.917   9.168  20.851  0.00  0.00    +0.000 A 
ATOM     16  C   UNL     1       0.350  10.076  21.745  0.00  0.00    +0.000 A 
ATOM     17 CL   UNL     1      -0.039   9.619  23.395  0.00  0.00    +0.000 Cl
ATOM     18  C   UNL     1       0.116  11.386  21.285  0.00  0.00    +0.000 A 
ATOM     19  C   UNL     1       0.443  11.749  19.959  0.00  0.00    +0.000 A 
ATOM     20  C   UNL     1       1.010  10.808  19.081  0.00  0.00    +0.000 A 
ATOM     21  C   UNL     1       1.238   9.523  19.569  0.00  0.00    +0.000 A 
ATOM     22  N   UNL     1       1.805   8.494  18.921  0.00  0.00    +0.000 N 
ATOM     23  H   UNL     1       2.167   8.498  17.940  0.00  0.00    +0.000 HD
ENDBRANCH   3  13
BRANCH   1  25
ATOM     24  C   UNL     1       2.274   2.690  21.618  0.00  0.00    +0.000 C 
ATOM     25  C   UNL     1       2.682   2.653  20.147  0.00  0.00    +0.000 C 
ATOM     26  C   UNL     1       1.693   1.820  19.321  0.00  0.00    +0.000 C 
ENDBRANCH   1  25
TORSDOF 2
ENDMDL
MODEL 9
REMARK VINA RESULT:      -7.2      1.741      3.439
REMARK  Name = 
REMARK  4 active torsions:
REMARK  status: ('A' for Active; 'I' for Inactive)
REMARK    1  A    between atoms: C_1  and  C_2
REMARK    2  A    between atoms: C_2  and  C_3
REMARK    3  A    between atoms: C_2  and  N_4
REMARK    4  A    between atoms: C_6  and  C_7
REMARK                            x       y       z     vdW  Elec       q    Type
REMARK                         _______ _______ _______ _____ _____    ______ ____
ROOT
ATOM      1  N   UNL     1       2.870   3.703  17.860  0.00  0.00    +0.000 N 
ATOM      2  N   UNL     1       2.234   4.689  18.475  0.00  0.00    +0.000 NA
ATOM      3  C   UNL     1       2.897   5.849  18.244  0.00  0.00    +0.000 A 
ATOM      4  C   UNL     1       4.041   5.560  17.487  0.00  0.00    +0.000 A 
ATOM      5  C   UNL     1       5.157   6.253  16.975  0.00  0.00    +0.000 A 
ATOM      6  N   UNL     1       5.446   7.603  17.279  0.00  0.00    +0.000 N 
ATOM      7  N   UNL     1       6.056   5.547  16.225  0.00  0.00    +0.000 NA
ATOM      8  C   UNL     1       5.910   4.210  15.988  0.00  0.00    +0.000 A 
ATOM      9  N   UNL     1       4.863   3.528  16.524  0.00  0.00    +0.000 NA
ATOM     10  C   UNL     1       3.955   4.214  17.256  0.00  0.00    +0.000 A 
ATOM     11  H   UNL     1       4.968   8.095  18.040  0.00  0.00    +0.000 HD
ATOM     12  H   UNL     1       6.282   8.047  16.875  0.00  0.00    +0.000 HD
ENDROOT
BRANCH   3  13
ATOM     13  C   UNL     1       2.302   7.125  18.681  0.00  0.00    +0.000 A 
ATOM     14  C   UNL     1       1.883   7.465  19.965  0.00  0.00    +0.000 A 
ATOM     15  C   UNL     1       1.530   8.794  19.898  0.00  0.00    +0.000 A 
ATOM     16  C   UNL     1       1.077   9.668  20.886  0.00  0.00    +0.000 A 
ATOM     17 CL   UNL     1       0.835   9.136  22.542  0.00  0.00    +0.000 Cl
ATOM     18  C   UNL     1       0.835  11.005  20.516  0.00  0.00    +0.000 A 
ATOM     19  C   UNL     1       1.043  11.427  19.184  0.00  0.00    +0.000 A 
ATOM     20  C   UNL     1       1.497  10.520  18.210  0.00  0.00    +0.000 A 
ATOM     21  C   UNL     1       1.736   9.207  18.610  0.00  0.00    +0.000 A 
ATOM     22  N   UNL     1       2.210   8.200  17.860  0.00  0.00    +0.000 N 
ATOM     23  H   UNL     1       2.475   8.246  16.850  0.00  0.00    +0.000 HD
ENDBRANCH   3  13
BRANCH   1  25
ATOM     24  C   UNL     1       3.544   1.485  18.599  0.00  0.00    +0.000 C 
ATOM     25  C   UNL     1       2.463   2.297  17.889  0.00  0.00    +0.000 C 
ATOM     26  C   UNL     1       1.101   2.117  18.574  0.00  0.00    +0.000 C 
ENDBRANCH   1  25
TORSDOF 2
ENDMDL
