MODEL 1
REMARK VINA RESULT:      -7.8      0.000      0.000
REMARK  Name = 
REMARK  5 active torsions:
REMARK  status: ('A' for Active; 'I' for Inactive)
REMARK    1  A    between atoms: C_1  and  N_2
REMARK    2  A    between atoms: N_5  and  C_6
REMARK    3  A    between atoms: C_9  and  C_10
REMARK    4  A    between atoms: N_11  and  N_12
REMARK    5  A    between atoms: C_13  and  C_15
REMARK                            x       y       z     vdW  Elec       q    Type
REMARK                         _______ _______ _______ _____ _____    ______ ____
ROOT
ATOM      1  C   UNL     1       1.273   9.127  19.486  0.00  0.00    +0.000 C 
ATOM      2  N   UNL     1       0.766   9.207  20.672  0.00  0.00    +0.000 NA
ENDROOT
BRANCH   1  11
ATOM      3  C   UNL     1       5.226   4.132  17.221  0.00  0.00    +0.000 C 
ATOM      4  N   UNL     1       4.303   4.528  18.244  0.00  0.00    +0.000 N 
ATOM      5  C   UNL     1       3.905   3.700  19.316  0.00  0.00    +0.000 A 
ATOM      6  O   UNL     1       4.268   2.556  19.540  0.00  0.00    +0.000 OA
ATOM      7  N   UNL     1       2.995   4.462  20.079  0.00  0.00    +0.000 N 
ATOM      8  C   UNL     1       2.346   4.022  21.279  0.00  0.00    +0.000 C 
ATOM      9  C   UNL     1       2.843   5.728  19.490  0.00  0.00    +0.000 A 
ATOM     10  C   UNL     1       2.061   6.799  19.888  0.00  0.00    +0.000 A 
ATOM     11  C   UNL     1       2.099   7.952  19.096  0.00  0.00    +0.000 A 
ATOM     12  C   UNL     1       2.925   7.999  17.947  0.00  0.00    +0.000 A 
ATOM     13  C   UNL     1       3.711   6.897  17.562  0.00  0.00    +0.000 A 
ATOM     14  C   UNL     1       3.652   5.767  18.353  0.00  0.00    +0.000 A 
ENDBRANCH   1  11
BRANCH   2  15
ATOM     15  N   UNL     1       0.019  10.307  20.992  0.00  0.00    +0.000 N 
ATOM     16  C   UNL     1      -0.172  10.602  22.342  0.00  0.00    +0.000 C 
ATOM     17  O   UNL     1       0.282   9.943  23.274  0.00  0.00    +0.000 OA
ATOM     18  H   UNL     1      -0.287  10.939  20.262  0.00  0.00    +0.000 HD
BRANCH  16  19
ATOM     19  C   UNL     1      -0.970  11.819  22.665  0.00  0.00    +0.000 A 
ATOM     20  C   UNL     1      -0.570  13.102  22.271  0.00  0.00    +0.000 A 
ATOM     21  C   UNL     1      -1.383  14.205  22.552  0.00  0.00    +0.000 A 
ATOM     22  C   UNL     1      -2.596  14.033  23.224  0.00  0.00    +0.000 A 
ATOM     23  C   UNL     1      -2.998  12.754  23.605  0.00  0.00    +0.000 A 
ATOM     24 BR   UNL     1      -4.650  12.520  24.496  0.00  0.00    +0.000 Br
ATOM     25  C   UNL     1      -2.198  11.648  23.323  0.00  0.00    +0.000 A 
ENDBRANCH  16  19
ENDBRANCH   2  15
TORSDOF 3
ENDMDL
MODEL 2
REMARK VINA RESULT:      -7.8      4.997      9.832
REMARK  Name = 
REMARK  5 active torsions:
REMARK  status: ('A' for Active; 'I' for Inactive)
REMARK    1  A    between atoms: C_1  and  N_2
REMARK    2  A    between atoms: N_5  and  C_6
REMARK    3  A    between atoms: C_9  and  C_10
REMARK    4  A    between atoms: N_11  and  N_12
REMARK    5  A    between atoms: C_13  and  C_15
REMARK                            x       y       z     vdW  Elec       q    Type
REMARK                         _______ _______ _______ _____ _____    ______ ____
ROOT
ATOM      1  C   UNL     1       1.718   9.535  18.277  0.00  0.00    +0.000 C 
ATOM      2  N   UNL     1       1.818   8.269  18.037  0.00  0.00    +0.000 NA
ENDROOT
BRANCH   1  11
ATOM      3  C   UNL     1      -4.108  12.567  19.882  0.00  0.00    +0.000 C 
ATOM      4  N   UNL     1      -3.422  11.790  18.892  0.00  0.00    +0.000 N 
ATOM      5  C   UNL     1      -4.001  11.363  17.678  0.00  0.00    +0.000 A 
ATOM      6  O   UNL     1      -5.136  11.579  17.285  0.00  0.00    +0.000 OA
ATOM      7  N   UNL     1      -3.001  10.629  17.005  0.00  0.00    +0.000 N 
ATOM      8  C   UNL     1      -3.144  10.019  15.716  0.00  0.00    +0.000 C 
ATOM      9  C   UNL     1      -1.834  10.611  17.789  0.00  0.00    +0.000 A 
ATOM     10  C   UNL     1      -0.609  10.019  17.535  0.00  0.00    +0.000 A 
ATOM     11  C   UNL     1       0.386  10.157  18.509  0.00  0.00    +0.000 A 
ATOM     12  C   UNL     1       0.127  10.891  19.692  0.00  0.00    +0.000 A 
ATOM     13  C   UNL     1      -1.127  11.483  19.928  0.00  0.00    +0.000 A 
ATOM     14  C   UNL     1      -2.097  11.328  18.957  0.00  0.00    +0.000 A 
ENDBRANCH   1  11
BRANCH   2  15
ATOM     15  N   UNL     1       3.060   7.739  17.822  0.00  0.00    +0.000 N 
ATOM     16  C   UNL     1       3.228   6.365  17.997  0.00  0.00    +0.000 C 
ATOM     17  O   UNL     1       2.338   5.587  18.332  0.00  0.00    +0.000 OA
ATOM     18  H   UNL     1       3.798   8.320  17.443  0.00  0.00    +0.000 HD
BRANCH  16  19
ATOM     19  C   UNL     1       4.586   5.809  17.735  0.00  0.00    +0.000 A 
ATOM     20  C   UNL     1       5.499   5.547  18.764  0.00  0.00    +0.000 A 
ATOM     21  C   UNL     1       6.740   4.973  18.470  0.00  0.00    +0.000 A 
ATOM     22  C   UNL     1       7.075   4.658  17.150  0.00  0.00    +0.000 A 
ATOM     23  C   UNL     1       6.161   4.908  16.128  0.00  0.00    +0.000 A 
ATOM     24 BR   UNL     1       6.606   4.461  14.346  0.00  0.00    +0.000 Br
ATOM     25  C   UNL     1       4.919   5.473  16.413  0.00  0.00    +0.000 A 
ENDBRANCH  16  19
ENDBRANCH   2  15
TORSDOF 3
ENDMDL
MODEL 3
REMARK VINA RESULT:      -7.5      0.994      2.067
REMARK  Name = 
REMARK  5 active torsions:
REMARK  status: ('A' for Active; 'I' for Inactive)
REMARK    1  A    between atoms: C_1  and  N_2
REMARK    2  A    between atoms: N_5  and  C_6
REMARK    3  A    between atoms: C_9  and  C_10
REMARK    4  A    between atoms: N_11  and  N_12
REMARK    5  A    between atoms: C_13  and  C_15
REMARK                            x       y       z     vdW  Elec       q    Type
REMARK                         _______ _______ _______ _____ _____    ______ ____
ROOT
ATOM      1  C   UNL     1       1.200   8.682  19.992  0.00  0.00    +0.000 C 
ATOM      2  N   UNL     1       0.517   8.831  21.079  0.00  0.00    +0.000 NA
ENDROOT
BRANCH   1  11
ATOM      3  C   UNL     1       4.370   2.743  19.372  0.00  0.00    +0.000 C 
ATOM      4  N   UNL     1       4.211   4.054  18.813  0.00  0.00    +0.000 N 
ATOM      5  C   UNL     1       4.897   4.518  17.670  0.00  0.00    +0.000 A 
ATOM      6  O   UNL     1       5.706   3.902  16.995  0.00  0.00    +0.000 OA
ATOM      7  N   UNL     1       4.462   5.844  17.465  0.00  0.00    +0.000 N 
ATOM      8  C   UNL     1       4.887   6.702  16.399  0.00  0.00    +0.000 C 
ATOM      9  C   UNL     1       3.526   6.182  18.458  0.00  0.00    +0.000 A 
ATOM     10  C   UNL     1       2.837   7.367  18.653  0.00  0.00    +0.000 A 
ATOM     11  C   UNL     1       1.961   7.428  19.743  0.00  0.00    +0.000 A 
ATOM     12  C   UNL     1       1.796   6.303  20.588  0.00  0.00    +0.000 A 
ATOM     13  C   UNL     1       2.509   5.110  20.369  0.00  0.00    +0.000 A 
ATOM     14  C   UNL     1       3.373   5.074  19.293  0.00  0.00    +0.000 A 
ENDBRANCH   1  11
BRANCH   2  15
ATOM     15  N   UNL     1      -0.162  10.002  21.272  0.00  0.00    +0.000 N 
ATOM     16  C   UNL     1      -0.320  10.463  22.578  0.00  0.00    +0.000 C 
ATOM     17  O   UNL     1       0.107   9.893  23.579  0.00  0.00    +0.000 OA
ATOM     18  H   UNL     1      -0.441  10.561  20.474  0.00  0.00    +0.000 HD
BRANCH  16  19
ATOM     19  C   UNL     1      -1.044  11.753  22.760  0.00  0.00    +0.000 A 
ATOM     20  C   UNL     1      -0.521  12.974  22.315  0.00  0.00    +0.000 A 
ATOM     21  C   UNL     1      -1.266  14.149  22.461  0.00  0.00    +0.000 A 
ATOM     22  C   UNL     1      -2.532  14.111  23.050  0.00  0.00    +0.000 A 
ATOM     23  C   UNL     1      -3.056  12.895  23.482  0.00  0.00    +0.000 A 
ATOM     24 BR   UNL     1      -4.780  12.842  24.259  0.00  0.00    +0.000 Br
ATOM     25  C   UNL     1      -2.325  11.717  23.334  0.00  0.00    +0.000 A 
ENDBRANCH  16  19
ENDBRANCH   2  15
TORSDOF 3
ENDMDL
MODEL 4
REMARK VINA RESULT:      -7.5      8.206     11.644
REMARK  Name = 
REMARK  5 active torsions:
REMARK  status: ('A' for Active; 'I' for Inactive)
REMARK    1  A    between atoms: C_1  and  N_2
REMARK    2  A    between atoms: N_5  and  C_6
REMARK    3  A    between atoms: C_9  and  C_10
REMARK    4  A    between atoms: N_11  and  N_12
REMARK    5  A    between atoms: C_13  and  C_15
REMARK                            x       y       z     vdW  Elec       q    Type
REMARK                         _______ _______ _______ _____ _____    ______ ____
ROOT
ATOM      1  C   UNL     1       8.051  10.280  17.602  0.00  0.00    +0.000 C 
ATOM      2  N   UNL     1       8.434   9.060  17.785  0.00  0.00    +0.000 NA
ENDROOT
BRANCH   1  11
ATOM      3  C   UNL     1      12.331  15.002  19.859  0.00  0.00    +0.000 C 
ATOM      4  N   UNL     1      11.055  14.769  19.248  0.00  0.00    +0.000 N 
ATOM      5  C   UNL     1      10.151  15.789  18.885  0.00  0.00    +0.000 A 
ATOM      6  O   UNL     1      10.301  16.993  19.024  0.00  0.00    +0.000 OA
ATOM      7  N   UNL     1       9.029  15.138  18.329  0.00  0.00    +0.000 N 
ATOM      8  C   UNL     1       7.865  15.790  17.806  0.00  0.00    +0.000 C 
ATOM      9  C   UNL     1       9.245  13.749  18.348  0.00  0.00    +0.000 A 
ATOM     10  C   UNL     1       8.427  12.723  17.908  0.00  0.00    +0.000 A 
ATOM     11  C   UNL     1       8.899  11.415  18.060  0.00  0.00    +0.000 A 
ATOM     12  C   UNL     1      10.173  11.180  18.631  0.00  0.00    +0.000 A 
ATOM     13  C   UNL     1      10.987  12.240  19.071  0.00  0.00    +0.000 A 
ATOM     14  C   UNL     1      10.498  13.522  18.919  0.00  0.00    +0.000 A 
ENDBRANCH   1  11
BRANCH   2  15
ATOM     15  N   UNL     1       7.622   8.047  17.355  0.00  0.00    +0.000 N 
ATOM     16  C   UNL     1       7.624   6.853  18.076  0.00  0.00    +0.000 C 
ATOM     17  O   UNL     1       8.305   6.638  19.075  0.00  0.00    +0.000 OA
ATOM     18  H   UNL     1       6.965   8.211  16.602  0.00  0.00    +0.000 HD
BRANCH  16  19
ATOM     19  C   UNL     1       6.713   5.772  17.601  0.00  0.00    +0.000 A 
ATOM     20  C   UNL     1       5.782   5.154  18.445  0.00  0.00    +0.000 A 
ATOM     21  C   UNL     1       4.912   4.183  17.936  0.00  0.00    +0.000 A 
ATOM     22  C   UNL     1       4.968   3.826  16.586  0.00  0.00    +0.000 A 
ATOM     23  C   UNL     1       5.888   4.450  15.745  0.00  0.00    +0.000 A 
ATOM     24 BR   UNL     1       5.947   3.982  13.914  0.00  0.00    +0.000 Br
ATOM     25  C   UNL     1       6.753   5.424  16.241  0.00  0.00    +0.000 A 
ENDBRANCH  16  19
ENDBRANCH   2  15
TORSDOF 3
ENDMDL
MODEL 5
REMARK VINA RESULT:      -7.4      4.510      9.845
REMARK  Name = 
REMARK  5 active torsions:
REMARK  status: ('A' for Active; 'I' for Inactive)
REMARK    1  A    between atoms: C_1  and  N_2
REMARK    2  A    between atoms: N_5  and  C_6
REMARK    3  A    between atoms: C_9  and  C_10
REMARK    4  A    between atoms: N_11  and  N_12
REMARK    5  A    between atoms: C_13  and  C_15
REMARK                            x       y       z     vdW  Elec       q    Type
REMARK                         _______ _______ _______ _____ _____    ______ ____
ROOT
ATOM      1  C   UNL     1       1.788   9.466  17.888  0.00  0.00    +0.000 C 
ATOM      2  N   UNL     1       2.007   8.221  18.159  0.00  0.00    +0.000 NA
ENDROOT
BRANCH   1  11
ATOM      3  C   UNL     1      -4.376  12.003  19.019  0.00  0.00    +0.000 C 
ATOM      4  N   UNL     1      -3.007  12.008  19.445  0.00  0.00    +0.000 N 
ATOM      5  C   UNL     1      -2.512  12.786  20.513  0.00  0.00    +0.000 A 
ATOM      6  O   UNL     1      -3.144  13.551  21.224  0.00  0.00    +0.000 OA
ATOM      7  N   UNL     1      -1.132  12.504  20.594  0.00  0.00    +0.000 N 
ATOM      8  C   UNL     1      -0.225  13.063  21.554  0.00  0.00    +0.000 C 
ATOM      9  C   UNL     1      -0.791  11.571  19.600  0.00  0.00    +0.000 A 
ATOM     10  C   UNL     1       0.437  11.005  19.305  0.00  0.00    +0.000 A 
ATOM     11  C   UNL     1       0.487  10.098  18.241  0.00  0.00    +0.000 A 
ATOM     12  C   UNL     1      -0.690   9.779  17.521  0.00  0.00    +0.000 A 
ATOM     13  C   UNL     1      -1.928  10.368  17.840  0.00  0.00    +0.000 A 
ATOM     14  C   UNL     1      -1.953  11.266  18.888  0.00  0.00    +0.000 A 
ENDBRANCH   1  11
BRANCH   2  15
ATOM     15  N   UNL     1       3.213   7.677  17.811  0.00  0.00    +0.000 N 
ATOM     16  C   UNL     1       3.408   6.315  18.034  0.00  0.00    +0.000 C 
ATOM     17  O   UNL     1       2.573   5.558  18.523  0.00  0.00    +0.000 OA
ATOM     18  H   UNL     1       3.892   8.236  17.309  0.00  0.00    +0.000 HD
BRANCH  16  19
ATOM     19  C   UNL     1       4.721   5.741  17.625  0.00  0.00    +0.000 A 
ATOM     20  C   UNL     1       5.777   5.571  18.529  0.00  0.00    +0.000 A 
ATOM     21  C   UNL     1       6.972   4.977  18.106  0.00  0.00    +0.000 A 
ATOM     22  C   UNL     1       7.117   4.552  16.783  0.00  0.00    +0.000 A 
ATOM     23  C   UNL     1       6.061   4.712  15.887  0.00  0.00    +0.000 A 
ATOM     24 BR   UNL     1       6.251   4.115  14.103  0.00  0.00    +0.000 Br
ATOM     25  C   UNL     1       4.865   5.295  16.301  0.00  0.00    +0.000 A 
ENDBRANCH  16  19
ENDBRANCH   2  15
TORSDOF 3
ENDMDL
MODEL 6
REMARK VINA RESULT:      -7.4      1.215      1.274
REMARK  Name = 
REMARK  5 active torsions:
REMARK  status: ('A' for Active; 'I' for Inactive)
REMARK    1  A    between atoms: C_1  and  N_2
REMARK    2  A    between atoms: N_5  and  C_6
REMARK    3  A    between atoms: C_9  and  C_10
REMARK    4  A    between atoms: N_11  and  N_12
REMARK    5  A    between atoms: C_13  and  C_15
REMARK                            x       y       z     vdW  Elec       q    Type
REMARK                         _______ _______ _______ _____ _____    ______ ____
ROOT
ATOM      1  C   UNL     1       1.199   8.318  21.212  0.00  0.00    +0.000 C 
ATOM      2  N   UNL     1       0.110   8.919  20.861  0.00  0.00    +0.000 NA
ENDROOT
BRANCH   1  11
ATOM      3  C   UNL     1       3.972   3.907  16.903  0.00  0.00    +0.000 C 
ATOM      4  N   UNL     1       3.336   4.062  18.179  0.00  0.00    +0.000 N 
ATOM      5  C   UNL     1       3.075   2.999  19.069  0.00  0.00    +0.000 A 
ATOM      6  O   UNL     1       3.338   1.818  18.906  0.00  0.00    +0.000 OA
ATOM      7  N   UNL     1       2.441   3.575  20.191  0.00  0.00    +0.000 N 
ATOM      8  C   UNL     1       2.009   2.863  21.357  0.00  0.00    +0.000 C 
ATOM      9  C   UNL     1       2.321   4.961  19.992  0.00  0.00    +0.000 A 
ATOM     10  C   UNL     1       1.771   5.926  20.818  0.00  0.00    +0.000 A 
ATOM     11  C   UNL     1       1.780   7.247  20.357  0.00  0.00    +0.000 A 
ATOM     12  C   UNL     1       2.348   7.558  19.097  0.00  0.00    +0.000 A 
ATOM     13  C   UNL     1       2.900   6.558  18.275  0.00  0.00    +0.000 A 
ATOM     14  C   UNL     1       2.874   5.261  18.746  0.00  0.00    +0.000 A 
ENDBRANCH   1  11
BRANCH   2  15
ATOM     15  N   UNL     1      -0.395   9.892  21.679  0.00  0.00    +0.000 N 
ATOM     16  C   UNL     1      -0.305  11.218  21.257  0.00  0.00    +0.000 C 
ATOM     17  O   UNL     1       0.197  11.584  20.197  0.00  0.00    +0.000 OA
ATOM     18  H   UNL     1      -0.912   9.633  22.511  0.00  0.00    +0.000 HD
BRANCH  16  19
ATOM     19  C   UNL     1      -0.883  12.257  22.156  0.00  0.00    +0.000 A 
ATOM     20  C   UNL     1      -0.308  13.526  22.299  0.00  0.00    +0.000 A 
ATOM     21  C   UNL     1      -0.921  14.484  23.114  0.00  0.00    +0.000 A 
ATOM     22  C   UNL     1      -2.107  14.180  23.788  0.00  0.00    +0.000 A 
ATOM     23  C   UNL     1      -2.684  12.921  23.636  0.00  0.00    +0.000 A 
ATOM     24 BR   UNL     1      -4.301  12.519  24.530  0.00  0.00    +0.000 Br
ATOM     25  C   UNL     1      -2.085  11.963  22.820  0.00  0.00    +0.000 A 
ENDBRANCH  16  19
ENDBRANCH   2  15
TORSDOF 3
ENDMDL
MODEL 7
REMARK VINA RESULT:      -7.4      6.829      8.967
REMARK  Name = 
REMARK  5 active torsions:
REMARK  status: ('A' for Active; 'I' for Inactive)
REMARK    1  A    between atoms: C_1  and  N_2
REMARK    2  A    between atoms: N_5  and  C_6
REMARK    3  A    between atoms: C_9  and  C_10
REMARK    4  A    between atoms: N_11  and  N_12
REMARK    5  A    between atoms: C_13  and  C_15
REMARK                            x       y       z     vdW  Elec       q    Type
REMARK                         _______ _______ _______ _____ _____    ______ ____
ROOT
ATOM      1  C   UNL     1       7.681   8.234  17.371  0.00  0.00    +0.000 C 
ATOM      2  N   UNL     1       8.273   8.791  18.376  0.00  0.00    +0.000 NA
ENDROOT
BRANCH   1  11
ATOM      3  C   UNL     1       4.106   2.572  18.302  0.00  0.00    +0.000 C 
ATOM      4  N   UNL     1       4.033   3.996  18.150  0.00  0.00    +0.000 N 
ATOM      5  C   UNL     1       2.831   4.734  18.163  0.00  0.00    +0.000 A 
ATOM      6  O   UNL     1       1.699   4.299  18.303  0.00  0.00    +0.000 OA
ATOM      7  N   UNL     1       3.199   6.084  17.978  0.00  0.00    +0.000 N 
ATOM      8  C   UNL     1       2.294   7.194  17.942  0.00  0.00    +0.000 C 
ATOM      9  C   UNL     1       4.597   6.169  17.859  0.00  0.00    +0.000 A 
ATOM     10  C   UNL     1       5.400   7.280  17.668  0.00  0.00    +0.000 A 
ATOM     11  C   UNL     1       6.780   7.068  17.576  0.00  0.00    +0.000 A 
ATOM     12  C   UNL     1       7.308   5.759  17.691  0.00  0.00    +0.000 A 
ATOM     13  C   UNL     1       6.470   4.644  17.883  0.00  0.00    +0.000 A 
ATOM     14  C   UNL     1       5.112   4.876  17.963  0.00  0.00    +0.000 A 
ENDBRANCH   1  11
BRANCH   2  15
ATOM     15  N   UNL     1       9.099   9.855  18.143  0.00  0.00    +0.000 N 
ATOM     16  C   UNL     1       9.479  10.643  19.230  0.00  0.00    +0.000 C 
ATOM     17  O   UNL     1       9.126  10.452  20.391  0.00  0.00    +0.000 OA
ATOM     18  H   UNL     1       9.501   9.990  17.223  0.00  0.00    +0.000 HD
BRANCH  16  19
ATOM     19  C   UNL     1      10.398  11.783  18.953  0.00  0.00    +0.000 A 
ATOM     20  C   UNL     1      11.269  11.793  17.857  0.00  0.00    +0.000 A 
ATOM     21  C   UNL     1      12.072  12.913  17.610  0.00  0.00    +0.000 A 
ATOM     22  C   UNL     1      12.008  14.024  18.455  0.00  0.00    +0.000 A 
ATOM     23  C   UNL     1      11.132  14.017  19.539  0.00  0.00    +0.000 A 
ATOM     24 BR   UNL     1      11.031  15.531  20.668  0.00  0.00    +0.000 Br
ATOM     25  C   UNL     1      10.323  12.910  19.788  0.00  0.00    +0.000 A 
ENDBRANCH  16  19
ENDBRANCH   2  15
TORSDOF 3
ENDMDL
MODEL 8
REMARK VINA RESULT:      -7.4      1.327      1.647
REMARK  Name = 
REMARK  5 active torsions:
REMARK  status: ('A' for Active; 'I' for Inactive)
REMARK    1  A    between atoms: C_1  and  N_2
REMARK    2  A    between atoms: N_5  and  C_6
REMARK    3  A    between atoms: C_9  and  C_10
REMARK    4  A    between atoms: N_11  and  N_12
REMARK    5  A    between atoms: C_13  and  C_15
REMARK                            x       y       z     vdW  Elec       q    Type
REMARK                         _______ _______ _______ _____ _____    ______ ____
ROOT
ATOM      1  C   UNL     1       0.883   9.719  19.660  0.00  0.00    +0.000 C 
ATOM      2  N   UNL     1       0.440   9.740  20.874  0.00  0.00    +0.000 NA
ENDROOT
BRANCH   1  11
ATOM      3  C   UNL     1       4.917   4.981  17.018  0.00  0.00    +0.000 C 
ATOM      4  N   UNL     1       4.043   5.305  18.106  0.00  0.00    +0.000 N 
ATOM      5  C   UNL     1       3.751   4.433  19.177  0.00  0.00    +0.000 A 
ATOM      6  O   UNL     1       4.181   3.303  19.347  0.00  0.00    +0.000 OA
ATOM      7  N   UNL     1       2.856   5.130  20.016  0.00  0.00    +0.000 N 
ATOM      8  C   UNL     1       2.305   4.629  21.241  0.00  0.00    +0.000 C 
ATOM      9  C   UNL     1       2.609   6.402  19.473  0.00  0.00    +0.000 A 
ATOM     10  C   UNL     1       1.803   7.423  19.947  0.00  0.00    +0.000 A 
ATOM     11  C   UNL     1       1.737   8.596  19.187  0.00  0.00    +0.000 A 
ATOM     12  C   UNL     1       2.486   8.712  17.991  0.00  0.00    +0.000 A 
ATOM     13  C   UNL     1       3.298   7.659  17.528  0.00  0.00    +0.000 A 
ATOM     14  C   UNL     1       3.342   6.509  18.290  0.00  0.00    +0.000 A 
ENDBRANCH   1  11
BRANCH   2  15
ATOM     15  N   UNL     1      -0.336  10.794  21.270  0.00  0.00    +0.000 N 
ATOM     16  C   UNL     1      -0.633  10.919  22.627  0.00  0.00    +0.000 C 
ATOM     17  O   UNL     1      -0.249  10.147  23.502  0.00  0.00    +0.000 OA
ATOM     18  H   UNL     1      -0.588  11.514  20.603  0.00  0.00    +0.000 HD
BRANCH  16  19
ATOM     19  C   UNL     1      -1.461  12.088  23.036  0.00  0.00    +0.000 A 
ATOM     20  C   UNL     1      -2.774  11.949  23.502  0.00  0.00    +0.000 A 
ATOM     21  C   UNL     1      -3.490  13.075  23.926  0.00  0.00    +0.000 A 
ATOM     22  C   UNL     1      -2.899  14.340  23.886  0.00  0.00    +0.000 A 
ATOM     23  C   UNL     1      -1.588  14.476  23.433  0.00  0.00    +0.000 A 
ATOM     24 BR   UNL     1      -0.782  16.187  23.401  0.00  0.00    +0.000 Br
ATOM     25  C   UNL     1      -0.865  13.360  23.017  0.00  0.00    +0.000 A 
ENDBRANCH  16  19
ENDBRANCH   2  15
TORSDOF 3
ENDMDL
MODEL 9
REMARK VINA RESULT:      -7.4      4.103      9.799
REMARK  Name = 
REMARK  5 active torsions:
REMARK  status: ('A' for Active; 'I' for Inactive)
REMARK    1  A    between atoms: C_1  and  N_2
REMARK    2  A    between atoms: N_5  and  C_6
REMARK    3  A    between atoms: C_9  and  C_10
REMARK    4  A    between atoms: N_11  and  N_12
REMARK    5  A    between atoms: C_13  and  C_15
REMARK                            x       y       z     vdW  Elec       q    Type
REMARK                         _______ _______ _______ _____ _____    ______ ____
ROOT
ATOM      1  C   UNL     1       0.965   8.413  21.103  0.00  0.00    +0.000 C 
ATOM      2  N   UNL     1       1.651   8.415  20.007  0.00  0.00    +0.000 NA
ENDROOT
BRANCH   1  11
ATOM      3  C   UNL     1      -2.124  13.771  23.836  0.00  0.00    +0.000 C 
ATOM      4  N   UNL     1      -1.180  13.336  22.848  0.00  0.00    +0.000 N 
ATOM      5  C   UNL     1      -0.494  14.203  21.970  0.00  0.00    +0.000 A 
ATOM      6  O   UNL     1      -0.587  15.419  21.912  0.00  0.00    +0.000 OA
ATOM      7  N   UNL     1       0.322  13.379  21.167  0.00  0.00    +0.000 N 
ATOM      8  C   UNL     1       1.212  13.840  20.141  0.00  0.00    +0.000 C 
ATOM      9  C   UNL     1       0.143  12.039  21.547  0.00  0.00    +0.000 A 
ATOM     10  C   UNL     1       0.732  10.892  21.043  0.00  0.00    +0.000 A 
ATOM     11  C   UNL     1       0.356   9.671  21.614  0.00  0.00    +0.000 A 
ATOM     12  C   UNL     1      -0.582   9.641  22.675  0.00  0.00    +0.000 A 
ATOM     13  C   UNL     1      -1.168  10.821  23.170  0.00  0.00    +0.000 A 
ATOM     14  C   UNL     1      -0.789  12.013  22.586  0.00  0.00    +0.000 A 
ENDBRANCH   1  11
BRANCH   2  15
ATOM     15  N   UNL     1       2.200   7.239  19.576  0.00  0.00    +0.000 N 
ATOM     16  C   UNL     1       2.742   7.198  18.292  0.00  0.00    +0.000 C 
ATOM     17  O   UNL     1       2.764   8.145  17.510  0.00  0.00    +0.000 OA
ATOM     18  H   UNL     1       2.300   6.463  20.220  0.00  0.00    +0.000 HD
BRANCH  16  19
ATOM     19  C   UNL     1       3.353   5.911  17.854  0.00  0.00    +0.000 A 
ATOM     20  C   UNL     1       2.713   4.679  18.033  0.00  0.00    +0.000 A 
ATOM     21  C   UNL     1       3.306   3.506  17.554  0.00  0.00    +0.000 A 
ATOM     22  C   UNL     1       4.538   3.558  16.896  0.00  0.00    +0.000 A 
ATOM     23  C   UNL     1       5.169   4.786  16.709  0.00  0.00    +0.000 A 
ATOM     24 BR   UNL     1       6.825   4.857  15.798  0.00  0.00    +0.000 Br
ATOM     25  C   UNL     1       4.582   5.961  17.175  0.00  0.00    +0.000 A 
ENDBRANCH  16  19
ENDBRANCH   2  15
TORSDOF 3
ENDMDL
