MODEL 1
REMARK VINA RESULT:      -7.9      0.000      0.000
REMARK  Name = 
REMARK  8 active torsions:
REMARK  status: ('A' for Active; 'I' for Inactive)
REMARK    1  A    between atoms: C_1  and  C_2
REMARK    2  A    between atoms: C_2  and  C_3
REMARK    3  A    between atoms: C_2  and  C_4
REMARK    4  A    between atoms: C_4  and  C_5
REMARK    5  A    between atoms: C_5  and  N_6
REMARK    6  A    between atoms: C_7  and  C_9
REMARK    7  A    between atoms: C_9  and  N_10
REMARK    8  A    between atoms: N_10  and  C_11
REMARK                            x       y       z     vdW  Elec       q    Type
REMARK                         _______ _______ _______ _____ _____    ______ ____
ROOT
ATOM      1  N   UNL     1       6.689   4.309  18.547  0.00  0.00    +0.000 N 
ATOM      2  H   UNL     1       7.115   3.478  18.124  0.00  0.00    +0.000 HD
ENDROOT
BRANCH   1   3
ATOM      3  C   UNL     1       5.543   4.101  19.273  0.00  0.00    +0.000 C 
ATOM      4  C   UNL     1       4.359   3.662  18.828  0.00  0.00    +0.000 C 
ATOM      5  C   UNL     1       4.068   3.287  17.400  0.00  0.00    +0.000 C 
ATOM      6  O   UNL     1       4.849   3.239  16.467  0.00  0.00    +0.000 OA
ATOM      7  N   UNL     1       2.714   2.989  17.381  0.00  0.00    +0.000 N 
ATOM      8  C   UNL     1       2.154   3.097  18.650  0.00  0.00    +0.000 A 
ATOM      9  C   UNL     1       0.840   2.859  18.996  0.00  0.00    +0.000 A 
ATOM     10  C   UNL     1       0.493   3.010  20.340  0.00  0.00    +0.000 A 
ATOM     11  C   UNL     1       1.455   3.396  21.292  0.00  0.00    +0.000 A 
ATOM     12  C   UNL     1       2.783   3.644  20.919  0.00  0.00    +0.000 A 
ATOM     13  C   UNL     1       3.120   3.491  19.585  0.00  0.00    +0.000 A 
ATOM     14  H   UNL     1       2.226   2.707  16.545  0.00  0.00    +0.000 HD
ENDBRANCH   1   3
BRANCH   1  15
ATOM     15  C   UNL     1       7.276   5.597  18.168  0.00  0.00    +0.000 C 
BRANCH  15  17
ATOM     16  N   UNL     1       7.353   4.892  15.840  0.00  0.00    +0.000 N 
ATOM     17  C   UNL     1       6.986   5.905  16.692  0.00  0.00    +0.000 C 
ATOM     18  O   UNL     1       6.508   6.969  16.322  0.00  0.00    +0.000 OA
ATOM     19  H   UNL     1       7.823   4.089  16.255  0.00  0.00    +0.000 HD
BRANCH  16  20
ATOM     20  C   UNL     1       7.137   4.950  14.414  0.00  0.00    +0.000 C 
BRANCH  20  21
ATOM     21  C   UNL     1       6.056   3.969  13.956  0.00  0.00    +0.000 C 
BRANCH  21  23
ATOM     22  C   UNL     1       4.957   3.293  11.763  0.00  0.00    +0.000 C 
ATOM     23  C   UNL     1       6.276   3.433  12.526  0.00  0.00    +0.000 C 
ATOM     24  C   UNL     1       7.224   4.348  11.748  0.00  0.00    +0.000 C 
ENDBRANCH  21  23
ENDBRANCH  20  21
ENDBRANCH  16  20
ENDBRANCH  15  17
ENDBRANCH   1  15
TORSDOF 6
ENDMDL
MODEL 2
REMARK VINA RESULT:      -7.7      2.125      2.781
REMARK  Name = 
REMARK  8 active torsions:
REMARK  status: ('A' for Active; 'I' for Inactive)
REMARK    1  A    between atoms: C_1  and  C_2
REMARK    2  A    between atoms: C_2  and  C_3
REMARK    3  A    between atoms: C_2  and  C_4
REMARK    4  A    between atoms: C_4  and  C_5
REMARK    5  A    between atoms: C_5  and  N_6
REMARK    6  A    between atoms: C_7  and  C_9
REMARK    7  A    between atoms: C_9  and  N_10
REMARK    8  A    between atoms: N_10  and  C_11
REMARK                            x       y       z     vdW  Elec       q    Type
REMARK                         _______ _______ _______ _____ _____    ______ ____
ROOT
ATOM      1  N   UNL     1       5.318   4.924  16.135  0.00  0.00    +0.000 N 
ATOM      2  H   UNL     1       4.958   5.818  15.786  0.00  0.00    +0.000 HD
ENDROOT
BRANCH   1   3
ATOM      3  C   UNL     1       4.477   4.207  16.950  0.00  0.00    +0.000 C 
ATOM      4  C   UNL     1       3.615   4.682  17.858  0.00  0.00    +0.000 C 
ATOM      5  C   UNL     1       3.393   6.143  18.145  0.00  0.00    +0.000 C 
ATOM      6  O   UNL     1       3.874   7.098  17.564  0.00  0.00    +0.000 OA
ATOM      7  N   UNL     1       2.502   6.163  19.207  0.00  0.00    +0.000 N 
ATOM      8  C   UNL     1       2.119   4.876  19.572  0.00  0.00    +0.000 A 
ATOM      9  C   UNL     1       1.238   4.530  20.574  0.00  0.00    +0.000 A 
ATOM     10  C   UNL     1       0.980   3.171  20.761  0.00  0.00    +0.000 A 
ATOM     11  C   UNL     1       1.607   2.202  19.954  0.00  0.00    +0.000 A 
ATOM     12  C   UNL     1       2.509   2.573  18.948  0.00  0.00    +0.000 A 
ATOM     13  C   UNL     1       2.758   3.923  18.768  0.00  0.00    +0.000 A 
ATOM     14  H   UNL     1       2.168   7.017  19.626  0.00  0.00    +0.000 HD
ENDBRANCH   1   3
BRANCH   1  15
ATOM     15  C   UNL     1       6.725   4.638  15.843  0.00  0.00    +0.000 C 
BRANCH  15  17
ATOM     16  N   UNL     1       6.261   3.684  13.653  0.00  0.00    +0.000 N 
ATOM     17  C   UNL     1       6.970   4.647  14.327  0.00  0.00    +0.000 C 
ATOM     18  O   UNL     1       7.753   5.420  13.791  0.00  0.00    +0.000 OA
ATOM     19  H   UNL     1       5.707   3.041  14.217  0.00  0.00    +0.000 HD
BRANCH  16  20
ATOM     20  C   UNL     1       6.307   3.536  12.218  0.00  0.00    +0.000 C 
BRANCH  20  21
ATOM     21  C   UNL     1       5.487   2.338  11.735  0.00  0.00    +0.000 C 
BRANCH  21  23
ATOM     22  C   UNL     1       7.776   1.717  10.816  0.00  0.00    +0.000 C 
ATOM     23  C   UNL     1       6.292   1.349  10.868  0.00  0.00    +0.000 C 
ATOM     24  C   UNL     1       6.135  -0.080  11.394  0.00  0.00    +0.000 C 
ENDBRANCH  21  23
ENDBRANCH  20  21
ENDBRANCH  16  20
ENDBRANCH  15  17
ENDBRANCH   1  15
TORSDOF 6
ENDMDL
MODEL 3
REMARK VINA RESULT:      -7.6      1.763      2.249
REMARK  Name = 
REMARK  8 active torsions:
REMARK  status: ('A' for Active; 'I' for Inactive)
REMARK    1  A    between atoms: C_1  and  C_2
REMARK    2  A    between atoms: C_2  and  C_3
REMARK    3  A    between atoms: C_2  and  C_4
REMARK    4  A    between atoms: C_4  and  C_5
REMARK    5  A    between atoms: C_5  and  N_6
REMARK    6  A    between atoms: C_7  and  C_9
REMARK    7  A    between atoms: C_9  and  N_10
REMARK    8  A    between atoms: N_10  and  C_11
REMARK                            x       y       z     vdW  Elec       q    Type
REMARK                         _______ _______ _______ _____ _____    ______ ____
ROOT
ATOM      1  N   UNL     1       5.214   6.535  17.255  0.00  0.00    +0.000 N 
ATOM      2  H   UNL     1       6.065   6.815  17.754  0.00  0.00    +0.000 HD
ENDROOT
BRANCH   1   3
ATOM      3  C   UNL     1       4.186   6.058  18.029  0.00  0.00    +0.000 C 
ATOM      4  C   UNL     1       4.177   4.957  18.791  0.00  0.00    +0.000 C 
ATOM      5  C   UNL     1       5.343   4.019  18.954  0.00  0.00    +0.000 C 
ATOM      6  O   UNL     1       6.469   4.147  18.510  0.00  0.00    +0.000 OA
ATOM      7  N   UNL     1       4.859   2.985  19.739  0.00  0.00    +0.000 N 
ATOM      8  C   UNL     1       3.537   3.208  20.112  0.00  0.00    +0.000 A 
ATOM      9  C   UNL     1       2.753   2.394  20.902  0.00  0.00    +0.000 A 
ATOM     10  C   UNL     1       1.451   2.819  21.169  0.00  0.00    +0.000 A 
ATOM     11  C   UNL     1       0.968   4.033  20.642  0.00  0.00    +0.000 A 
ATOM     12  C   UNL     1       1.777   4.842  19.833  0.00  0.00    +0.000 A 
ATOM     13  C   UNL     1       3.068   4.413  19.573  0.00  0.00    +0.000 A 
ATOM     14  H   UNL     1       5.422   2.195  20.013  0.00  0.00    +0.000 HD
ENDBRANCH   1   3
BRANCH   1  15
ATOM     15  C   UNL     1       5.296   6.534  15.792  0.00  0.00    +0.000 C 
BRANCH  15  17
ATOM     16  N   UNL     1       5.554   4.605  14.331  0.00  0.00    +0.000 N 
ATOM     17  C   UNL     1       6.159   5.361  15.305  0.00  0.00    +0.000 C 
ATOM     18  O   UNL     1       7.262   5.115  15.774  0.00  0.00    +0.000 OA
ATOM     19  H   UNL     1       4.598   4.854  14.081  0.00  0.00    +0.000 HD
BRANCH  16  20
ATOM     20  C   UNL     1       6.198   3.477  13.700  0.00  0.00    +0.000 C 
BRANCH  20  21
ATOM     21  C   UNL     1       6.526   3.749  12.231  0.00  0.00    +0.000 C 
BRANCH  21  23
ATOM     22  C   UNL     1       5.906   1.422  11.412  0.00  0.00    +0.000 C 
ATOM     23  C   UNL     1       5.673   2.925  11.246  0.00  0.00    +0.000 C 
ATOM     24  C   UNL     1       4.185   3.237  11.431  0.00  0.00    +0.000 C 
ENDBRANCH  21  23
ENDBRANCH  20  21
ENDBRANCH  16  20
ENDBRANCH  15  17
ENDBRANCH   1  15
TORSDOF 6
ENDMDL
MODEL 4
REMARK VINA RESULT:      -7.6      1.779      2.287
REMARK  Name = 
REMARK  8 active torsions:
REMARK  status: ('A' for Active; 'I' for Inactive)
REMARK    1  A    between atoms: C_1  and  C_2
REMARK    2  A    between atoms: C_2  and  C_3
REMARK    3  A    between atoms: C_2  and  C_4
REMARK    4  A    between atoms: C_4  and  C_5
REMARK    5  A    between atoms: C_5  and  N_6
REMARK    6  A    between atoms: C_7  and  C_9
REMARK    7  A    between atoms: C_9  and  N_10
REMARK    8  A    between atoms: N_10  and  C_11
REMARK                            x       y       z     vdW  Elec       q    Type
REMARK                         _______ _______ _______ _____ _____    ______ ____
ROOT
ATOM      1  N   UNL     1       5.161   6.477  17.041  0.00  0.00    +0.000 N 
ATOM      2  H   UNL     1       6.033   6.745  17.509  0.00  0.00    +0.000 HD
ENDROOT
BRANCH   1   3
ATOM      3  C   UNL     1       4.163   5.993  17.850  0.00  0.00    +0.000 C 
ATOM      4  C   UNL     1       4.219   4.945  18.681  0.00  0.00    +0.000 C 
ATOM      5  C   UNL     1       5.438   4.089  18.899  0.00  0.00    +0.000 C 
ATOM      6  O   UNL     1       6.554   4.251  18.442  0.00  0.00    +0.000 OA
ATOM      7  N   UNL     1       5.015   3.081  19.752  0.00  0.00    +0.000 N 
ATOM      8  C   UNL     1       3.683   3.252  20.116  0.00  0.00    +0.000 A 
ATOM      9  C   UNL     1       2.948   2.446  20.961  0.00  0.00    +0.000 A 
ATOM     10  C   UNL     1       1.623   2.813  21.206  0.00  0.00    +0.000 A 
ATOM     11  C   UNL     1       1.071   3.960  20.604  0.00  0.00    +0.000 A 
ATOM     12  C   UNL     1       1.831   4.759  19.740  0.00  0.00    +0.000 A 
ATOM     13  C   UNL     1       3.144   4.390  19.503  0.00  0.00    +0.000 A 
ATOM     14  H   UNL     1       5.623   2.344  20.074  0.00  0.00    +0.000 HD
ENDBRANCH   1   3
BRANCH   1  15
ATOM     15  C   UNL     1       5.183   6.498  15.576  0.00  0.00    +0.000 C 
BRANCH  15  17
ATOM     16  N   UNL     1       6.645   5.383  13.982  0.00  0.00    +0.000 N 
ATOM     17  C   UNL     1       5.780   5.192  15.031  0.00  0.00    +0.000 C 
ATOM     18  O   UNL     1       5.475   4.093  15.474  0.00  0.00    +0.000 OA
ATOM     19  H   UNL     1       6.754   6.337  13.642  0.00  0.00    +0.000 HD
BRANCH  16  20
ATOM     20  C   UNL     1       7.352   4.299  13.341  0.00  0.00    +0.000 C 
BRANCH  20  21
ATOM     21  C   UNL     1       6.744   3.938  11.984  0.00  0.00    +0.000 C 
BRANCH  21  23
ATOM     22  C   UNL     1       4.326   3.389  11.419  0.00  0.00    +0.000 C 
ATOM     23  C   UNL     1       5.616   2.891  12.074  0.00  0.00    +0.000 C 
ATOM     24  C   UNL     1       6.048   1.576  11.419  0.00  0.00    +0.000 C 
ENDBRANCH  21  23
ENDBRANCH  20  21
ENDBRANCH  16  20
ENDBRANCH  15  17
ENDBRANCH   1  15
TORSDOF 6
ENDMDL
MODEL 5
REMARK VINA RESULT:      -7.5      1.734      2.247
REMARK  Name = 
REMARK  8 active torsions:
REMARK  status: ('A' for Active; 'I' for Inactive)
REMARK    1  A    between atoms: C_1  and  C_2
REMARK    2  A    between atoms: C_2  and  C_3
REMARK    3  A    between atoms: C_2  and  C_4
REMARK    4  A    between atoms: C_4  and  C_5
REMARK    5  A    between atoms: C_5  and  N_6
REMARK    6  A    between atoms: C_7  and  C_9
REMARK    7  A    between atoms: C_9  and  N_10
REMARK    8  A    between atoms: N_10  and  C_11
REMARK                            x       y       z     vdW  Elec       q    Type
REMARK                         _______ _______ _______ _____ _____    ______ ____
ROOT
ATOM      1  N   UNL     1       6.040   7.059  17.807  0.00  0.00    +0.000 N 
ATOM      2  H   UNL     1       6.223   7.610  18.652  0.00  0.00    +0.000 HD
ENDROOT
BRANCH   1   3
ATOM      3  C   UNL     1       4.862   6.354  17.785  0.00  0.00    +0.000 C 
ATOM      4  C   UNL     1       4.564   5.235  18.458  0.00  0.00    +0.000 C 
ATOM      5  C   UNL     1       5.498   4.534  19.408  0.00  0.00    +0.000 C 
ATOM      6  O   UNL     1       6.599   4.898  19.775  0.00  0.00    +0.000 OA
ATOM      7  N   UNL     1       4.819   3.387  19.790  0.00  0.00    +0.000 N 
ATOM      8  C   UNL     1       3.554   3.332  19.213  0.00  0.00    +0.000 A 
ATOM      9  C   UNL     1       2.609   2.343  19.388  0.00  0.00    +0.000 A 
ATOM     10  C   UNL     1       1.390   2.495  18.725  0.00  0.00    +0.000 A 
ATOM     11  C   UNL     1       1.150   3.617  17.908  0.00  0.00    +0.000 A 
ATOM     12  C   UNL     1       2.127   4.606  17.735  0.00  0.00    +0.000 A 
ATOM     13  C   UNL     1       3.333   4.449  18.397  0.00  0.00    +0.000 A 
ATOM     14  H   UNL     1       5.205   2.708  20.427  0.00  0.00    +0.000 HD
ENDBRANCH   1   3
BRANCH   1  15
ATOM     15  C   UNL     1       7.136   6.982  16.838  0.00  0.00    +0.000 C 
BRANCH  15  17
ATOM     16  N   UNL     1       6.611   5.431  15.038  0.00  0.00    +0.000 N 
ATOM     17  C   UNL     1       7.237   5.566  16.254  0.00  0.00    +0.000 C 
ATOM     18  O   UNL     1       7.791   4.648  16.842  0.00  0.00    +0.000 OA
ATOM     19  H   UNL     1       6.107   6.243  14.686  0.00  0.00    +0.000 HD
BRANCH  16  20
ATOM     20  C   UNL     1       6.614   4.197  14.288  0.00  0.00    +0.000 C 
BRANCH  20  21
ATOM     21  C   UNL     1       5.324   4.006  13.489  0.00  0.00    +0.000 C 
BRANCH  21  23
ATOM     22  C   UNL     1       4.327   3.205  11.290  0.00  0.00    +0.000 C 
ATOM     23  C   UNL     1       5.478   3.054  12.286  0.00  0.00    +0.000 C 
ATOM     24  C   UNL     1       6.810   3.301  11.572  0.00  0.00    +0.000 C 
ENDBRANCH  21  23
ENDBRANCH  20  21
ENDBRANCH  16  20
ENDBRANCH  15  17
ENDBRANCH   1  15
TORSDOF 6
ENDMDL
MODEL 6
REMARK VINA RESULT:      -7.5      1.684      1.893
REMARK  Name = 
REMARK  8 active torsions:
REMARK  status: ('A' for Active; 'I' for Inactive)
REMARK    1  A    between atoms: C_1  and  C_2
REMARK    2  A    between atoms: C_2  and  C_3
REMARK    3  A    between atoms: C_2  and  C_4
REMARK    4  A    between atoms: C_4  and  C_5
REMARK    5  A    between atoms: C_5  and  N_6
REMARK    6  A    between atoms: C_7  and  C_9
REMARK    7  A    between atoms: C_9  and  N_10
REMARK    8  A    between atoms: N_10  and  C_11
REMARK                            x       y       z     vdW  Elec       q    Type
REMARK                         _______ _______ _______ _____ _____    ______ ____
ROOT
ATOM      1  N   UNL     1       6.451   6.004  18.758  0.00  0.00    +0.000 N 
ATOM      2  H   UNL     1       6.671   6.502  19.627  0.00  0.00    +0.000 HD
ENDROOT
BRANCH   1   3
ATOM      3  C   UNL     1       5.574   4.953  18.866  0.00  0.00    +0.000 C 
ATOM      4  C   UNL     1       4.272   4.937  18.555  0.00  0.00    +0.000 C 
ATOM      5  C   UNL     1       3.513   6.108  17.991  0.00  0.00    +0.000 C 
ATOM      6  O   UNL     1       3.955   7.192  17.657  0.00  0.00    +0.000 OA
ATOM      7  N   UNL     1       2.198   5.676  17.917  0.00  0.00    +0.000 N 
ATOM      8  C   UNL     1       2.077   4.353  18.331  0.00  0.00    +0.000 A 
ATOM      9  C   UNL     1       0.920   3.603  18.372  0.00  0.00    +0.000 A 
ATOM     10  C   UNL     1       1.026   2.281  18.807  0.00  0.00    +0.000 A 
ATOM     11  C   UNL     1       2.272   1.748  19.191  0.00  0.00    +0.000 A 
ATOM     12  C   UNL     1       3.435   2.529  19.153  0.00  0.00    +0.000 A 
ATOM     13  C   UNL     1       3.321   3.839  18.719  0.00  0.00    +0.000 A 
ATOM     14  H   UNL     1       1.448   6.257  17.578  0.00  0.00    +0.000 HD
ENDBRANCH   1   3
BRANCH   1  15
ATOM     15  C   UNL     1       7.232   6.388  17.580  0.00  0.00    +0.000 C 
BRANCH  15  17
ATOM     16  N   UNL     1       6.735   5.303  15.459  0.00  0.00    +0.000 N 
ATOM     17  C   UNL     1       7.418   5.184  16.645  0.00  0.00    +0.000 C 
ATOM     18  O   UNL     1       8.083   4.205  16.954  0.00  0.00    +0.000 OA
ATOM     19  H   UNL     1       6.143   6.125  15.348  0.00  0.00    +0.000 HD
BRANCH  16  20
ATOM     20  C   UNL     1       6.798   4.308  14.414  0.00  0.00    +0.000 C 
BRANCH  20  21
ATOM     21  C   UNL     1       5.463   4.156  13.683  0.00  0.00    +0.000 C 
BRANCH  21  23
ATOM     22  C   UNL     1       4.366   3.407  11.514  0.00  0.00    +0.000 C 
ATOM     23  C   UNL     1       5.521   3.180  12.490  0.00  0.00    +0.000 C 
ATOM     24  C   UNL     1       6.854   3.315  11.749  0.00  0.00    +0.000 C 
ENDBRANCH  21  23
ENDBRANCH  20  21
ENDBRANCH  16  20
ENDBRANCH  15  17
ENDBRANCH   1  15
TORSDOF 6
ENDMDL
MODEL 7
REMARK VINA RESULT:      -7.5      1.620      1.959
REMARK  Name = 
REMARK  8 active torsions:
REMARK  status: ('A' for Active; 'I' for Inactive)
REMARK    1  A    between atoms: C_1  and  C_2
REMARK    2  A    between atoms: C_2  and  C_3
REMARK    3  A    between atoms: C_2  and  C_4
REMARK    4  A    between atoms: C_4  and  C_5
REMARK    5  A    between atoms: C_5  and  N_6
REMARK    6  A    between atoms: C_7  and  C_9
REMARK    7  A    between atoms: C_9  and  N_10
REMARK    8  A    between atoms: N_10  and  C_11
REMARK                            x       y       z     vdW  Elec       q    Type
REMARK                         _______ _______ _______ _____ _____    ______ ____
ROOT
ATOM      1  N   UNL     1       6.508   5.581  18.214  0.00  0.00    +0.000 N 
ATOM      2  H   UNL     1       6.675   6.515  18.601  0.00  0.00    +0.000 HD
ENDROOT
BRANCH   1   3
ATOM      3  C   UNL     1       5.645   4.778  18.918  0.00  0.00    +0.000 C 
ATOM      4  C   UNL     1       4.324   4.932  19.072  0.00  0.00    +0.000 C 
ATOM      5  C   UNL     1       3.516   6.046  18.463  0.00  0.00    +0.000 C 
ATOM      6  O   UNL     1       3.896   6.906  17.690  0.00  0.00    +0.000 OA
ATOM      7  N   UNL     1       2.235   5.867  18.960  0.00  0.00    +0.000 N 
ATOM      8  C   UNL     1       2.159   4.739  19.771  0.00  0.00    +0.000 A 
ATOM      9  C   UNL     1       1.039   4.258  20.415  0.00  0.00    +0.000 A 
ATOM     10  C   UNL     1       1.182   3.092  21.170  0.00  0.00    +0.000 A 
ATOM     11  C   UNL     1       2.430   2.446  21.265  0.00  0.00    +0.000 A 
ATOM     12  C   UNL     1       3.560   2.957  20.612  0.00  0.00    +0.000 A 
ATOM     13  C   UNL     1       3.409   4.113  19.865  0.00  0.00    +0.000 A 
ATOM     14  H   UNL     1       1.466   6.476  18.727  0.00  0.00    +0.000 HD
ENDBRANCH   1   3
BRANCH   1  15
ATOM     15  C   UNL     1       7.342   5.198  17.072  0.00  0.00    +0.000 C 
BRANCH  15  17
ATOM     16  N   UNL     1       6.351   3.984  15.211  0.00  0.00    +0.000 N 
ATOM     17  C   UNL     1       6.519   5.224  15.776  0.00  0.00    +0.000 C 
ATOM     18  O   UNL     1       6.093   6.261  15.286  0.00  0.00    +0.000 OA
ATOM     19  H   UNL     1       6.826   3.203  15.662  0.00  0.00    +0.000 HD
BRANCH  16  20
ATOM     20  C   UNL     1       5.578   3.767  14.011  0.00  0.00    +0.000 C 
BRANCH  20  21
ATOM     21  C   UNL     1       6.456   3.722  12.759  0.00  0.00    +0.000 C 
BRANCH  21  23
ATOM     22  C   UNL     1       6.038   1.572  11.467  0.00  0.00    +0.000 C 
ATOM     23  C   UNL     1       5.765   3.075  11.543  0.00  0.00    +0.000 C 
ATOM     24  C   UNL     1       4.254   3.319  11.589  0.00  0.00    +0.000 C 
ENDBRANCH  21  23
ENDBRANCH  20  21
ENDBRANCH  16  20
ENDBRANCH  15  17
ENDBRANCH   1  15
TORSDOF 6
ENDMDL
MODEL 8
REMARK VINA RESULT:      -7.5      3.423      5.284
REMARK  Name = 
REMARK  8 active torsions:
REMARK  status: ('A' for Active; 'I' for Inactive)
REMARK    1  A    between atoms: C_1  and  C_2
REMARK    2  A    between atoms: C_2  and  C_3
REMARK    3  A    between atoms: C_2  and  C_4
REMARK    4  A    between atoms: C_4  and  C_5
REMARK    5  A    between atoms: C_5  and  N_6
REMARK    6  A    between atoms: C_7  and  C_9
REMARK    7  A    between atoms: C_9  and  N_10
REMARK    8  A    between atoms: N_10  and  C_11
REMARK                            x       y       z     vdW  Elec       q    Type
REMARK                         _______ _______ _______ _____ _____    ______ ____
ROOT
ATOM      1  N   UNL     1       6.594   5.426  18.191  0.00  0.00    +0.000 N 
ATOM      2  H   UNL     1       6.541   5.294  17.175  0.00  0.00    +0.000 HD
ENDROOT
BRANCH   1   3
ATOM      3  C   UNL     1       5.466   5.105  18.904  0.00  0.00    +0.000 C 
ATOM      4  C   UNL     1       4.407   4.399  18.488  0.00  0.00    +0.000 C 
ATOM      5  C   UNL     1       4.268   3.792  17.118  0.00  0.00    +0.000 C 
ATOM      6  O   UNL     1       5.095   3.769  16.225  0.00  0.00    +0.000 OA
ATOM      7  N   UNL     1       2.993   3.248  17.099  0.00  0.00    +0.000 N 
ATOM      8  C   UNL     1       2.354   3.414  18.323  0.00  0.00    +0.000 A 
ATOM      9  C   UNL     1       1.087   2.983  18.659  0.00  0.00    +0.000 A 
ATOM     10  C   UNL     1       0.644   3.242  19.958  0.00  0.00    +0.000 A 
ATOM     11  C   UNL     1       1.467   3.921  20.876  0.00  0.00    +0.000 A 
ATOM     12  C   UNL     1       2.747   4.361  20.513  0.00  0.00    +0.000 A 
ATOM     13  C   UNL     1       3.179   4.100  19.224  0.00  0.00    +0.000 A 
ATOM     14  H   UNL     1       2.611   2.773  16.296  0.00  0.00    +0.000 HD
ENDBRANCH   1   3
BRANCH   1  15
ATOM     15  C   UNL     1       7.801   6.089  18.692  0.00  0.00    +0.000 C 
BRANCH  15  17
ATOM     16  N   UNL     1       8.625   8.368  18.906  0.00  0.00    +0.000 N 
ATOM     17  C   UNL     1       7.916   7.504  18.108  0.00  0.00    +0.000 C 
ATOM     18  O   UNL     1       7.391   7.825  17.050  0.00  0.00    +0.000 OA
ATOM     19  H   UNL     1       8.941   8.011  19.806  0.00  0.00    +0.000 HD
BRANCH  16  20
ATOM     20  C   UNL     1       8.892   9.738  18.535  0.00  0.00    +0.000 C 
BRANCH  20  21
ATOM     21  C   UNL     1       9.466  10.548  19.698  0.00  0.00    +0.000 C 
BRANCH  21  23
ATOM     22  C   UNL     1      10.733  11.613  17.766  0.00  0.00    +0.000 C 
ATOM     23  C   UNL     1      10.619  11.486  19.286  0.00  0.00    +0.000 C 
ATOM     24  C   UNL     1      10.430  12.874  19.904  0.00  0.00    +0.000 C 
ENDBRANCH  21  23
ENDBRANCH  20  21
ENDBRANCH  16  20
ENDBRANCH  15  17
ENDBRANCH   1  15
TORSDOF 6
ENDMDL
MODEL 9
REMARK VINA RESULT:      -7.4      4.344      6.119
REMARK  Name = 
REMARK  8 active torsions:
REMARK  status: ('A' for Active; 'I' for Inactive)
REMARK    1  A    between atoms: C_1  and  C_2
REMARK    2  A    between atoms: C_2  and  C_3
REMARK    3  A    between atoms: C_2  and  C_4
REMARK    4  A    between atoms: C_4  and  C_5
REMARK    5  A    between atoms: C_5  and  N_6
REMARK    6  A    between atoms: C_7  and  C_9
REMARK    7  A    between atoms: C_9  and  N_10
REMARK    8  A    between atoms: N_10  and  C_11
REMARK                            x       y       z     vdW  Elec       q    Type
REMARK                         _______ _______ _______ _____ _____    ______ ____
ROOT
ATOM      1  N   UNL     1       7.189   7.471  17.136  0.00  0.00    +0.000 N 
ATOM      2  H   UNL     1       7.379   7.777  16.176  0.00  0.00    +0.000 HD
ENDROOT
BRANCH   1   3
ATOM      3  C   UNL     1       5.932   6.974  17.376  0.00  0.00    +0.000 C 
ATOM      4  C   UNL     1       5.526   5.701  17.297  0.00  0.00    +0.000 C 
ATOM      5  C   UNL     1       6.413   4.540  16.935  0.00  0.00    +0.000 C 
ATOM      6  O   UNL     1       7.616   4.552  16.747  0.00  0.00    +0.000 OA
ATOM      7  N   UNL     1       5.563   3.447  16.881  0.00  0.00    +0.000 N 
ATOM      8  C   UNL     1       4.260   3.802  17.215  0.00  0.00    +0.000 A 
ATOM      9  C   UNL     1       3.165   2.965  17.277  0.00  0.00    +0.000 A 
ATOM     10  C   UNL     1       1.945   3.530  17.653  0.00  0.00    +0.000 A 
ATOM     11  C   UNL     1       1.849   4.903  17.949  0.00  0.00    +0.000 A 
ATOM     12  C   UNL     1       2.970   5.740  17.869  0.00  0.00    +0.000 A 
ATOM     13  C   UNL     1       4.177   5.172  17.497  0.00  0.00    +0.000 A 
ATOM     14  H   UNL     1       5.878   2.517  16.653  0.00  0.00    +0.000 HD
ENDBRANCH   1   3
BRANCH   1  15
ATOM     15  C   UNL     1       8.228   7.768  18.125  0.00  0.00    +0.000 C 
BRANCH  15  17
ATOM     16  N   UNL     1       9.312   9.639  19.241  0.00  0.00    +0.000 N 
ATOM     17  C   UNL     1       8.433   9.285  18.247  0.00  0.00    +0.000 C 
ATOM     18  O   UNL     1       7.836  10.090  17.545  0.00  0.00    +0.000 OA
ATOM     19  H   UNL     1       9.681   8.886  19.820  0.00  0.00    +0.000 HD
BRANCH  16  20
ATOM     20  C   UNL     1       9.685  11.009  19.508  0.00  0.00    +0.000 C 
BRANCH  20  21
ATOM     21  C   UNL     1      10.766  11.508  18.548  0.00  0.00    +0.000 C 
BRANCH  21  23
ATOM     22  C   UNL     1      11.355  13.283  16.824  0.00  0.00    +0.000 C 
ATOM     23  C   UNL     1      10.561  12.967  18.093  0.00  0.00    +0.000 C 
ATOM     24  C   UNL     1       9.076  13.252  17.853  0.00  0.00    +0.000 C 
ENDBRANCH  21  23
ENDBRANCH  20  21
ENDBRANCH  16  20
ENDBRANCH  15  17
ENDBRANCH   1  15
TORSDOF 6
ENDMDL
