MODEL 1
REMARK VINA RESULT:      -7.4      0.000      0.000
REMARK  Name = 
REMARK  3 active torsions:
REMARK  status: ('A' for Active; 'I' for Inactive)
REMARK    1  A    between atoms: C_1  and  C_2
REMARK    2  A    between atoms: C_4  and  C_5
REMARK    3  A    between atoms: C_18  and  N_19
REMARK                            x       y       z     vdW  Elec       q    Type
REMARK                         _______ _______ _______ _____ _____    ______ ____
ROOT
ATOM      1  C   UNL     1      -2.753  11.294  18.095  0.00  0.00    +0.000 A 
ATOM      2  C   UNL     1      -3.559  11.675  19.164  0.00  0.00    +0.000 A 
ATOM      3  C   UNL     1      -4.917  11.864  18.879  0.00  0.00    +0.000 A 
ATOM      4  C   UNL     1      -5.415  11.656  17.595  0.00  0.00    +0.000 A 
ATOM      5  C   UNL     1      -4.538  11.294  16.572  0.00  0.00    +0.000 A 
ATOM      6  N   UNL     1      -3.217  11.127  16.830  0.00  0.00    +0.000 NA
ATOM      7  C   UNL     1      -6.795  11.881  17.706  0.00  0.00    +0.000 A 
ATOM      8  N   UNL     1      -7.175  12.197  18.944  0.00  0.00    +0.000 NA
ATOM      9  N   UNL     1      -6.010  12.230  19.661  0.00  0.00    +0.000 N 
ATOM     10  C   UNL     1      -6.011  12.581  21.051  0.00  0.00    +0.000 A 
ATOM     11  C   UNL     1      -7.229  12.705  21.707  0.00  0.00    +0.000 A 
ATOM     12  C   UNL     1      -7.213  12.972  23.067  0.00  0.00    +0.000 A 
ATOM     13  C   UNL     1      -5.990  13.134  23.718  0.00  0.00    +0.000 A 
ATOM     14  C   UNL     1      -4.796  13.050  23.007  0.00  0.00    +0.000 A 
ATOM     15  N   UNL     1      -4.819  12.764  21.685  0.00  0.00    +0.000 NA
ENDROOT
BRANCH  14  16
ATOM     16  N   UNL     1      -3.574  13.233  23.601  0.00  0.00    +0.000 N 
ATOM     17  C   UNL     1      -2.380  12.434  23.320  0.00  0.00    +0.000 C 
ATOM     18  C   UNL     1      -1.169  13.372  23.096  0.00  0.00    +0.000 C 
ATOM     19  N   UNL     1      -0.943  14.325  24.200  0.00  0.00    +0.000 NA
ATOM     20  C   UNL     1      -2.184  15.093  24.443  0.00  0.00    +0.000 C 
ATOM     21  C   UNL     1      -3.420  14.203  24.693  0.00  0.00    +0.000 C 
ATOM     22  H   UNL     1      -0.207  14.976  23.930  0.00  0.00    +0.000 HD
ENDBRANCH  14  16
BRANCH   1  26
ATOM     23  C   UNL     1       1.950   9.269  17.825  0.00  0.00    +0.000 C 
ATOM     24  C   UNL     1       0.840  10.207  18.138  0.00  0.00    +0.000 A 
ATOM     25  C   UNL     1      -0.545   9.984  17.865  0.00  0.00    +0.000 A 
ATOM     26  C   UNL     1      -1.313  11.076  18.228  0.00  0.00    +0.000 A 
ATOM     27  S   UNL     1      -0.264  12.224  18.947  0.00  0.00    +0.000 S 
ATOM     28  N   UNL     1       1.136  11.371  18.717  0.00  0.00    +0.000 NA
ENDBRANCH   1  26
TORSDOF 2
ENDMDL
MODEL 2
REMARK VINA RESULT:      -7.2      1.845      5.095
REMARK  Name = 
REMARK  3 active torsions:
REMARK  status: ('A' for Active; 'I' for Inactive)
REMARK    1  A    between atoms: C_1  and  C_2
REMARK    2  A    between atoms: C_4  and  C_5
REMARK    3  A    between atoms: C_18  and  N_19
REMARK                            x       y       z     vdW  Elec       q    Type
REMARK                         _______ _______ _______ _____ _____    ______ ____
ROOT
ATOM      1  C   UNL     1      -1.437  11.977  20.317  0.00  0.00    +0.000 A 
ATOM      2  C   UNL     1      -2.653  12.323  20.896  0.00  0.00    +0.000 A 
ATOM      3  C   UNL     1      -2.586  13.065  22.082  0.00  0.00    +0.000 A 
ATOM      4  C   UNL     1      -1.359  13.442  22.622  0.00  0.00    +0.000 A 
ATOM      5  C   UNL     1      -0.182  13.039  21.991  0.00  0.00    +0.000 A 
ATOM      6  N   UNL     1      -0.233  12.304  20.852  0.00  0.00    +0.000 NA
ATOM      7  C   UNL     1      -1.685  14.206  23.753  0.00  0.00    +0.000 A 
ATOM      8  N   UNL     1      -2.999  14.329  23.938  0.00  0.00    +0.000 NA
ATOM      9  N   UNL     1      -3.558  13.589  22.932  0.00  0.00    +0.000 N 
ATOM     10  C   UNL     1      -4.980  13.447  22.825  0.00  0.00    +0.000 A 
ATOM     11  C   UNL     1      -5.792  14.223  23.643  0.00  0.00    +0.000 A 
ATOM     12  C   UNL     1      -7.164  14.129  23.477  0.00  0.00    +0.000 A 
ATOM     13  C   UNL     1      -7.680  13.249  22.526  0.00  0.00    +0.000 A 
ATOM     14  C   UNL     1      -6.827  12.455  21.763  0.00  0.00    +0.000 A 
ATOM     15  N   UNL     1      -5.488  12.570  21.914  0.00  0.00    +0.000 NA
ENDROOT
BRANCH  14  16
ATOM     16  N   UNL     1      -7.293  11.555  20.841  0.00  0.00    +0.000 N 
ATOM     17  C   UNL     1      -7.340  11.787  19.396  0.00  0.00    +0.000 C 
ATOM     18  C   UNL     1      -6.757  10.560  18.654  0.00  0.00    +0.000 C 
ATOM     19  N   UNL     1      -7.397   9.283  19.024  0.00  0.00    +0.000 NA
ATOM     20  C   UNL     1      -7.328   9.110  20.491  0.00  0.00    +0.000 C 
ATOM     21  C   UNL     1      -7.916  10.299  21.280  0.00  0.00    +0.000 C 
ATOM     22  H   UNL     1      -6.887   8.518  18.583  0.00  0.00    +0.000 HD
ENDBRANCH  14  16
BRANCH   1  26
ATOM     23  C   UNL     1      -2.473   9.783  15.800  0.00  0.00    +0.000 C 
ATOM     24  C   UNL     1      -1.755  10.166  17.044  0.00  0.00    +0.000 A 
ATOM     25  C   UNL     1      -2.284  10.973  18.099  0.00  0.00    +0.000 A 
ATOM     26  C   UNL     1      -1.341  11.190  19.088  0.00  0.00    +0.000 A 
ATOM     27  S   UNL     1       0.064  10.308  18.659  0.00  0.00    +0.000 S 
ATOM     28  N   UNL     1      -0.503   9.741  17.211  0.00  0.00    +0.000 NA
ENDBRANCH   1  26
TORSDOF 2
ENDMDL
MODEL 3
REMARK VINA RESULT:      -7.2      0.983      1.143
REMARK  Name = 
REMARK  3 active torsions:
REMARK  status: ('A' for Active; 'I' for Inactive)
REMARK    1  A    between atoms: C_1  and  C_2
REMARK    2  A    between atoms: C_4  and  C_5
REMARK    3  A    between atoms: C_18  and  N_19
REMARK                            x       y       z     vdW  Elec       q    Type
REMARK                         _______ _______ _______ _____ _____    ______ ____
ROOT
ATOM      1  C   UNL     1      -2.727  11.695  18.251  0.00  0.00    +0.000 A 
ATOM      2  C   UNL     1      -3.550  11.919  19.350  0.00  0.00    +0.000 A 
ATOM      3  C   UNL     1      -4.928  11.926  19.101  0.00  0.00    +0.000 A 
ATOM      4  C   UNL     1      -5.425  11.697  17.821  0.00  0.00    +0.000 A 
ATOM      5  C   UNL     1      -4.532  11.500  16.766  0.00  0.00    +0.000 A 
ATOM      6  N   UNL     1      -3.195  11.511  16.991  0.00  0.00    +0.000 NA
ATOM      7  C   UNL     1      -6.820  11.722  17.968  0.00  0.00    +0.000 A 
ATOM      8  N   UNL     1      -7.208  11.936  19.225  0.00  0.00    +0.000 NA
ATOM      9  N   UNL     1      -6.040  12.106  19.919  0.00  0.00    +0.000 N 
ATOM     10  C   UNL     1      -6.055  12.402  21.322  0.00  0.00    +0.000 A 
ATOM     11  C   UNL     1      -7.261  12.329  22.007  0.00  0.00    +0.000 A 
ATOM     12  C   UNL     1      -7.247  12.545  23.376  0.00  0.00    +0.000 A 
ATOM     13  C   UNL     1      -6.043  12.853  24.008  0.00  0.00    +0.000 A 
ATOM     14  C   UNL     1      -4.867  12.964  23.270  0.00  0.00    +0.000 A 
ATOM     15  N   UNL     1      -4.885  12.727  21.939  0.00  0.00    +0.000 NA
ENDROOT
BRANCH  14  16
ATOM     16  N   UNL     1      -3.668  13.295  23.846  0.00  0.00    +0.000 N 
ATOM     17  C   UNL     1      -2.404  12.597  23.606  0.00  0.00    +0.000 C 
ATOM     18  C   UNL     1      -1.287  13.630  23.322  0.00  0.00    +0.000 C 
ATOM     19  N   UNL     1      -1.152  14.662  24.368  0.00  0.00    +0.000 NA
ATOM     20  C   UNL     1      -2.459  15.323  24.572  0.00  0.00    +0.000 C 
ATOM     21  C   UNL     1      -3.606  14.337  24.880  0.00  0.00    +0.000 C 
ATOM     22  H   UNL     1      -0.480  15.362  24.056  0.00  0.00    +0.000 HD
ENDBRANCH  14  16
BRANCH   1  26
ATOM     23  C   UNL     1       2.185  13.117  18.637  0.00  0.00    +0.000 C 
ATOM     24  C   UNL     1       0.975  12.261  18.517  0.00  0.00    +0.000 A 
ATOM     25  C   UNL     1      -0.368  12.729  18.375  0.00  0.00    +0.000 A 
ATOM     26  C   UNL     1      -1.267  11.677  18.346  0.00  0.00    +0.000 A 
ATOM     27  S   UNL     1      -0.360  10.225  18.408  0.00  0.00    +0.000 S 
ATOM     28  N   UNL     1       1.128  10.938  18.552  0.00  0.00    +0.000 NA
ENDBRANCH   1  26
TORSDOF 2
ENDMDL
MODEL 4
REMARK VINA RESULT:      -7.1      1.635      6.088
REMARK  Name = 
REMARK  3 active torsions:
REMARK  status: ('A' for Active; 'I' for Inactive)
REMARK    1  A    between atoms: C_1  and  C_2
REMARK    2  A    between atoms: C_4  and  C_5
REMARK    3  A    between atoms: C_18  and  N_19
REMARK                            x       y       z     vdW  Elec       q    Type
REMARK                         _______ _______ _______ _____ _____    ______ ____
ROOT
ATOM      1  C   UNL     1      -4.203  13.715  22.977  0.00  0.00    +0.000 A 
ATOM      2  C   UNL     1      -4.126  13.174  21.698  0.00  0.00    +0.000 A 
ATOM      3  C   UNL     1      -5.320  12.668  21.166  0.00  0.00    +0.000 A 
ATOM      4  C   UNL     1      -6.509  12.734  21.888  0.00  0.00    +0.000 A 
ATOM      5  C   UNL     1      -6.499  13.274  23.175  0.00  0.00    +0.000 A 
ATOM      6  N   UNL     1      -5.347  13.749  23.709  0.00  0.00    +0.000 NA
ATOM      7  C   UNL     1      -7.479  12.195  21.029  0.00  0.00    +0.000 A 
ATOM      8  N   UNL     1      -6.982  11.819  19.851  0.00  0.00    +0.000 NA
ATOM      9  N   UNL     1      -5.640  12.070  19.950  0.00  0.00    +0.000 N 
ATOM     10  C   UNL     1      -4.750  11.751  18.873  0.00  0.00    +0.000 A 
ATOM     11  C   UNL     1      -5.290  11.357  17.655  0.00  0.00    +0.000 A 
ATOM     12  C   UNL     1      -4.421  11.123  16.601  0.00  0.00    +0.000 A 
ATOM     13  C   UNL     1      -3.048  11.261  16.803  0.00  0.00    +0.000 A 
ATOM     14  C   UNL     1      -2.551  11.611  18.056  0.00  0.00    +0.000 A 
ATOM     15  N   UNL     1      -3.407  11.861  19.073  0.00  0.00    +0.000 NA
ENDROOT
BRANCH  14  16
ATOM     16  N   UNL     1      -1.208  11.726  18.306  0.00  0.00    +0.000 N 
ATOM     17  C   UNL     1      -0.476  12.993  18.369  0.00  0.00    +0.000 C 
ATOM     18  C   UNL     1       0.418  13.013  19.633  0.00  0.00    +0.000 C 
ATOM     19  N   UNL     1       1.322  11.852  19.739  0.00  0.00    +0.000 NA
ATOM     20  C   UNL     1       0.529  10.606  19.658  0.00  0.00    +0.000 C 
ATOM     21  C   UNL     1      -0.366  10.526  18.404  0.00  0.00    +0.000 C 
ATOM     22  H   UNL     1       1.791  11.879  20.644  0.00  0.00    +0.000 HD
ENDBRANCH  14  16
BRANCH   1  26
ATOM     23  C   UNL     1      -1.197  16.121  26.363  0.00  0.00    +0.000 C 
ATOM     24  C   UNL     1      -1.629  15.341  25.175  0.00  0.00    +0.000 A 
ATOM     25  C   UNL     1      -2.982  15.064  24.803  0.00  0.00    +0.000 A 
ATOM     26  C   UNL     1      -3.041  14.265  23.675  0.00  0.00    +0.000 A 
ATOM     27  S   UNL     1      -1.433  14.012  23.141  0.00  0.00    +0.000 S 
ATOM     28  N   UNL     1      -0.693  14.835  24.372  0.00  0.00    +0.000 NA
ENDBRANCH   1  26
TORSDOF 2
ENDMDL
MODEL 5
REMARK VINA RESULT:      -7.1      2.105      3.435
REMARK  Name = 
REMARK  3 active torsions:
REMARK  status: ('A' for Active; 'I' for Inactive)
REMARK    1  A    between atoms: C_1  and  C_2
REMARK    2  A    between atoms: C_4  and  C_5
REMARK    3  A    between atoms: C_18  and  N_19
REMARK                            x       y       z     vdW  Elec       q    Type
REMARK                         _______ _______ _______ _____ _____    ______ ____
ROOT
ATOM      1  C   UNL     1      -5.193  11.807  17.844  0.00  0.00    +0.000 A 
ATOM      2  C   UNL     1      -4.953  12.033  19.196  0.00  0.00    +0.000 A 
ATOM      3  C   UNL     1      -5.950  12.724  19.895  0.00  0.00    +0.000 A 
ATOM      4  C   UNL     1      -7.118  13.133  19.258  0.00  0.00    +0.000 A 
ATOM      5  C   UNL     1      -7.276  12.886  17.894  0.00  0.00    +0.000 A 
ATOM      6  N   UNL     1      -6.309  12.235  17.200  0.00  0.00    +0.000 NA
ATOM      7  C   UNL     1      -7.888  13.729  20.269  0.00  0.00    +0.000 A 
ATOM      8  N   UNL     1      -7.291  13.707  21.461  0.00  0.00    +0.000 NA
ATOM      9  N   UNL     1      -6.075  13.125  21.223  0.00  0.00    +0.000 N 
ATOM     10  C   UNL     1      -5.118  12.964  22.278  0.00  0.00    +0.000 A 
ATOM     11  C   UNL     1      -5.511  13.232  23.583  0.00  0.00    +0.000 A 
ATOM     12  C   UNL     1      -4.599  13.000  24.600  0.00  0.00    +0.000 A 
ATOM     13  C   UNL     1      -3.322  12.538  24.282  0.00  0.00    +0.000 A 
ATOM     14  C   UNL     1      -2.958  12.330  22.954  0.00  0.00    +0.000 A 
ATOM     15  N   UNL     1      -3.862  12.535  21.969  0.00  0.00    +0.000 NA
ENDROOT
BRANCH  14  16
ATOM     16  N   UNL     1      -1.705  11.907  22.595  0.00  0.00    +0.000 N 
ATOM     17  C   UNL     1      -1.052  10.700  23.105  0.00  0.00    +0.000 C 
ATOM     18  C   UNL     1      -0.449   9.898  21.927  0.00  0.00    +0.000 C 
ATOM     19  N   UNL     1       0.456  10.690  21.071  0.00  0.00    +0.000 NA
ATOM     20  C   UNL     1      -0.254  11.897  20.596  0.00  0.00    +0.000 C 
ATOM     21  C   UNL     1      -0.858  12.745  21.735  0.00  0.00    +0.000 C 
ATOM     22  H   UNL     1       0.719  10.129  20.261  0.00  0.00    +0.000 HD
ENDBRANCH  14  16
BRANCH   1  26
ATOM     23  C   UNL     1      -2.816   9.847  13.745  0.00  0.00    +0.000 C 
ATOM     24  C   UNL     1      -3.120  10.204  15.156  0.00  0.00    +0.000 A 
ATOM     25  C   UNL     1      -4.290  10.888  15.612  0.00  0.00    +0.000 A 
ATOM     26  C   UNL     1      -4.240  11.116  16.975  0.00  0.00    +0.000 A 
ATOM     27  S   UNL     1      -2.806  10.389  17.565  0.00  0.00    +0.000 S 
ATOM     28  N   UNL     1      -2.236   9.876  16.098  0.00  0.00    +0.000 NA
ENDBRANCH   1  26
TORSDOF 2
ENDMDL
MODEL 6
REMARK VINA RESULT:      -7.0      2.406      5.995
REMARK  Name = 
REMARK  3 active torsions:
REMARK  status: ('A' for Active; 'I' for Inactive)
REMARK    1  A    between atoms: C_1  and  C_2
REMARK    2  A    between atoms: C_4  and  C_5
REMARK    3  A    between atoms: C_18  and  N_19
REMARK                            x       y       z     vdW  Elec       q    Type
REMARK                         _______ _______ _______ _____ _____    ______ ____
ROOT
ATOM      1  C   UNL     1      -5.246  13.934  21.482  0.00  0.00    +0.000 A 
ATOM      2  C   UNL     1      -4.576  13.129  20.566  0.00  0.00    +0.000 A 
ATOM      3  C   UNL     1      -5.341  12.630  19.505  0.00  0.00    +0.000 A 
ATOM      4  C   UNL     1      -6.689  12.952  19.381  0.00  0.00    +0.000 A 
ATOM      5  C   UNL     1      -7.294  13.750  20.353  0.00  0.00    +0.000 A 
ATOM      6  N   UNL     1      -6.569  14.223  21.397  0.00  0.00    +0.000 NA
ATOM      7  C   UNL     1      -7.098  12.331  18.191  0.00  0.00    +0.000 A 
ATOM      8  N   UNL     1      -6.114  11.670  17.582  0.00  0.00    +0.000 NA
ATOM      9  N   UNL     1      -5.037  11.817  18.415  0.00  0.00    +0.000 N 
ATOM     10  C   UNL     1      -3.781  11.199  18.109  0.00  0.00    +0.000 A 
ATOM     11  C   UNL     1      -3.614  10.604  16.865  0.00  0.00    +0.000 A 
ATOM     12  C   UNL     1      -2.371  10.076  16.555  0.00  0.00    +0.000 A 
ATOM     13  C   UNL     1      -1.349  10.133  17.502  0.00  0.00    +0.000 A 
ATOM     14  C   UNL     1      -1.578  10.695  18.755  0.00  0.00    +0.000 A 
ATOM     15  N   UNL     1      -2.787  11.230  19.040  0.00  0.00    +0.000 NA
ENDROOT
BRANCH  14  16
ATOM     16  N   UNL     1      -0.612  10.742  19.726  0.00  0.00    +0.000 N 
ATOM     17  C   UNL     1      -0.625  11.648  20.876  0.00  0.00    +0.000 C 
ATOM     18  C   UNL     1      -0.312  10.853  22.167  0.00  0.00    +0.000 C 
ATOM     19  N   UNL     1       0.941  10.077  22.096  0.00  0.00    +0.000 NA
ATOM     20  C   UNL     1       0.900   9.191  20.913  0.00  0.00    +0.000 C 
ATOM     21  C   UNL     1       0.611   9.938  19.594  0.00  0.00    +0.000 C 
ATOM     22  H   UNL     1       1.018   9.498  22.932  0.00  0.00    +0.000 HD
ENDBRANCH  14  16
BRANCH   1  26
ATOM     23  C   UNL     1      -1.790  15.174  25.062  0.00  0.00    +0.000 C 
ATOM     24  C   UNL     1      -3.068  15.111  24.305  0.00  0.00    +0.000 A 
ATOM     25  C   UNL     1      -3.318  14.299  23.155  0.00  0.00    +0.000 A 
ATOM     26  C   UNL     1      -4.590  14.515  22.654  0.00  0.00    +0.000 A 
ATOM     27  S   UNL     1      -5.372  15.624  23.699  0.00  0.00    +0.000 S 
ATOM     28  N   UNL     1      -4.083  15.875  24.707  0.00  0.00    +0.000 NA
ENDBRANCH   1  26
TORSDOF 2
ENDMDL
MODEL 7
REMARK VINA RESULT:      -6.9      1.302      1.730
REMARK  Name = 
REMARK  3 active torsions:
REMARK  status: ('A' for Active; 'I' for Inactive)
REMARK    1  A    between atoms: C_1  and  C_2
REMARK    2  A    between atoms: C_4  and  C_5
REMARK    3  A    between atoms: C_18  and  N_19
REMARK                            x       y       z     vdW  Elec       q    Type
REMARK                         _______ _______ _______ _____ _____    ______ ____
ROOT
ATOM      1  C   UNL     1      -2.610  11.816  18.396  0.00  0.00    +0.000 A 
ATOM      2  C   UNL     1      -3.460  12.198  19.428  0.00  0.00    +0.000 A 
ATOM      3  C   UNL     1      -4.827  11.983  19.217  0.00  0.00    +0.000 A 
ATOM      4  C   UNL     1      -5.286  11.397  18.040  0.00  0.00    +0.000 A 
ATOM      5  C   UNL     1      -4.371  11.059  17.042  0.00  0.00    +0.000 A 
ATOM      6  N   UNL     1      -3.046  11.281  17.226  0.00  0.00    +0.000 NA
ATOM      7  C   UNL     1      -6.675  11.291  18.210  0.00  0.00    +0.000 A 
ATOM      8  N   UNL     1      -7.093  11.753  19.389  0.00  0.00    +0.000 NA
ATOM      9  N   UNL     1      -5.958  12.221  19.995  0.00  0.00    +0.000 N 
ATOM     10  C   UNL     1      -6.016  12.841  21.286  0.00  0.00    +0.000 A 
ATOM     11  C   UNL     1      -7.208  12.793  21.997  0.00  0.00    +0.000 A 
ATOM     12  C   UNL     1      -7.228  13.331  23.274  0.00  0.00    +0.000 A 
ATOM     13  C   UNL     1      -6.072  13.921  23.786  0.00  0.00    +0.000 A 
ATOM     14  C   UNL     1      -4.914  13.989  23.015  0.00  0.00    +0.000 A 
ATOM     15  N   UNL     1      -4.896  13.440  21.780  0.00  0.00    +0.000 NA
ENDROOT
BRANCH  14  16
ATOM     16  N   UNL     1      -3.767  14.588  23.467  0.00  0.00    +0.000 N 
ATOM     17  C   UNL     1      -3.690  15.479  24.626  0.00  0.00    +0.000 C 
ATOM     18  C   UNL     1      -2.502  15.059  25.525  0.00  0.00    +0.000 C 
ATOM     19  N   UNL     1      -1.214  14.981  24.809  0.00  0.00    +0.000 NA
ATOM     20  C   UNL     1      -1.357  14.078  23.646  0.00  0.00    +0.000 C 
ATOM     21  C   UNL     1      -2.518  14.465  22.705  0.00  0.00    +0.000 C 
ATOM     22  H   UNL     1      -0.510  14.592  25.436  0.00  0.00    +0.000 HD
ENDBRANCH  14  16
BRANCH   1  26
ATOM     23  C   UNL     1       2.086  13.875  18.434  0.00  0.00    +0.000 C 
ATOM     24  C   UNL     1       0.993  12.869  18.480  0.00  0.00    +0.000 A 
ATOM     25  C   UNL     1      -0.399  13.138  18.297  0.00  0.00    +0.000 A 
ATOM     26  C   UNL     1      -1.159  11.994  18.458  0.00  0.00    +0.000 A 
ATOM     27  S   UNL     1      -0.077  10.693  18.729  0.00  0.00    +0.000 S 
ATOM     28  N   UNL     1       1.310  11.597  18.722  0.00  0.00    +0.000 NA
ENDBRANCH   1  26
TORSDOF 2
ENDMDL
MODEL 8
REMARK VINA RESULT:      -6.8      2.128      6.008
REMARK  Name = 
REMARK  3 active torsions:
REMARK  status: ('A' for Active; 'I' for Inactive)
REMARK    1  A    between atoms: C_1  and  C_2
REMARK    2  A    between atoms: C_4  and  C_5
REMARK    3  A    between atoms: C_18  and  N_19
REMARK                            x       y       z     vdW  Elec       q    Type
REMARK                         _______ _______ _______ _____ _____    ______ ____
ROOT
ATOM      1  C   UNL     1      -5.011  13.744  21.582  0.00  0.00    +0.000 A 
ATOM      2  C   UNL     1      -4.428  12.965  20.588  0.00  0.00    +0.000 A 
ATOM      3  C   UNL     1      -5.299  12.422  19.635  0.00  0.00    +0.000 A 
ATOM      4  C   UNL     1      -6.667  12.681  19.686  0.00  0.00    +0.000 A 
ATOM      5  C   UNL     1      -7.178  13.457  20.727  0.00  0.00    +0.000 A 
ATOM      6  N   UNL     1      -6.347  13.971  21.668  0.00  0.00    +0.000 NA
ATOM      7  C   UNL     1      -7.196  12.032  18.560  0.00  0.00    +0.000 A 
ATOM      8  N   UNL     1      -6.268  11.414  17.830  0.00  0.00    +0.000 NA
ATOM      9  N   UNL     1      -5.101  11.617  18.516  0.00  0.00    +0.000 N 
ATOM     10  C   UNL     1      -3.867  11.056  18.051  0.00  0.00    +0.000 A 
ATOM     11  C   UNL     1      -3.835  10.460  16.796  0.00  0.00    +0.000 A 
ATOM     12  C   UNL     1      -2.619   9.988  16.329  0.00  0.00    +0.000 A 
ATOM     13  C   UNL     1      -1.487  10.099  17.136  0.00  0.00    +0.000 A 
ATOM     14  C   UNL     1      -1.579  10.659  18.408  0.00  0.00    +0.000 A 
ATOM     15  N   UNL     1      -2.764  11.140  18.846  0.00  0.00    +0.000 NA
ENDROOT
BRANCH  14  16
ATOM     16  N   UNL     1      -0.498  10.758  19.245  0.00  0.00    +0.000 N 
ATOM     17  C   UNL     1       0.619  11.687  19.062  0.00  0.00    +0.000 C 
ATOM     18  C   UNL     1       0.922  12.405  20.399  0.00  0.00    +0.000 C 
ATOM     19  N   UNL     1       1.155  11.484  21.529  0.00  0.00    +0.000 NA
ATOM     20  C   UNL     1       0.002  10.567  21.656  0.00  0.00    +0.000 C 
ATOM     21  C   UNL     1      -0.330   9.809  20.354  0.00  0.00    +0.000 C 
ATOM     22  H   UNL     1       1.234  12.028  22.387  0.00  0.00    +0.000 HD
ENDBRANCH  14  16
BRANCH   1  26
ATOM     23  C   UNL     1      -3.293  17.018  25.134  0.00  0.00    +0.000 C 
ATOM     24  C   UNL     1      -3.413  15.807  24.281  0.00  0.00    +0.000 A 
ATOM     25  C   UNL     1      -4.348  15.625  23.215  0.00  0.00    +0.000 A 
ATOM     26  C   UNL     1      -4.238  14.364  22.658  0.00  0.00    +0.000 A 
ATOM     27  S   UNL     1      -2.940  13.568  23.443  0.00  0.00    +0.000 S 
ATOM     28  N   UNL     1      -2.596  14.781  24.516  0.00  0.00    +0.000 NA
ENDBRANCH   1  26
TORSDOF 2
ENDMDL
MODEL 9
REMARK VINA RESULT:      -6.8      2.137      6.875
REMARK  Name = 
REMARK  3 active torsions:
REMARK  status: ('A' for Active; 'I' for Inactive)
REMARK    1  A    between atoms: C_1  and  C_2
REMARK    2  A    between atoms: C_4  and  C_5
REMARK    3  A    between atoms: C_18  and  N_19
REMARK                            x       y       z     vdW  Elec       q    Type
REMARK                         _______ _______ _______ _____ _____    ______ ____
ROOT
ATOM      1  C   UNL     1      -0.976  12.116  21.803  0.00  0.00    +0.000 A 
ATOM      2  C   UNL     1      -1.586  11.775  20.601  0.00  0.00    +0.000 A 
ATOM      3  C   UNL     1      -0.794  11.078  19.679  0.00  0.00    +0.000 A 
ATOM      4  C   UNL     1       0.522  10.738  19.980  0.00  0.00    +0.000 A 
ATOM      5  C   UNL     1       1.069  11.133  21.202  0.00  0.00    +0.000 A 
ATOM      6  N   UNL     1       0.318  11.826  22.094  0.00  0.00    +0.000 NA
ATOM      7  C   UNL     1       0.968  10.012  18.866  0.00  0.00    +0.000 A 
ATOM      8  N   UNL     1       0.035   9.877  17.923  0.00  0.00    +0.000 NA
ATOM      9  N   UNL     1      -1.041  10.573  18.405  0.00  0.00    +0.000 N 
ATOM     10  C   UNL     1      -2.245  10.691  17.636  0.00  0.00    +0.000 A 
ATOM     11  C   UNL     1      -2.375   9.935  16.478  0.00  0.00    +0.000 A 
ATOM     12  C   UNL     1      -3.573  10.003  15.786  0.00  0.00    +0.000 A 
ATOM     13  C   UNL     1      -4.586  10.840  16.252  0.00  0.00    +0.000 A 
ATOM     14  C   UNL     1      -4.390  11.618  17.391  0.00  0.00    +0.000 A 
ATOM     15  N   UNL     1      -3.227  11.526  18.075  0.00  0.00    +0.000 NA
ENDROOT
BRANCH  14  16
ATOM     16  N   UNL     1      -5.347  12.477  17.865  0.00  0.00    +0.000 N 
ATOM     17  C   UNL     1      -6.258  13.259  17.027  0.00  0.00    +0.000 C 
ATOM     18  C   UNL     1      -7.704  13.120  17.563  0.00  0.00    +0.000 C 
ATOM     19  N   UNL     1      -7.843  13.464  18.991  0.00  0.00    +0.000 NA
ATOM     20  C   UNL     1      -6.893  12.653  19.783  0.00  0.00    +0.000 C 
ATOM     21  C   UNL     1      -5.431  12.772  19.302  0.00  0.00    +0.000 C 
ATOM     22  H   UNL     1      -8.790  13.241  19.294  0.00  0.00    +0.000 HD
ENDBRANCH  14  16
BRANCH   1  26
ATOM     23  C   UNL     1      -2.194  15.614  25.348  0.00  0.00    +0.000 C 
ATOM     24  C   UNL     1      -2.268  14.412  24.478  0.00  0.00    +0.000 A 
ATOM     25  C   UNL     1      -1.263  13.985  23.554  0.00  0.00    +0.000 A 
ATOM     26  C   UNL     1      -1.664  12.859  22.858  0.00  0.00    +0.000 A 
ATOM     27  S   UNL     1      -3.194  12.394  23.473  0.00  0.00    +0.000 S 
ATOM     28  N   UNL     1      -3.360  13.651  24.537  0.00  0.00    +0.000 NA
ENDBRANCH   1  26
TORSDOF 2
ENDMDL
