MODEL 1
REMARK VINA RESULT:      -8.8      0.000      0.000
REMARK  Name = 
REMARK  6 active torsions:
REMARK  status: ('A' for Active; 'I' for Inactive)
REMARK    1  A    between atoms: C_1  and  O_2
REMARK    2  A    between atoms: O_2  and  C_3
REMARK    3  A    between atoms: C_3  and  C_5
REMARK    4  A    between atoms: N_8  and  C_9
REMARK    5  A    between atoms: C_9  and  C_10
REMARK    6  A    between atoms: N_12  and  C_13
REMARK                            x       y       z     vdW  Elec       q    Type
REMARK                         _______ _______ _______ _____ _____    ______ ____
ROOT
ATOM      1  C   UNL     1       4.074   4.574  19.274  0.00  0.00    +0.000 A 
ATOM      2  N   UNL     1       3.750   5.757  18.695  0.00  0.00    +0.000 NA
ATOM      3  N   UNL     1       2.609   6.165  19.338  0.00  0.00    +0.000 N 
ATOM      4  C   UNL     1       2.139   5.134  20.084  0.00  0.00    +0.000 A 
ATOM      5  C   UNL     1       3.176   4.279  20.321  0.00  0.00    +0.000 A 
ATOM      6  C   UNL     1       2.711   3.144  21.142  0.00  0.00    +0.000 C 
ATOM      7  C   UNL     1       1.232   3.057  20.633  0.00  0.00    +0.000 C 
ATOM      8  C   UNL     1       0.805   4.553  20.361  0.00  0.00    +0.000 C 
ENDROOT
BRANCH   3   9
ATOM      9  C   UNL     1       2.154   7.506  19.324  0.00  0.00    +0.000 A 
ATOM     10  C   UNL     1       1.553   8.061  20.460  0.00  0.00    +0.000 A 
ATOM     11  C   UNL     1       0.989   9.338  20.388  0.00  0.00    +0.000 A 
ATOM     12  C   UNL     1       1.007  10.036  19.185  0.00  0.00    +0.000 A 
ATOM     13  F   UNL     1       0.422  11.240  19.110  0.00  0.00    +0.000 F 
ATOM     14  C   UNL     1       1.606   9.499  18.053  0.00  0.00    +0.000 A 
ATOM     15  C   UNL     1       2.195   8.237  18.123  0.00  0.00    +0.000 A 
ENDBRANCH   3   9
BRANCH   1  16
ATOM     16  C   UNL     1       5.006   3.599  18.625  0.00  0.00    +0.000 C 
BRANCH  16  20
ATOM     17  C   UNL     1       6.786   4.607  15.797  0.00  0.00    +0.000 A 
ATOM     18  N   UNL     1       7.681   5.103  16.734  0.00  0.00    +0.000 NA
ATOM     19  C   UNL     1       7.131   4.803  17.889  0.00  0.00    +0.000 A 
ATOM     20  N   UNL     1       5.972   4.141  17.680  0.00  0.00    +0.000 N 
ATOM     21  N   UNL     1       5.716   4.003  16.359  0.00  0.00    +0.000 NA
BRANCH  17  22
ATOM     22  C   UNL     1       6.990   4.715  14.338  0.00  0.00    +0.000 C 
ATOM     23  O   UNL     1       7.780   5.487  13.798  0.00  0.00    +0.000 OA
BRANCH  22  25
ATOM     24  C   UNL     1       6.540   3.635  12.282  0.00  0.00    +0.000 C 
ATOM     25  O   UNL     1       6.179   3.856  13.644  0.00  0.00    +0.000 OA
ENDBRANCH  22  25
ENDBRANCH  17  22
ENDBRANCH  16  20
ENDBRANCH   1  16
TORSDOF 5
ENDMDL
MODEL 2
REMARK VINA RESULT:      -8.5      1.541      2.078
REMARK  Name = 
REMARK  6 active torsions:
REMARK  status: ('A' for Active; 'I' for Inactive)
REMARK    1  A    between atoms: C_1  and  O_2
REMARK    2  A    between atoms: O_2  and  C_3
REMARK    3  A    between atoms: C_3  and  C_5
REMARK    4  A    between atoms: N_8  and  C_9
REMARK    5  A    between atoms: C_9  and  C_10
REMARK    6  A    between atoms: N_12  and  C_13
REMARK                            x       y       z     vdW  Elec       q    Type
REMARK                         _______ _______ _______ _____ _____    ______ ____
ROOT
ATOM      1  C   UNL     1       5.035   4.688  18.213  0.00  0.00    +0.000 A 
ATOM      2  N   UNL     1       4.621   5.970  18.059  0.00  0.00    +0.000 NA
ATOM      3  N   UNL     1       3.270   5.937  18.293  0.00  0.00    +0.000 N 
ATOM      4  C   UNL     1       2.867   4.641  18.328  0.00  0.00    +0.000 A 
ATOM      5  C   UNL     1       3.957   3.869  18.610  0.00  0.00    +0.000 A 
ATOM      6  C   UNL     1       3.562   2.448  18.668  0.00  0.00    +0.000 C 
ATOM      7  C   UNL     1       2.398   2.469  17.619  0.00  0.00    +0.000 C 
ATOM      8  C   UNL     1       1.711   3.880  17.799  0.00  0.00    +0.000 C 
ENDROOT
BRANCH   3   9
ATOM      9  C   UNL     1       2.515   7.090  18.617  0.00  0.00    +0.000 A 
ATOM     10  C   UNL     1       2.346   8.112  17.675  0.00  0.00    +0.000 A 
ATOM     11  C   UNL     1       1.714   9.301  18.053  0.00  0.00    +0.000 A 
ATOM     12  C   UNL     1       1.282   9.469  19.365  0.00  0.00    +0.000 A 
ATOM     13  F   UNL     1       0.721  10.629  19.733  0.00  0.00    +0.000 F 
ATOM     14  C   UNL     1       1.439   8.460  20.306  0.00  0.00    +0.000 A 
ATOM     15  C   UNL     1       2.043   7.260  19.932  0.00  0.00    +0.000 A 
ENDBRANCH   3   9
BRANCH   1  16
ATOM     16  C   UNL     1       6.343   4.202  17.671  0.00  0.00    +0.000 C 
BRANCH  16  20
ATOM     17  C   UNL     1       6.469   4.200  14.183  0.00  0.00    +0.000 A 
ATOM     18  N   UNL     1       7.329   5.272  14.373  0.00  0.00    +0.000 NA
ATOM     19  C   UNL     1       7.379   5.412  15.678  0.00  0.00    +0.000 A 
ATOM     20  N   UNL     1       6.611   4.467  16.265  0.00  0.00    +0.000 N 
ATOM     21  N   UNL     1       6.010   3.681  15.343  0.00  0.00    +0.000 NA
BRANCH  17  22
ATOM     22  C   UNL     1       6.106   3.672  12.852  0.00  0.00    +0.000 C 
ATOM     23  O   UNL     1       6.913   3.264  12.019  0.00  0.00    +0.000 OA
BRANCH  22  25
ATOM     24  C   UNL     1       4.308   3.131  11.413  0.00  0.00    +0.000 C 
ATOM     25  O   UNL     1       4.753   3.701  12.643  0.00  0.00    +0.000 OA
ENDBRANCH  22  25
ENDBRANCH  17  22
ENDBRANCH  16  20
ENDBRANCH   1  16
TORSDOF 5
ENDMDL
MODEL 3
REMARK VINA RESULT:      -8.5      1.593      1.936
REMARK  Name = 
REMARK  6 active torsions:
REMARK  status: ('A' for Active; 'I' for Inactive)
REMARK    1  A    between atoms: C_1  and  O_2
REMARK    2  A    between atoms: O_2  and  C_3
REMARK    3  A    between atoms: C_3  and  C_5
REMARK    4  A    between atoms: N_8  and  C_9
REMARK    5  A    between atoms: C_9  and  C_10
REMARK    6  A    between atoms: N_12  and  C_13
REMARK                            x       y       z     vdW  Elec       q    Type
REMARK                         _______ _______ _______ _____ _____    ______ ____
ROOT
ATOM      1  C   UNL     1       5.068   4.836  18.124  0.00  0.00    +0.000 A 
ATOM      2  N   UNL     1       4.699   6.136  18.013  0.00  0.00    +0.000 NA
ATOM      3  N   UNL     1       3.352   6.146  18.270  0.00  0.00    +0.000 N 
ATOM      4  C   UNL     1       2.903   4.866  18.276  0.00  0.00    +0.000 A 
ATOM      5  C   UNL     1       3.967   4.047  18.518  0.00  0.00    +0.000 A 
ATOM      6  C   UNL     1       3.521   2.640  18.543  0.00  0.00    +0.000 C 
ATOM      7  C   UNL     1       2.342   2.733  17.517  0.00  0.00    +0.000 C 
ATOM      8  C   UNL     1       1.711   4.163  17.748  0.00  0.00    +0.000 C 
ENDROOT
BRANCH   3   9
ATOM      9  C   UNL     1       2.646   7.316  18.639  0.00  0.00    +0.000 A 
ATOM     10  C   UNL     1       2.072   7.425  19.911  0.00  0.00    +0.000 A 
ATOM     11  C   UNL     1       1.265   8.526  20.213  0.00  0.00    +0.000 A 
ATOM     12  C   UNL     1       1.019   9.491  19.241  0.00  0.00    +0.000 A 
ATOM     13  F   UNL     1       0.206  10.519  19.521  0.00  0.00    +0.000 F 
ATOM     14  C   UNL     1       1.588   9.397  17.978  0.00  0.00    +0.000 A 
ATOM     15  C   UNL     1       2.416   8.317  17.677  0.00  0.00    +0.000 A 
ENDBRANCH   3   9
BRANCH   1  16
ATOM     16  C   UNL     1       6.348   4.319  17.546  0.00  0.00    +0.000 C 
BRANCH  16  20
ATOM     17  C   UNL     1       6.356   4.142  14.060  0.00  0.00    +0.000 A 
ATOM     18  N   UNL     1       7.168   5.262  14.165  0.00  0.00    +0.000 NA
ATOM     19  C   UNL     1       7.255   5.472  15.458  0.00  0.00    +0.000 A 
ATOM     20  N   UNL     1       6.555   4.523  16.119  0.00  0.00    +0.000 N 
ATOM     21  N   UNL     1       5.963   3.663  15.261  0.00  0.00    +0.000 NA
BRANCH  17  22
ATOM     22  C   UNL     1       5.975   3.528  12.772  0.00  0.00    +0.000 C 
ATOM     23  O   UNL     1       6.772   3.093  11.942  0.00  0.00    +0.000 OA
BRANCH  22  25
ATOM     24  C   UNL     1       4.172   3.239  11.268  0.00  0.00    +0.000 C 
ATOM     25  O   UNL     1       4.617   3.511  12.596  0.00  0.00    +0.000 OA
ENDBRANCH  22  25
ENDBRANCH  17  22
ENDBRANCH  16  20
ENDBRANCH   1  16
TORSDOF 5
ENDMDL
MODEL 4
REMARK VINA RESULT:      -8.4      1.135      1.504
REMARK  Name = 
REMARK  6 active torsions:
REMARK  status: ('A' for Active; 'I' for Inactive)
REMARK    1  A    between atoms: C_1  and  O_2
REMARK    2  A    between atoms: O_2  and  C_3
REMARK    3  A    between atoms: C_3  and  C_5
REMARK    4  A    between atoms: N_8  and  C_9
REMARK    5  A    between atoms: C_9  and  C_10
REMARK    6  A    between atoms: N_12  and  C_13
REMARK                            x       y       z     vdW  Elec       q    Type
REMARK                         _______ _______ _______ _____ _____    ______ ____
ROOT
ATOM      1  C   UNL     1       4.617   4.781  19.152  0.00  0.00    +0.000 A 
ATOM      2  N   UNL     1       4.244   6.082  19.060  0.00  0.00    +0.000 NA
ATOM      3  N   UNL     1       2.873   6.062  19.110  0.00  0.00    +0.000 N 
ATOM      4  C   UNL     1       2.453   4.779  18.974  0.00  0.00    +0.000 A 
ATOM      5  C   UNL     1       3.485   3.958  19.328  0.00  0.00    +0.000 A 
ATOM      6  C   UNL     1       3.067   2.548  19.206  0.00  0.00    +0.000 C 
ATOM      7  C   UNL     1       2.055   2.689  18.019  0.00  0.00    +0.000 C 
ATOM      8  C   UNL     1       1.368   4.096  18.232  0.00  0.00    +0.000 C 
ENDROOT
BRANCH   3   9
ATOM      9  C   UNL     1       2.097   7.201  19.433  0.00  0.00    +0.000 A 
ATOM     10  C   UNL     1       1.981   8.259  18.523  0.00  0.00    +0.000 A 
ATOM     11  C   UNL     1       1.324   9.432  18.908  0.00  0.00    +0.000 A 
ATOM     12  C   UNL     1       0.815   9.548  20.198  0.00  0.00    +0.000 A 
ATOM     13  F   UNL     1       0.229  10.693  20.577  0.00  0.00    +0.000 F 
ATOM     14  C   UNL     1       0.919   8.503  21.107  0.00  0.00    +0.000 A 
ATOM     15  C   UNL     1       1.548   7.320  20.723  0.00  0.00    +0.000 A 
ENDBRANCH   3   9
BRANCH   1  16
ATOM     16  C   UNL     1       5.979   4.313  18.747  0.00  0.00    +0.000 C 
BRANCH  16  20
ATOM     17  C   UNL     1       6.954   5.066  15.481  0.00  0.00    +0.000 A 
ATOM     18  N   UNL     1       7.577   6.148  16.087  0.00  0.00    +0.000 NA
ATOM     19  C   UNL     1       7.285   6.011  17.361  0.00  0.00    +0.000 A 
ATOM     20  N   UNL     1       6.542   4.895  17.537  0.00  0.00    +0.000 N 
ATOM     21  N   UNL     1       6.306   4.271  16.361  0.00  0.00    +0.000 NA
BRANCH  17  22
ATOM     22  C   UNL     1       7.009   4.802  14.029  0.00  0.00    +0.000 C 
ATOM     23  O   UNL     1       7.725   5.410  13.235  0.00  0.00    +0.000 OA
BRANCH  22  25
ATOM     24  C   UNL     1       6.262   3.364  12.305  0.00  0.00    +0.000 C 
ATOM     25  O   UNL     1       6.151   3.801  13.659  0.00  0.00    +0.000 OA
ENDBRANCH  22  25
ENDBRANCH  17  22
ENDBRANCH  16  20
ENDBRANCH   1  16
TORSDOF 5
ENDMDL
MODEL 5
REMARK VINA RESULT:      -8.3      0.582      1.303
REMARK  Name = 
REMARK  6 active torsions:
REMARK  status: ('A' for Active; 'I' for Inactive)
REMARK    1  A    between atoms: C_1  and  O_2
REMARK    2  A    between atoms: O_2  and  C_3
REMARK    3  A    between atoms: C_3  and  C_5
REMARK    4  A    between atoms: N_8  and  C_9
REMARK    5  A    between atoms: C_9  and  C_10
REMARK    6  A    between atoms: N_12  and  C_13
REMARK                            x       y       z     vdW  Elec       q    Type
REMARK                         _______ _______ _______ _____ _____    ______ ____
ROOT
ATOM      1  C   UNL     1       4.071   4.798  19.576  0.00  0.00    +0.000 A 
ATOM      2  N   UNL     1       3.725   5.967  18.983  0.00  0.00    +0.000 NA
ATOM      3  N   UNL     1       2.481   6.262  19.480  0.00  0.00    +0.000 N 
ATOM      4  C   UNL     1       2.009   5.175  20.141  0.00  0.00    +0.000 A 
ATOM      5  C   UNL     1       3.076   4.401  20.494  0.00  0.00    +0.000 A 
ATOM      6  C   UNL     1       2.609   3.208  21.227  0.00  0.00    +0.000 C 
ATOM      7  C   UNL     1       1.219   3.015  20.530  0.00  0.00    +0.000 C 
ATOM      8  C   UNL     1       0.705   4.479  20.233  0.00  0.00    +0.000 C 
ENDROOT
BRANCH   3   9
ATOM      9  C   UNL     1       1.919   7.561  19.433  0.00  0.00    +0.000 A 
ATOM     10  C   UNL     1       2.024   8.335  18.270  0.00  0.00    +0.000 A 
ATOM     11  C   UNL     1       1.585   9.662  18.283  0.00  0.00    +0.000 A 
ATOM     12  C   UNL     1       1.072  10.210  19.454  0.00  0.00    +0.000 A 
ATOM     13  F   UNL     1       0.698  11.497  19.474  0.00  0.00    +0.000 F 
ATOM     14  C   UNL     1       0.958   9.451  20.612  0.00  0.00    +0.000 A 
ATOM     15  C   UNL     1       1.368   8.118  20.601  0.00  0.00    +0.000 A 
ENDBRANCH   3   9
BRANCH   1  16
ATOM     16  C   UNL     1       5.157   3.922  19.035  0.00  0.00    +0.000 C 
BRANCH  16  20
ATOM     17  C   UNL     1       6.662   4.772  16.003  0.00  0.00    +0.000 A 
ATOM     18  N   UNL     1       7.450   5.584  16.805  0.00  0.00    +0.000 NA
ATOM     19  C   UNL     1       6.987   5.380  18.017  0.00  0.00    +0.000 A 
ATOM     20  N   UNL     1       5.982   4.477  17.971  0.00  0.00    +0.000 N 
ATOM     21  N   UNL     1       5.743   4.073  16.704  0.00  0.00    +0.000 NA
BRANCH  17  22
ATOM     22  C   UNL     1       6.821   4.671  14.537  0.00  0.00    +0.000 C 
ATOM     23  O   UNL     1       6.125   3.971  13.805  0.00  0.00    +0.000 OA
BRANCH  22  25
ATOM     24  C   UNL     1       8.022   5.477  12.665  0.00  0.00    +0.000 C 
ATOM     25  O   UNL     1       7.855   5.445  14.082  0.00  0.00    +0.000 OA
ENDBRANCH  22  25
ENDBRANCH  17  22
ENDBRANCH  16  20
ENDBRANCH   1  16
TORSDOF 5
ENDMDL
MODEL 6
REMARK VINA RESULT:      -7.9      0.887      1.133
REMARK  Name = 
REMARK  6 active torsions:
REMARK  status: ('A' for Active; 'I' for Inactive)
REMARK    1  A    between atoms: C_1  and  O_2
REMARK    2  A    between atoms: O_2  and  C_3
REMARK    3  A    between atoms: C_3  and  C_5
REMARK    4  A    between atoms: N_8  and  C_9
REMARK    5  A    between atoms: C_9  and  C_10
REMARK    6  A    between atoms: N_12  and  C_13
REMARK                            x       y       z     vdW  Elec       q    Type
REMARK                         _______ _______ _______ _____ _____    ______ ____
ROOT
ATOM      1  C   UNL     1       3.657   4.617  18.334  0.00  0.00    +0.000 A 
ATOM      2  N   UNL     1       3.217   5.832  17.925  0.00  0.00    +0.000 NA
ATOM      3  N   UNL     1       2.371   6.256  18.919  0.00  0.00    +0.000 N 
ATOM      4  C   UNL     1       2.125   5.214  19.752  0.00  0.00    +0.000 A 
ATOM      5  C   UNL     1       3.141   4.313  19.612  0.00  0.00    +0.000 A 
ATOM      6  C   UNL     1       2.920   3.164  20.511  0.00  0.00    +0.000 C 
ATOM      7  C   UNL     1       1.353   3.150  20.518  0.00  0.00    +0.000 C 
ATOM      8  C   UNL     1       0.931   4.671  20.440  0.00  0.00    +0.000 C 
ENDROOT
BRANCH   3   9
ATOM      9  C   UNL     1       2.001   7.611  19.090  0.00  0.00    +0.000 A 
ATOM     10  C   UNL     1       1.556   8.072  20.335  0.00  0.00    +0.000 A 
ATOM     11  C   UNL     1       1.067   9.376  20.455  0.00  0.00    +0.000 A 
ATOM     12  C   UNL     1       1.003  10.197  19.334  0.00  0.00    +0.000 A 
ATOM     13  F   UNL     1       0.488  11.429  19.445  0.00  0.00    +0.000 F 
ATOM     14  C   UNL     1       1.446   9.754  18.095  0.00  0.00    +0.000 A 
ATOM     15  C   UNL     1       1.961   8.464  17.971  0.00  0.00    +0.000 A 
ENDBRANCH   3   9
BRANCH   1  16
ATOM     16  C   UNL     1       4.277   3.635  17.390  0.00  0.00    +0.000 C 
BRANCH  16  20
ATOM     17  C   UNL     1       6.680   4.513  15.016  0.00  0.00    +0.000 A 
ATOM     18  N   UNL     1       7.450   4.796  16.134  0.00  0.00    +0.000 NA
ATOM     19  C   UNL     1       6.657   4.520  17.145  0.00  0.00    +0.000 A 
ATOM     20  N   UNL     1       5.471   4.070  16.679  0.00  0.00    +0.000 N 
ATOM     21  N   UNL     1       5.446   4.059  15.327  0.00  0.00    +0.000 NA
BRANCH  17  22
ATOM     22  C   UNL     1       7.164   4.677  13.630  0.00  0.00    +0.000 C 
ATOM     23  O   UNL     1       6.726   4.062  12.659  0.00  0.00    +0.000 OA
BRANCH  22  25
ATOM     24  C   UNL     1       8.409   6.143  12.252  0.00  0.00    +0.000 C 
ATOM     25  O   UNL     1       8.180   5.592  13.548  0.00  0.00    +0.000 OA
ENDBRANCH  22  25
ENDBRANCH  17  22
ENDBRANCH  16  20
ENDBRANCH   1  16
TORSDOF 5
ENDMDL
MODEL 7
REMARK VINA RESULT:      -7.8      0.875      1.190
REMARK  Name = 
REMARK  6 active torsions:
REMARK  status: ('A' for Active; 'I' for Inactive)
REMARK    1  A    between atoms: C_1  and  O_2
REMARK    2  A    between atoms: O_2  and  C_3
REMARK    3  A    between atoms: C_3  and  C_5
REMARK    4  A    between atoms: N_8  and  C_9
REMARK    5  A    between atoms: C_9  and  C_10
REMARK    6  A    between atoms: N_12  and  C_13
REMARK                            x       y       z     vdW  Elec       q    Type
REMARK                         _______ _______ _______ _____ _____    ______ ____
ROOT
ATOM      1  C   UNL     1       4.081   4.936  19.706  0.00  0.00    +0.000 A 
ATOM      2  N   UNL     1       3.696   6.168  19.287  0.00  0.00    +0.000 NA
ATOM      3  N   UNL     1       2.447   6.350  19.824  0.00  0.00    +0.000 N 
ATOM      4  C   UNL     1       2.011   5.166  20.322  0.00  0.00    +0.000 A 
ATOM      5  C   UNL     1       3.103   4.381  20.557  0.00  0.00    +0.000 A 
ATOM      6  C   UNL     1       2.675   3.081  21.111  0.00  0.00    +0.000 C 
ATOM      7  C   UNL     1       1.287   2.950  20.397  0.00  0.00    +0.000 C 
ATOM      8  C   UNL     1       0.728   4.425  20.314  0.00  0.00    +0.000 C 
ENDROOT
BRANCH   3   9
ATOM      9  C   UNL     1       1.848   7.625  19.966  0.00  0.00    +0.000 A 
ATOM     10  C   UNL     1       1.199   7.974  21.156  0.00  0.00    +0.000 A 
ATOM     11  C   UNL     1       0.497   9.181  21.232  0.00  0.00    +0.000 A 
ATOM     12  C   UNL     1       0.428  10.013  20.119  0.00  0.00    +0.000 A 
ATOM     13  F   UNL     1      -0.286  11.145  20.183  0.00  0.00    +0.000 F 
ATOM     14  C   UNL     1       1.073   9.680  18.935  0.00  0.00    +0.000 A 
ATOM     15  C   UNL     1       1.798   8.492  18.858  0.00  0.00    +0.000 A 
ENDBRANCH   3   9
BRANCH   1  16
ATOM     16  C   UNL     1       5.189   4.180  19.042  0.00  0.00    +0.000 C 
BRANCH  16  20
ATOM     17  C   UNL     1       5.992   4.354  15.650  0.00  0.00    +0.000 A 
ATOM     18  N   UNL     1       4.667   3.982  15.481  0.00  0.00    +0.000 NA
ATOM     19  C   UNL     1       4.211   3.861  16.707  0.00  0.00    +0.000 A 
ATOM     20  N   UNL     1       5.193   4.162  17.586  0.00  0.00    +0.000 N 
ATOM     21  N   UNL     1       6.344   4.474  16.949  0.00  0.00    +0.000 NA
BRANCH  17  22
ATOM     22  C   UNL     1       6.918   4.608  14.527  0.00  0.00    +0.000 C 
ATOM     23  O   UNL     1       7.804   5.461  14.531  0.00  0.00    +0.000 OA
BRANCH  22  25
ATOM     24  C   UNL     1       7.094   4.276  12.191  0.00  0.00    +0.000 C 
ATOM     25  O   UNL     1       6.665   3.786  13.461  0.00  0.00    +0.000 OA
ENDBRANCH  22  25
ENDBRANCH  17  22
ENDBRANCH  16  20
ENDBRANCH   1  16
TORSDOF 5
ENDMDL
MODEL 8
REMARK VINA RESULT:      -7.8      0.737      1.242
REMARK  Name = 
REMARK  6 active torsions:
REMARK  status: ('A' for Active; 'I' for Inactive)
REMARK    1  A    between atoms: C_1  and  O_2
REMARK    2  A    between atoms: O_2  and  C_3
REMARK    3  A    between atoms: C_3  and  C_5
REMARK    4  A    between atoms: N_8  and  C_9
REMARK    5  A    between atoms: C_9  and  C_10
REMARK    6  A    between atoms: N_12  and  C_13
REMARK                            x       y       z     vdW  Elec       q    Type
REMARK                         _______ _______ _______ _____ _____    ______ ____
ROOT
ATOM      1  C   UNL     1       3.972   4.542  18.362  0.00  0.00    +0.000 A 
ATOM      2  N   UNL     1       3.444   5.716  17.936  0.00  0.00    +0.000 NA
ATOM      3  N   UNL     1       2.502   6.044  18.877  0.00  0.00    +0.000 N 
ATOM      4  C   UNL     1       2.304   4.972  19.685  0.00  0.00    +0.000 A 
ATOM      5  C   UNL     1       3.408   4.174  19.602  0.00  0.00    +0.000 A 
ATOM      6  C   UNL     1       3.241   2.996  20.476  0.00  0.00    +0.000 C 
ATOM      7  C   UNL     1       1.685   2.835  20.383  0.00  0.00    +0.000 C 
ATOM      8  C   UNL     1       1.126   4.309  20.291  0.00  0.00    +0.000 C 
ENDROOT
BRANCH   3   9
ATOM      9  C   UNL     1       1.994   7.356  19.035  0.00  0.00    +0.000 A 
ATOM     10  C   UNL     1       1.997   8.251  17.958  0.00  0.00    +0.000 A 
ATOM     11  C   UNL     1       1.618   9.581  18.163  0.00  0.00    +0.000 A 
ATOM     12  C   UNL     1       1.267  10.011  19.439  0.00  0.00    +0.000 A 
ATOM     13  F   UNL     1       0.952  11.298  19.640  0.00  0.00    +0.000 F 
ATOM     14  C   UNL     1       1.255   9.132  20.514  0.00  0.00    +0.000 A 
ATOM     15  C   UNL     1       1.604   7.797  20.313  0.00  0.00    +0.000 A 
ENDBRANCH   3   9
BRANCH   1  16
ATOM     16  C   UNL     1       4.740   3.637  17.451  0.00  0.00    +0.000 C 
BRANCH  16  20
ATOM     17  C   UNL     1       6.745   4.759  14.825  0.00  0.00    +0.000 A 
ATOM     18  N   UNL     1       7.458   5.374  15.843  0.00  0.00    +0.000 NA
ATOM     19  C   UNL     1       6.802   5.046  16.933  0.00  0.00    +0.000 A 
ATOM     20  N   UNL     1       5.754   4.256  16.610  0.00  0.00    +0.000 N 
ATOM     21  N   UNL     1       5.682   4.058  15.275  0.00  0.00    +0.000 NA
BRANCH  17  22
ATOM     22  C   UNL     1       7.118   4.851  13.398  0.00  0.00    +0.000 C 
ATOM     23  O   UNL     1       7.999   5.583  12.952  0.00  0.00    +0.000 OA
BRANCH  22  25
ATOM     24  C   UNL     1       7.073   3.077  11.833  0.00  0.00    +0.000 C 
ATOM     25  O   UNL     1       6.352   4.027  12.616  0.00  0.00    +0.000 OA
ENDBRANCH  22  25
ENDBRANCH  17  22
ENDBRANCH  16  20
ENDBRANCH   1  16
TORSDOF 5
ENDMDL
MODEL 9
REMARK VINA RESULT:      -7.8      1.256      1.932
REMARK  Name = 
REMARK  6 active torsions:
REMARK  status: ('A' for Active; 'I' for Inactive)
REMARK    1  A    between atoms: C_1  and  O_2
REMARK    2  A    between atoms: O_2  and  C_3
REMARK    3  A    between atoms: C_3  and  C_5
REMARK    4  A    between atoms: N_8  and  C_9
REMARK    5  A    between atoms: C_9  and  C_10
REMARK    6  A    between atoms: N_12  and  C_13
REMARK                            x       y       z     vdW  Elec       q    Type
REMARK                         _______ _______ _______ _____ _____    ______ ____
ROOT
ATOM      1  C   UNL     1       5.122   4.986  18.456  0.00  0.00    +0.000 A 
ATOM      2  N   UNL     1       4.516   6.176  18.223  0.00  0.00    +0.000 NA
ATOM      3  N   UNL     1       3.250   6.035  18.731  0.00  0.00    +0.000 N 
ATOM      4  C   UNL     1       3.041   4.726  19.017  0.00  0.00    +0.000 A 
ATOM      5  C   UNL     1       4.258   4.128  19.169  0.00  0.00    +0.000 A 
ATOM      6  C   UNL     1       4.078   2.700  19.493  0.00  0.00    +0.000 C 
ATOM      7  C   UNL     1       2.747   2.432  18.712  0.00  0.00    +0.000 C 
ATOM      8  C   UNL     1       1.921   3.772  18.841  0.00  0.00    +0.000 C 
ENDROOT
BRANCH   3   9
ATOM      9  C   UNL     1       2.419   7.137  19.048  0.00  0.00    +0.000 A 
ATOM     10  C   UNL     1       2.165   8.130  18.094  0.00  0.00    +0.000 A 
ATOM     11  C   UNL     1       1.456   9.277  18.462  0.00  0.00    +0.000 A 
ATOM     12  C   UNL     1       1.030   9.434  19.778  0.00  0.00    +0.000 A 
ATOM     13  F   UNL     1       0.393  10.558  20.137  0.00  0.00    +0.000 F 
ATOM     14  C   UNL     1       1.270   8.454  20.732  0.00  0.00    +0.000 A 
ATOM     15  C   UNL     1       1.953   7.295  20.367  0.00  0.00    +0.000 A 
ENDBRANCH   3   9
BRANCH   1  16
ATOM     16  C   UNL     1       6.359   4.566  17.726  0.00  0.00    +0.000 C 
BRANCH  16  20
ATOM     17  C   UNL     1       6.961   4.820  14.298  0.00  0.00    +0.000 A 
ATOM     18  N   UNL     1       5.678   4.303  14.196  0.00  0.00    +0.000 NA
ATOM     19  C   UNL     1       5.303   4.134  15.444  0.00  0.00    +0.000 A 
ATOM     20  N   UNL     1       6.290   4.545  16.272  0.00  0.00    +0.000 N 
ATOM     21  N   UNL     1       7.364   4.981  15.577  0.00  0.00    +0.000 NA
BRANCH  17  22
ATOM     22  C   UNL     1       7.793   5.173  13.129  0.00  0.00    +0.000 C 
ATOM     23  O   UNL     1       8.813   5.858  13.178  0.00  0.00    +0.000 OA
BRANCH  22  25
ATOM     24  C   UNL     1       7.320   3.232  11.861  0.00  0.00    +0.000 C 
ATOM     25  O   UNL     1       7.287   4.655  11.967  0.00  0.00    +0.000 OA
ENDBRANCH  22  25
ENDBRANCH  17  22
ENDBRANCH  16  20
ENDBRANCH   1  16
TORSDOF 5
ENDMDL
