MODEL 1
REMARK VINA RESULT:      -7.6      0.000      0.000
REMARK  Name = 
REMARK  14 active torsions:
REMARK  status: ('A' for Active; 'I' for Inactive)
REMARK    1  A    between atoms: C_1  and  C_2
REMARK    2  A    between atoms: C_3  and  C_4
REMARK    3  A    between atoms: N_6  and  C_7
REMARK    4  A    between atoms: C_7  and  C_8
REMARK    5  A    between atoms: C_8  and  C_9
REMARK    6  A    between atoms: C_9  and  N_10
REMARK    7  A    between atoms: N_10  and  C_11
REMARK    8  A    between atoms: N_10  and  C_12
REMARK    9  A    between atoms: N_19  and  C_20
REMARK   10  A    between atoms: C_23  and  C_24
REMARK   11  A    between atoms: C_27  and  O_28
REMARK   12  A    between atoms: O_28  and  C_29
REMARK   13  A    between atoms: C_29  and  C_30
REMARK   14  A    between atoms: C_29  and  C_32
REMARK                            x       y       z     vdW  Elec       q    Type
REMARK                         _______ _______ _______ _____ _____    ______ ____
ROOT
ATOM      1  C   UNL     1       0.154   8.129  21.592  0.00  0.00    +0.000 C 
ATOM      2  C   UNL     1       0.374   9.458  20.930  0.00  0.00    +0.000 A 
ATOM      3  C   UNL     1      -0.108  10.682  21.411  0.00  0.00    +0.000 A 
ATOM      4  S   UNL     1       0.440  11.987  20.456  0.00  0.00    +0.000 S 
ATOM      5  C   UNL     1       1.254  10.968  19.379  0.00  0.00    +0.000 A 
ATOM      6  N   UNL     1       1.933  11.520  18.362  0.00  0.00    +0.000 NA
ATOM      7  C   UNL     1       2.486  10.615  17.567  0.00  0.00    +0.000 A 
ATOM      8  N   UNL     1       2.410   9.290  17.700  0.00  0.00    +0.000 NA
ATOM      9  C   UNL     1       1.781   8.742  18.776  0.00  0.00    +0.000 A 
ATOM     10  N   UNL     1       1.879   7.335  18.903  0.00  0.00    +0.000 N 
ATOM     11  C   UNL     1       1.129   9.620  19.684  0.00  0.00    +0.000 A 
ATOM     12  H   UNL     1       1.538   7.004  19.798  0.00  0.00    +0.000 HD
ENDROOT
BRANCH  10  13
ATOM     13  C   UNL     1       3.075   6.632  18.571  0.00  0.00    +0.000 A 
ATOM     14  C   UNL     1       3.853   7.099  17.489  0.00  0.00    +0.000 A 
ATOM     15  C   UNL     1       5.077   6.530  17.154  0.00  0.00    +0.000 A 
ATOM     16  C   UNL     1       5.591   5.505  17.940  0.00  0.00    +0.000 A 
ATOM     17  C   UNL     1       4.853   5.038  19.033  0.00  0.00    +0.000 A 
ATOM     18  C   UNL     1       3.585   5.569  19.338  0.00  0.00    +0.000 A 
BRANCH  16  19
ATOM     19  C   UNL     1       6.872   4.949  17.621  0.00  0.00    +0.000 C 
ATOM     20  N   UNL     1       7.896   4.488  17.332  0.00  0.00    +0.000 NA
ENDBRANCH  16  19
BRANCH  18  21
ATOM     21  O   UNL     1       2.991   4.941  20.401  0.00  0.00    +0.000 OA
BRANCH  21  22
ATOM     22  C   UNL     1       2.499   3.594  20.257  0.00  0.00    +0.000 C 
BRANCH  22  23
ATOM     23  C   UNL     1       2.592   2.764  21.539  0.00  0.00    +0.000 C 
ATOM     24  F   UNL     1       1.342   2.557  22.043  0.00  0.00    +0.000 F 
ENDBRANCH  22  23
BRANCH  22  25
ATOM     25  C   UNL     1       1.020   3.682  19.863  0.00  0.00    +0.000 C 
ATOM     26  F   UNL     1       0.467   4.792  20.430  0.00  0.00    +0.000 F 
ENDBRANCH  22  25
ENDBRANCH  21  22
ENDBRANCH  18  21
ENDBRANCH  10  13
BRANCH   3  27
ATOM     27  C   UNL     1      -0.964  10.944  22.563  0.00  0.00    +0.000 C 
ATOM     28  O   UNL     1      -0.821  10.396  23.647  0.00  0.00    +0.000 OA
ATOM     29  N   UNL     1      -1.988  11.852  22.385  0.00  0.00    +0.000 N 
ATOM     30  H   UNL     1      -2.049  12.345  21.505  0.00  0.00    +0.000 HD
BRANCH  29  31
ATOM     31  C   UNL     1      -2.897  12.198  23.462  0.00  0.00    +0.000 C 
BRANCH  31  32
ATOM     32  C   UNL     1      -3.691  13.460  23.143  0.00  0.00    +0.000 C 
BRANCH  32  33
ATOM     33  C   UNL     1      -4.640  13.218  21.963  0.00  0.00    +0.000 C 
BRANCH  33  34
ATOM     34  N   UNL     1      -5.807  12.382  22.297  0.00  0.00    +0.000 NA
ATOM     35  C   UNL     1      -6.712  13.034  23.245  0.00  0.00    +0.000 C 
ATOM     36  C   UNL     1      -6.539  12.040  21.073  0.00  0.00    +0.000 C 
ENDBRANCH  33  34
ENDBRANCH  32  33
ENDBRANCH  31  32
ENDBRANCH  29  31
ENDBRANCH   3  27
TORSDOF 11
ENDMDL
MODEL 2
REMARK VINA RESULT:      -7.3      1.152      1.234
REMARK  Name = 
REMARK  14 active torsions:
REMARK  status: ('A' for Active; 'I' for Inactive)
REMARK    1  A    between atoms: C_1  and  C_2
REMARK    2  A    between atoms: C_3  and  C_4
REMARK    3  A    between atoms: N_6  and  C_7
REMARK    4  A    between atoms: C_7  and  C_8
REMARK    5  A    between atoms: C_8  and  C_9
REMARK    6  A    between atoms: C_9  and  N_10
REMARK    7  A    between atoms: N_10  and  C_11
REMARK    8  A    between atoms: N_10  and  C_12
REMARK    9  A    between atoms: N_19  and  C_20
REMARK   10  A    between atoms: C_23  and  C_24
REMARK   11  A    between atoms: C_27  and  O_28
REMARK   12  A    between atoms: O_28  and  C_29
REMARK   13  A    between atoms: C_29  and  C_30
REMARK   14  A    between atoms: C_29  and  C_32
REMARK                            x       y       z     vdW  Elec       q    Type
REMARK                         _______ _______ _______ _____ _____    ______ ____
ROOT
ATOM      1  C   UNL     1      -0.049   8.241  21.265  0.00  0.00    +0.000 C 
ATOM      2  C   UNL     1       0.256   9.631  20.788  0.00  0.00    +0.000 A 
ATOM      3  C   UNL     1      -0.136  10.806  21.441  0.00  0.00    +0.000 A 
ATOM      4  S   UNL     1       0.492  12.191  20.665  0.00  0.00    +0.000 S 
ATOM      5  C   UNL     1       1.225  11.279  19.444  0.00  0.00    +0.000 A 
ATOM      6  N   UNL     1       1.932  11.919  18.500  0.00  0.00    +0.000 NA
ATOM      7  C   UNL     1       2.415  11.098  17.579  0.00  0.00    +0.000 A 
ATOM      8  N   UNL     1       2.249   9.776  17.530  0.00  0.00    +0.000 NA
ATOM      9  C   UNL     1       1.593   9.127  18.532  0.00  0.00    +0.000 A 
ATOM     10  N   UNL     1       1.595   7.713  18.463  0.00  0.00    +0.000 N 
ATOM     11  C   UNL     1       1.011   9.913  19.562  0.00  0.00    +0.000 A 
ATOM     12  H   UNL     1       1.240   7.285  19.309  0.00  0.00    +0.000 HD
ENDROOT
BRANCH  10  13
ATOM     13  C   UNL     1       2.737   6.984  18.016  0.00  0.00    +0.000 A 
ATOM     14  C   UNL     1       3.929   7.694  17.750  0.00  0.00    +0.000 A 
ATOM     15  C   UNL     1       5.112   7.054  17.399  0.00  0.00    +0.000 A 
ATOM     16  C   UNL     1       5.152   5.665  17.364  0.00  0.00    +0.000 A 
ATOM     17  C   UNL     1       3.993   4.935  17.646  0.00  0.00    +0.000 A 
ATOM     18  C   UNL     1       2.777   5.580  17.942  0.00  0.00    +0.000 A 
BRANCH  16  19
ATOM     19  C   UNL     1       6.383   5.005  17.046  0.00  0.00    +0.000 C 
ATOM     20  N   UNL     1       7.382   4.460  16.822  0.00  0.00    +0.000 NA
ENDBRANCH  16  19
BRANCH  18  21
ATOM     21  O   UNL     1       1.743   4.701  18.125  0.00  0.00    +0.000 OA
BRANCH  21  22
ATOM     22  C   UNL     1       1.812   3.719  19.178  0.00  0.00    +0.000 C 
BRANCH  22  23
ATOM     23  C   UNL     1       0.993   4.084  20.417  0.00  0.00    +0.000 C 
ATOM     24  F   UNL     1       0.936   3.014  21.261  0.00  0.00    +0.000 F 
ENDBRANCH  22  23
BRANCH  22  25
ATOM     25  C   UNL     1       1.254   2.404  18.619  0.00  0.00    +0.000 C 
ATOM     26  F   UNL     1       2.155   1.866  17.747  0.00  0.00    +0.000 F 
ENDBRANCH  22  25
ENDBRANCH  21  22
ENDBRANCH  18  21
ENDBRANCH  10  13
BRANCH   3  27
ATOM     27  C   UNL     1      -0.963  10.963  22.633  0.00  0.00    +0.000 C 
ATOM     28  O   UNL     1      -0.737  10.389  23.689  0.00  0.00    +0.000 OA
ATOM     29  N   UNL     1      -2.056  11.799  22.528  0.00  0.00    +0.000 N 
ATOM     30  H   UNL     1      -2.187  12.317  21.670  0.00  0.00    +0.000 HD
BRANCH  29  31
ATOM     31  C   UNL     1      -2.944  12.039  23.650  0.00  0.00    +0.000 C 
BRANCH  31  32
ATOM     32  C   UNL     1      -3.615  13.404  23.553  0.00  0.00    +0.000 C 
BRANCH  32  33
ATOM     33  C   UNL     1      -4.257  13.596  22.174  0.00  0.00    +0.000 C 
BRANCH  33  34
ATOM     34  N   UNL     1      -5.174  12.510  21.786  0.00  0.00    +0.000 NA
ATOM     35  C   UNL     1      -6.531  12.713  22.297  0.00  0.00    +0.000 C 
ATOM     36  C   UNL     1      -5.212  12.389  20.325  0.00  0.00    +0.000 C 
ENDBRANCH  33  34
ENDBRANCH  32  33
ENDBRANCH  31  32
ENDBRANCH  29  31
ENDBRANCH   3  27
TORSDOF 11
ENDMDL
MODEL 3
REMARK VINA RESULT:      -7.3      1.421      2.232
REMARK  Name = 
REMARK  14 active torsions:
REMARK  status: ('A' for Active; 'I' for Inactive)
REMARK    1  A    between atoms: C_1  and  C_2
REMARK    2  A    between atoms: C_3  and  C_4
REMARK    3  A    between atoms: N_6  and  C_7
REMARK    4  A    between atoms: C_7  and  C_8
REMARK    5  A    between atoms: C_8  and  C_9
REMARK    6  A    between atoms: C_9  and  N_10
REMARK    7  A    between atoms: N_10  and  C_11
REMARK    8  A    between atoms: N_10  and  C_12
REMARK    9  A    between atoms: N_19  and  C_20
REMARK   10  A    between atoms: C_23  and  C_24
REMARK   11  A    between atoms: C_27  and  O_28
REMARK   12  A    between atoms: O_28  and  C_29
REMARK   13  A    between atoms: C_29  and  C_30
REMARK   14  A    between atoms: C_29  and  C_32
REMARK                            x       y       z     vdW  Elec       q    Type
REMARK                         _______ _______ _______ _____ _____    ______ ____
ROOT
ATOM      1  C   UNL     1       0.087   8.181  21.574  0.00  0.00    +0.000 C 
ATOM      2  C   UNL     1       0.319   9.519  20.933  0.00  0.00    +0.000 A 
ATOM      3  C   UNL     1      -0.153  10.739  21.432  0.00  0.00    +0.000 A 
ATOM      4  S   UNL     1       0.408  12.054  20.498  0.00  0.00    +0.000 S 
ATOM      5  C   UNL     1       1.214  11.045  19.407  0.00  0.00    +0.000 A 
ATOM      6  N   UNL     1       1.900  11.606  18.399  0.00  0.00    +0.000 NA
ATOM      7  C   UNL     1       2.446  10.709  17.591  0.00  0.00    +0.000 A 
ATOM      8  N   UNL     1       2.359   9.383  17.704  0.00  0.00    +0.000 NA
ATOM      9  C   UNL     1       1.724   8.824  18.771  0.00  0.00    +0.000 A 
ATOM     10  N   UNL     1       1.810   7.415  18.876  0.00  0.00    +0.000 N 
ATOM     11  C   UNL     1       1.078   9.693  19.690  0.00  0.00    +0.000 A 
ATOM     12  H   UNL     1       1.465   7.073  19.766  0.00  0.00    +0.000 HD
ENDROOT
BRANCH  10  13
ATOM     13  C   UNL     1       3.001   6.706  18.535  0.00  0.00    +0.000 A 
ATOM     14  C   UNL     1       3.814   7.215  17.498  0.00  0.00    +0.000 A 
ATOM     15  C   UNL     1       5.035   6.640  17.162  0.00  0.00    +0.000 A 
ATOM     16  C   UNL     1       5.510   5.565  17.904  0.00  0.00    +0.000 A 
ATOM     17  C   UNL     1       4.737   5.056  18.953  0.00  0.00    +0.000 A 
ATOM     18  C   UNL     1       3.472   5.595  19.256  0.00  0.00    +0.000 A 
BRANCH  16  19
ATOM     19  C   UNL     1       6.788   5.002  17.586  0.00  0.00    +0.000 C 
ATOM     20  N   UNL     1       7.807   4.520  17.309  0.00  0.00    +0.000 NA
ENDBRANCH  16  19
BRANCH  18  21
ATOM     21  O   UNL     1       2.841   4.924  20.270  0.00  0.00    +0.000 OA
BRANCH  21  22
ATOM     22  C   UNL     1       2.642   3.499  20.175  0.00  0.00    +0.000 C 
BRANCH  22  23
ATOM     23  C   UNL     1       2.344   2.828  21.517  0.00  0.00    +0.000 C 
ATOM     24  F   UNL     1       1.033   3.017  21.843  0.00  0.00    +0.000 F 
ENDBRANCH  22  23
BRANCH  22  25
ATOM     25  C   UNL     1       1.439   3.261  19.255  0.00  0.00    +0.000 C 
ATOM     26  F   UNL     1       1.186   1.923  19.179  0.00  0.00    +0.000 F 
ENDBRANCH  22  25
ENDBRANCH  21  22
ENDBRANCH  18  21
ENDBRANCH  10  13
BRANCH   3  27
ATOM     27  C   UNL     1      -1.009  10.990  22.586  0.00  0.00    +0.000 C 
ATOM     28  O   UNL     1      -0.875  10.421  23.660  0.00  0.00    +0.000 OA
ATOM     29  N   UNL     1      -2.021  11.915  22.422  0.00  0.00    +0.000 N 
ATOM     30  H   UNL     1      -2.074  12.424  21.552  0.00  0.00    +0.000 HD
BRANCH  29  31
ATOM     31  C   UNL     1      -2.929  12.252  23.503  0.00  0.00    +0.000 C 
BRANCH  31  32
ATOM     32  C   UNL     1      -2.813  13.720  23.895  0.00  0.00    +0.000 C 
BRANCH  32  33
ATOM     33  C   UNL     1      -1.375  14.219  23.710  0.00  0.00    +0.000 C 
BRANCH  33  34
ATOM     34  N   UNL     1      -0.936  15.174  24.742  0.00  0.00    +0.000 NA
ATOM     35  C   UNL     1      -0.531  16.462  24.178  0.00  0.00    +0.000 C 
ATOM     36  C   UNL     1      -2.012  15.380  25.717  0.00  0.00    +0.000 C 
ENDBRANCH  33  34
ENDBRANCH  32  33
ENDBRANCH  31  32
ENDBRANCH  29  31
ENDBRANCH   3  27
TORSDOF 11
ENDMDL
MODEL 4
REMARK VINA RESULT:      -7.2      0.917      1.189
REMARK  Name = 
REMARK  14 active torsions:
REMARK  status: ('A' for Active; 'I' for Inactive)
REMARK    1  A    between atoms: C_1  and  C_2
REMARK    2  A    between atoms: C_3  and  C_4
REMARK    3  A    between atoms: N_6  and  C_7
REMARK    4  A    between atoms: C_7  and  C_8
REMARK    5  A    between atoms: C_8  and  C_9
REMARK    6  A    between atoms: C_9  and  N_10
REMARK    7  A    between atoms: N_10  and  C_11
REMARK    8  A    between atoms: N_10  and  C_12
REMARK    9  A    between atoms: N_19  and  C_20
REMARK   10  A    between atoms: C_23  and  C_24
REMARK   11  A    between atoms: C_27  and  O_28
REMARK   12  A    between atoms: O_28  and  C_29
REMARK   13  A    between atoms: C_29  and  C_30
REMARK   14  A    between atoms: C_29  and  C_32
REMARK                            x       y       z     vdW  Elec       q    Type
REMARK                         _______ _______ _______ _____ _____    ______ ____
ROOT
ATOM      1  C   UNL     1      -0.409   8.795  21.499  0.00  0.00    +0.000 C 
ATOM      2  C   UNL     1      -0.016  10.099  20.867  0.00  0.00    +0.000 A 
ATOM      3  C   UNL     1      -0.430  11.361  21.310  0.00  0.00    +0.000 A 
ATOM      4  S   UNL     1       0.313  12.611  20.416  0.00  0.00    +0.000 S 
ATOM      5  C   UNL     1       1.128  11.523  19.410  0.00  0.00    +0.000 A 
ATOM      6  N   UNL     1       1.942  12.011  18.461  0.00  0.00    +0.000 NA
ATOM      7  C   UNL     1       2.482  11.060  17.714  0.00  0.00    +0.000 A 
ATOM      8  N   UNL     1       2.279   9.748  17.831  0.00  0.00    +0.000 NA
ATOM      9  C   UNL     1       1.511   9.258  18.844  0.00  0.00    +0.000 A 
ATOM     10  N   UNL     1       1.474   7.849  18.971  0.00  0.00    +0.000 N 
ATOM     11  C   UNL     1       0.860  10.192  19.694  0.00  0.00    +0.000 A 
ATOM     12  H   UNL     1       1.027   7.550  19.829  0.00  0.00    +0.000 HD
ENDROOT
BRANCH  10  13
ATOM     13  C   UNL     1       2.629   7.043  18.743  0.00  0.00    +0.000 A 
ATOM     14  C   UNL     1       3.455   7.346  17.637  0.00  0.00    +0.000 A 
ATOM     15  C   UNL     1       4.646   6.671  17.393  0.00  0.00    +0.000 A 
ATOM     16  C   UNL     1       5.080   5.705  18.293  0.00  0.00    +0.000 A 
ATOM     17  C   UNL     1       4.294   5.400  19.410  0.00  0.00    +0.000 A 
ATOM     18  C   UNL     1       3.057   6.037  19.628  0.00  0.00    +0.000 A 
BRANCH  16  19
ATOM     19  C   UNL     1       6.328   5.041  18.065  0.00  0.00    +0.000 C 
ATOM     20  N   UNL     1       7.324   4.473  17.887  0.00  0.00    +0.000 NA
ENDBRANCH  16  19
BRANCH  18  21
ATOM     21  O   UNL     1       2.405   5.562  20.734  0.00  0.00    +0.000 OA
BRANCH  21  22
ATOM     22  C   UNL     1       1.494   4.452  20.611  0.00  0.00    +0.000 C 
BRANCH  22  23
ATOM     23  C   UNL     1       1.378   3.904  19.188  0.00  0.00    +0.000 C 
ATOM     24  F   UNL     1       2.092   2.746  19.083  0.00  0.00    +0.000 F 
ENDBRANCH  22  23
BRANCH  22  25
ATOM     25  C   UNL     1       2.018   3.323  21.507  0.00  0.00    +0.000 C 
ATOM     26  F   UNL     1       0.970   2.562  21.936  0.00  0.00    +0.000 F 
ENDBRANCH  22  25
ENDBRANCH  21  22
ENDBRANCH  18  21
ENDBRANCH  10  13
BRANCH   3  27
ATOM     27  C   UNL     1      -1.360  11.699  22.383  0.00  0.00    +0.000 C 
ATOM     28  O   UNL     1      -1.103  11.549  23.569  0.00  0.00    +0.000 OA
ATOM     29  N   UNL     1      -2.591  12.198  22.006  0.00  0.00    +0.000 N 
ATOM     30  H   UNL     1      -2.759  12.379  21.027  0.00  0.00    +0.000 HD
BRANCH  29  31
ATOM     31  C   UNL     1      -3.592  12.577  22.985  0.00  0.00    +0.000 C 
BRANCH  31  32
ATOM     32  C   UNL     1      -4.203  13.936  22.667  0.00  0.00    +0.000 C 
BRANCH  32  33
ATOM     33  C   UNL     1      -5.470  13.775  21.819  0.00  0.00    +0.000 C 
BRANCH  33  34
ATOM     34  N   UNL     1      -5.970  12.391  21.749  0.00  0.00    +0.000 NA
ATOM     35  C   UNL     1      -7.283  12.236  22.377  0.00  0.00    +0.000 C 
ATOM     36  C   UNL     1      -6.041  11.959  20.349  0.00  0.00    +0.000 C 
ENDBRANCH  33  34
ENDBRANCH  32  33
ENDBRANCH  31  32
ENDBRANCH  29  31
ENDBRANCH   3  27
TORSDOF 11
ENDMDL
MODEL 5
REMARK VINA RESULT:      -7.2      1.378      2.147
REMARK  Name = 
REMARK  14 active torsions:
REMARK  status: ('A' for Active; 'I' for Inactive)
REMARK    1  A    between atoms: C_1  and  C_2
REMARK    2  A    between atoms: C_3  and  C_4
REMARK    3  A    between atoms: N_6  and  C_7
REMARK    4  A    between atoms: C_7  and  C_8
REMARK    5  A    between atoms: C_8  and  C_9
REMARK    6  A    between atoms: C_9  and  N_10
REMARK    7  A    between atoms: N_10  and  C_11
REMARK    8  A    between atoms: N_10  and  C_12
REMARK    9  A    between atoms: N_19  and  C_20
REMARK   10  A    between atoms: C_23  and  C_24
REMARK   11  A    between atoms: C_27  and  O_28
REMARK   12  A    between atoms: O_28  and  C_29
REMARK   13  A    between atoms: C_29  and  C_30
REMARK   14  A    between atoms: C_29  and  C_32
REMARK                            x       y       z     vdW  Elec       q    Type
REMARK                         _______ _______ _______ _____ _____    ______ ____
ROOT
ATOM      1  C   UNL     1       0.085   8.166  21.579  0.00  0.00    +0.000 C 
ATOM      2  C   UNL     1       0.324   9.505  20.943  0.00  0.00    +0.000 A 
ATOM      3  C   UNL     1      -0.144  10.725  21.446  0.00  0.00    +0.000 A 
ATOM      4  S   UNL     1       0.423  12.041  20.518  0.00  0.00    +0.000 S 
ATOM      5  C   UNL     1       1.228  11.033  19.425  0.00  0.00    +0.000 A 
ATOM      6  N   UNL     1       1.919  11.595  18.420  0.00  0.00    +0.000 NA
ATOM      7  C   UNL     1       2.463  10.699  17.611  0.00  0.00    +0.000 A 
ATOM      8  N   UNL     1       2.370   9.373  17.718  0.00  0.00    +0.000 NA
ATOM      9  C   UNL     1       1.731   8.812  18.782  0.00  0.00    +0.000 A 
ATOM     10  N   UNL     1       1.811   7.403  18.883  0.00  0.00    +0.000 N 
ATOM     11  C   UNL     1       1.086   9.681  19.703  0.00  0.00    +0.000 A 
ATOM     12  H   UNL     1       1.462   7.059  19.770  0.00  0.00    +0.000 HD
ENDROOT
BRANCH  10  13
ATOM     13  C   UNL     1       2.999   6.691  18.542  0.00  0.00    +0.000 A 
ATOM     14  C   UNL     1       3.821   7.204  17.514  0.00  0.00    +0.000 A 
ATOM     15  C   UNL     1       5.041   6.626  17.180  0.00  0.00    +0.000 A 
ATOM     16  C   UNL     1       5.505   5.541  17.914  0.00  0.00    +0.000 A 
ATOM     17  C   UNL     1       4.723   5.026  18.953  0.00  0.00    +0.000 A 
ATOM     18  C   UNL     1       3.460   5.569  19.254  0.00  0.00    +0.000 A 
BRANCH  16  19
ATOM     19  C   UNL     1       6.782   4.973  17.598  0.00  0.00    +0.000 C 
ATOM     20  N   UNL     1       7.830   4.546  17.341  0.00  0.00    +0.000 NA
ENDBRANCH  16  19
BRANCH  18  21
ATOM     21  O   UNL     1       2.819   4.892  20.257  0.00  0.00    +0.000 OA
BRANCH  21  22
ATOM     22  C   UNL     1       1.563   4.235  19.994  0.00  0.00    +0.000 C 
BRANCH  22  23
ATOM     23  C   UNL     1       1.546   3.439  18.687  0.00  0.00    +0.000 C 
ATOM     24  F   UNL     1       0.957   4.181  17.706  0.00  0.00    +0.000 F 
ENDBRANCH  22  23
BRANCH  22  25
ATOM     25  C   UNL     1       1.307   3.253  21.143  0.00  0.00    +0.000 C 
ATOM     26  F   UNL     1       2.263   3.419  22.102  0.00  0.00    +0.000 F 
ENDBRANCH  22  25
ENDBRANCH  21  22
ENDBRANCH  18  21
ENDBRANCH  10  13
BRANCH   3  27
ATOM     27  C   UNL     1      -1.002  10.976  22.599  0.00  0.00    +0.000 C 
ATOM     28  O   UNL     1      -0.832  10.452  23.691  0.00  0.00    +0.000 OA
ATOM     29  N   UNL     1      -2.059  11.844  22.413  0.00  0.00    +0.000 N 
ATOM     30  H   UNL     1      -2.143  12.319  21.526  0.00  0.00    +0.000 HD
BRANCH  29  31
ATOM     31  C   UNL     1      -2.973  12.176  23.491  0.00  0.00    +0.000 C 
BRANCH  31  32
ATOM     32  C   UNL     1      -3.161  13.682  23.623  0.00  0.00    +0.000 C 
BRANCH  32  33
ATOM     33  C   UNL     1      -3.000  14.370  22.263  0.00  0.00    +0.000 C 
BRANCH  33  34
ATOM     34  N   UNL     1      -1.616  14.775  21.959  0.00  0.00    +0.000 NA
ATOM     35  C   UNL     1      -1.520  15.558  20.725  0.00  0.00    +0.000 C 
ATOM     36  C   UNL     1      -1.069  15.550  23.077  0.00  0.00    +0.000 C 
ENDBRANCH  33  34
ENDBRANCH  32  33
ENDBRANCH  31  32
ENDBRANCH  29  31
ENDBRANCH   3  27
TORSDOF 11
ENDMDL
MODEL 6
REMARK VINA RESULT:      -7.2      0.939      1.159
REMARK  Name = 
REMARK  14 active torsions:
REMARK  status: ('A' for Active; 'I' for Inactive)
REMARK    1  A    between atoms: C_1  and  C_2
REMARK    2  A    between atoms: C_3  and  C_4
REMARK    3  A    between atoms: N_6  and  C_7
REMARK    4  A    between atoms: C_7  and  C_8
REMARK    5  A    between atoms: C_8  and  C_9
REMARK    6  A    between atoms: C_9  and  N_10
REMARK    7  A    between atoms: N_10  and  C_11
REMARK    8  A    between atoms: N_10  and  C_12
REMARK    9  A    between atoms: N_19  and  C_20
REMARK   10  A    between atoms: C_23  and  C_24
REMARK   11  A    between atoms: C_27  and  O_28
REMARK   12  A    between atoms: O_28  and  C_29
REMARK   13  A    between atoms: C_29  and  C_30
REMARK   14  A    between atoms: C_29  and  C_32
REMARK                            x       y       z     vdW  Elec       q    Type
REMARK                         _______ _______ _______ _____ _____    ______ ____
ROOT
ATOM      1  C   UNL     1      -0.324   8.707  21.456  0.00  0.00    +0.000 C 
ATOM      2  C   UNL     1       0.054  10.021  20.836  0.00  0.00    +0.000 A 
ATOM      3  C   UNL     1      -0.370  11.274  21.294  0.00  0.00    +0.000 A 
ATOM      4  S   UNL     1       0.358  12.540  20.410  0.00  0.00    +0.000 S 
ATOM      5  C   UNL     1       1.178  11.471  19.389  0.00  0.00    +0.000 A 
ATOM      6  N   UNL     1       1.983  11.976  18.442  0.00  0.00    +0.000 NA
ATOM      7  C   UNL     1       2.530  11.038  17.682  0.00  0.00    +0.000 A 
ATOM      8  N   UNL     1       2.340   9.722  17.787  0.00  0.00    +0.000 NA
ATOM      9  C   UNL     1       1.581   9.215  18.798  0.00  0.00    +0.000 A 
ATOM     10  N   UNL     1       1.558   7.805  18.911  0.00  0.00    +0.000 N 
ATOM     11  C   UNL     1       0.924  10.134  19.661  0.00  0.00    +0.000 A 
ATOM     12  H   UNL     1       1.116   7.493  19.768  0.00  0.00    +0.000 HD
ENDROOT
BRANCH  10  13
ATOM     13  C   UNL     1       2.719   7.012  18.670  0.00  0.00    +0.000 A 
ATOM     14  C   UNL     1       3.605   7.409  17.643  0.00  0.00    +0.000 A 
ATOM     15  C   UNL     1       4.804   6.748  17.401  0.00  0.00    +0.000 A 
ATOM     16  C   UNL     1       5.184   5.697  18.228  0.00  0.00    +0.000 A 
ATOM     17  C   UNL     1       4.337   5.298  19.268  0.00  0.00    +0.000 A 
ATOM     18  C   UNL     1       3.093   5.924  19.478  0.00  0.00    +0.000 A 
BRANCH  16  19
ATOM     19  C   UNL     1       6.440   5.046  18.006  0.00  0.00    +0.000 C 
ATOM     20  N   UNL     1       7.450   4.517  17.791  0.00  0.00    +0.000 NA
ENDBRANCH  16  19
BRANCH  18  21
ATOM     21  O   UNL     1       2.380   5.353  20.499  0.00  0.00    +0.000 OA
BRANCH  21  22
ATOM     22  C   UNL     1       2.143   3.932  20.504  0.00  0.00    +0.000 C 
BRANCH  22  23
ATOM     23  C   UNL     1       2.189   3.304  21.898  0.00  0.00    +0.000 C 
ATOM     24  F   UNL     1       1.585   2.081  21.870  0.00  0.00    +0.000 F 
ENDBRANCH  22  23
BRANCH  22  25
ATOM     25  C   UNL     1       0.741   3.696  19.930  0.00  0.00    +0.000 C 
ATOM     26  F   UNL     1       0.824   2.850  18.864  0.00  0.00    +0.000 F 
ENDBRANCH  22  25
ENDBRANCH  21  22
ENDBRANCH  18  21
ENDBRANCH  10  13
BRANCH   3  27
ATOM     27  C   UNL     1      -1.298  11.593  22.373  0.00  0.00    +0.000 C 
ATOM     28  O   UNL     1      -1.140  11.224  23.528  0.00  0.00    +0.000 OA
ATOM     29  N   UNL     1      -2.411  12.339  22.039  0.00  0.00    +0.000 N 
ATOM     30  H   UNL     1      -2.490  12.692  21.096  0.00  0.00    +0.000 HD
BRANCH  29  31
ATOM     31  C   UNL     1      -3.398  12.723  23.031  0.00  0.00    +0.000 C 
BRANCH  31  32
ATOM     32  C   UNL     1      -4.799  12.787  22.433  0.00  0.00    +0.000 C 
BRANCH  32  33
ATOM     33  C   UNL     1      -4.741  12.669  20.906  0.00  0.00    +0.000 C 
BRANCH  33  34
ATOM     34  N   UNL     1      -6.062  12.704  20.254  0.00  0.00    +0.000 NA
ATOM     35  C   UNL     1      -5.972  12.977  18.819  0.00  0.00    +0.000 C 
ATOM     36  C   UNL     1      -6.756  11.430  20.470  0.00  0.00    +0.000 C 
ENDBRANCH  33  34
ENDBRANCH  32  33
ENDBRANCH  31  32
ENDBRANCH  29  31
ENDBRANCH   3  27
TORSDOF 11
ENDMDL
MODEL 7
REMARK VINA RESULT:      -7.2      3.494      9.557
REMARK  Name = 
REMARK  14 active torsions:
REMARK  status: ('A' for Active; 'I' for Inactive)
REMARK    1  A    between atoms: C_1  and  C_2
REMARK    2  A    between atoms: C_3  and  C_4
REMARK    3  A    between atoms: N_6  and  C_7
REMARK    4  A    between atoms: C_7  and  C_8
REMARK    5  A    between atoms: C_8  and  C_9
REMARK    6  A    between atoms: C_9  and  N_10
REMARK    7  A    between atoms: N_10  and  C_11
REMARK    8  A    between atoms: N_10  and  C_12
REMARK    9  A    between atoms: N_19  and  C_20
REMARK   10  A    between atoms: C_23  and  C_24
REMARK   11  A    between atoms: C_27  and  O_28
REMARK   12  A    between atoms: O_28  and  C_29
REMARK   13  A    between atoms: C_29  and  C_30
REMARK   14  A    between atoms: C_29  and  C_32
REMARK                            x       y       z     vdW  Elec       q    Type
REMARK                         _______ _______ _______ _____ _____    ______ ____
ROOT
ATOM      1  C   UNL     1       2.774   8.353  17.470  0.00  0.00    +0.000 C 
ATOM      2  C   UNL     1       2.273   7.832  18.786  0.00  0.00    +0.000 A 
ATOM      3  C   UNL     1       2.603   6.586  19.332  0.00  0.00    +0.000 A 
ATOM      4  S   UNL     1       1.939   6.393  20.893  0.00  0.00    +0.000 S 
ATOM      5  C   UNL     1       1.169   7.898  20.845  0.00  0.00    +0.000 A 
ATOM      6  N   UNL     1       0.465   8.294  21.916  0.00  0.00    +0.000 NA
ATOM      7  C   UNL     1      -0.125   9.466  21.734  0.00  0.00    +0.000 A 
ATOM      8  N   UNL     1      -0.072  10.219  20.634  0.00  0.00    +0.000 NA
ATOM      9  C   UNL     1       0.706   9.843  19.581  0.00  0.00    +0.000 A 
ATOM     10  N   UNL     1       0.810  10.776  18.521  0.00  0.00    +0.000 N 
ATOM     11  C   UNL     1       1.366   8.587  19.657  0.00  0.00    +0.000 A 
ATOM     12  H   UNL     1       1.522  10.518  17.849  0.00  0.00    +0.000 HD
ENDROOT
BRANCH  10  13
ATOM     13  C   UNL     1       0.881  12.181  18.760  0.00  0.00    +0.000 A 
ATOM     14  C   UNL     1       2.121  12.735  19.151  0.00  0.00    +0.000 A 
ATOM     15  C   UNL     1       2.303  14.104  19.316  0.00  0.00    +0.000 A 
ATOM     16  C   UNL     1       1.254  14.971  19.032  0.00  0.00    +0.000 A 
ATOM     17  C   UNL     1       0.022  14.451  18.621  0.00  0.00    +0.000 A 
ATOM     18  C   UNL     1      -0.185  13.063  18.512  0.00  0.00    +0.000 A 
BRANCH  16  19
ATOM     19  C   UNL     1       1.455  16.383  19.160  0.00  0.00    +0.000 C 
ATOM     20  N   UNL     1       1.634  17.522  19.294  0.00  0.00    +0.000 NA
ENDBRANCH  16  19
BRANCH  18  21
ATOM     21  O   UNL     1      -1.470  12.746  18.159  0.00  0.00    +0.000 OA
BRANCH  21  22
ATOM     22  C   UNL     1      -2.264  11.902  19.016  0.00  0.00    +0.000 C 
BRANCH  22  23
ATOM     23  C   UNL     1      -3.284  12.667  19.862  0.00  0.00    +0.000 C 
ATOM     24  F   UNL     1      -4.546  12.360  19.447  0.00  0.00    +0.000 F 
ENDBRANCH  22  23
BRANCH  22  25
ATOM     25  C   UNL     1      -3.038  10.930  18.116  0.00  0.00    +0.000 C 
ATOM     26  F   UNL     1      -2.323   9.776  17.979  0.00  0.00    +0.000 F 
ENDBRANCH  22  25
ENDBRANCH  21  22
ENDBRANCH  18  21
ENDBRANCH  10  13
BRANCH   3  27
ATOM     27  C   UNL     1       3.402   5.511  18.753  0.00  0.00    +0.000 C 
ATOM     28  O   UNL     1       3.006   4.791  17.847  0.00  0.00    +0.000 OA
ATOM     29  N   UNL     1       4.660   5.313  19.285  0.00  0.00    +0.000 N 
ATOM     30  H   UNL     1       4.996   5.960  19.985  0.00  0.00    +0.000 HD
BRANCH  29  31
ATOM     31  C   UNL     1       5.547   4.280  18.784  0.00  0.00    +0.000 C 
BRANCH  31  32
ATOM     32  C   UNL     1       6.905   4.849  18.390  0.00  0.00    +0.000 C 
BRANCH  32  33
ATOM     33  C   UNL     1       7.056   4.884  16.864  0.00  0.00    +0.000 C 
BRANCH  33  34
ATOM     34  N   UNL     1       6.788   6.205  16.268  0.00  0.00    +0.000 NA
ATOM     35  C   UNL     1       5.421   6.324  15.759  0.00  0.00    +0.000 C 
ATOM     36  C   UNL     1       7.037   7.256  17.259  0.00  0.00    +0.000 C 
ENDBRANCH  33  34
ENDBRANCH  32  33
ENDBRANCH  31  32
ENDBRANCH  29  31
ENDBRANCH   3  27
TORSDOF 11
ENDMDL
MODEL 8
REMARK VINA RESULT:      -7.1      0.880      1.374
REMARK  Name = 
REMARK  14 active torsions:
REMARK  status: ('A' for Active; 'I' for Inactive)
REMARK    1  A    between atoms: C_1  and  C_2
REMARK    2  A    between atoms: C_3  and  C_4
REMARK    3  A    between atoms: N_6  and  C_7
REMARK    4  A    between atoms: C_7  and  C_8
REMARK    5  A    between atoms: C_8  and  C_9
REMARK    6  A    between atoms: C_9  and  N_10
REMARK    7  A    between atoms: N_10  and  C_11
REMARK    8  A    between atoms: N_10  and  C_12
REMARK    9  A    between atoms: N_19  and  C_20
REMARK   10  A    between atoms: C_23  and  C_24
REMARK   11  A    between atoms: C_27  and  O_28
REMARK   12  A    between atoms: O_28  and  C_29
REMARK   13  A    between atoms: C_29  and  C_30
REMARK   14  A    between atoms: C_29  and  C_32
REMARK                            x       y       z     vdW  Elec       q    Type
REMARK                         _______ _______ _______ _____ _____    ______ ____
ROOT
ATOM      1  C   UNL     1      -0.065   8.366  21.507  0.00  0.00    +0.000 C 
ATOM      2  C   UNL     1       0.216   9.698  20.875  0.00  0.00    +0.000 A 
ATOM      3  C   UNL     1      -0.251  10.927  21.355  0.00  0.00    +0.000 A 
ATOM      4  S   UNL     1       0.368  12.230  20.442  0.00  0.00    +0.000 S 
ATOM      5  C   UNL     1       1.196  11.205  19.382  0.00  0.00    +0.000 A 
ATOM      6  N   UNL     1       1.930  11.752  18.401  0.00  0.00    +0.000 NA
ATOM      7  C   UNL     1       2.489  10.844  17.615  0.00  0.00    +0.000 A 
ATOM      8  N   UNL     1       2.373   9.520  17.724  0.00  0.00    +0.000 NA
ATOM      9  C   UNL     1       1.688   8.974  18.767  0.00  0.00    +0.000 A 
ATOM     10  N   UNL     1       1.743   7.564  18.877  0.00  0.00    +0.000 N 
ATOM     11  C   UNL     1       1.024   9.857  19.662  0.00  0.00    +0.000 A 
ATOM     12  H   UNL     1       1.358   7.229  19.753  0.00  0.00    +0.000 HD
ENDROOT
BRANCH  10  13
ATOM     13  C   UNL     1       2.932   6.833  18.581  0.00  0.00    +0.000 A 
ATOM     14  C   UNL     1       3.725   7.250  17.489  0.00  0.00    +0.000 A 
ATOM     15  C   UNL     1       4.944   6.652  17.186  0.00  0.00    +0.000 A 
ATOM     16  C   UNL     1       5.437   5.650  18.013  0.00  0.00    +0.000 A 
ATOM     17  C   UNL     1       4.684   5.233  19.116  0.00  0.00    +0.000 A 
ATOM     18  C   UNL     1       3.421   5.792  19.391  0.00  0.00    +0.000 A 
BRANCH  16  19
ATOM     19  C   UNL     1       6.713   5.066  17.726  0.00  0.00    +0.000 C 
ATOM     20  N   UNL     1       7.735   4.562  17.507  0.00  0.00    +0.000 NA
ENDBRANCH  16  19
BRANCH  18  21
ATOM     21  O   UNL     1       2.810   5.212  20.470  0.00  0.00    +0.000 OA
BRANCH  21  22
ATOM     22  C   UNL     1       1.706   4.307  20.272  0.00  0.00    +0.000 C 
BRANCH  22  23
ATOM     23  C   UNL     1       1.805   3.486  18.985  0.00  0.00    +0.000 C 
ATOM     24  F   UNL     1       1.064   4.077  18.005  0.00  0.00    +0.000 F 
ENDBRANCH  22  23
BRANCH  22  25
ATOM     25  C   UNL     1       1.694   3.328  21.452  0.00  0.00    +0.000 C 
ATOM     26  F   UNL     1       2.812   2.548  21.403  0.00  0.00    +0.000 F 
ENDBRANCH  22  25
ENDBRANCH  21  22
ENDBRANCH  18  21
ENDBRANCH  10  13
BRANCH   3  27
ATOM     27  C   UNL     1      -1.145  11.196  22.476  0.00  0.00    +0.000 C 
ATOM     28  O   UNL     1      -0.977  10.736  23.597  0.00  0.00    +0.000 OA
ATOM     29  N   UNL     1      -2.235  12.005  22.225  0.00  0.00    +0.000 N 
ATOM     30  H   UNL     1      -2.320  12.431  21.313  0.00  0.00    +0.000 HD
BRANCH  29  31
ATOM     31  C   UNL     1      -3.187  12.349  23.265  0.00  0.00    +0.000 C 
BRANCH  31  32
ATOM     32  C   UNL     1      -3.892  13.667  22.968  0.00  0.00    +0.000 C 
BRANCH  32  33
ATOM     33  C   UNL     1      -4.958  13.961  24.030  0.00  0.00    +0.000 C 
BRANCH  33  34
ATOM     34  N   UNL     1      -6.339  13.924  23.517  0.00  0.00    +0.000 NA
ATOM     35  C   UNL     1      -6.402  14.100  22.065  0.00  0.00    +0.000 C 
ATOM     36  C   UNL     1      -6.972  12.654  23.887  0.00  0.00    +0.000 C 
ENDBRANCH  33  34
ENDBRANCH  32  33
ENDBRANCH  31  32
ENDBRANCH  29  31
ENDBRANCH   3  27
TORSDOF 11
ENDMDL
MODEL 9
REMARK VINA RESULT:      -7.1      1.011      1.284
REMARK  Name = 
REMARK  14 active torsions:
REMARK  status: ('A' for Active; 'I' for Inactive)
REMARK    1  A    between atoms: C_1  and  C_2
REMARK    2  A    between atoms: C_3  and  C_4
REMARK    3  A    between atoms: N_6  and  C_7
REMARK    4  A    between atoms: C_7  and  C_8
REMARK    5  A    between atoms: C_8  and  C_9
REMARK    6  A    between atoms: C_9  and  N_10
REMARK    7  A    between atoms: N_10  and  C_11
REMARK    8  A    between atoms: N_10  and  C_12
REMARK    9  A    between atoms: N_19  and  C_20
REMARK   10  A    between atoms: C_23  and  C_24
REMARK   11  A    between atoms: C_27  and  O_28
REMARK   12  A    between atoms: O_28  and  C_29
REMARK   13  A    between atoms: C_29  and  C_30
REMARK   14  A    between atoms: C_29  and  C_32
REMARK                            x       y       z     vdW  Elec       q    Type
REMARK                         _______ _______ _______ _____ _____    ______ ____
ROOT
ATOM      1  C   UNL     1      -0.038   8.310  21.554  0.00  0.00    +0.000 C 
ATOM      2  C   UNL     1       0.224   9.658  20.946  0.00  0.00    +0.000 A 
ATOM      3  C   UNL     1      -0.234  10.874  21.467  0.00  0.00    +0.000 A 
ATOM      4  S   UNL     1       0.359  12.200  20.571  0.00  0.00    +0.000 S 
ATOM      5  C   UNL     1       1.162  11.203  19.466  0.00  0.00    +0.000 A 
ATOM      6  N   UNL     1       1.869  11.776  18.479  0.00  0.00    +0.000 NA
ATOM      7  C   UNL     1       2.410  10.888  17.658  0.00  0.00    +0.000 A 
ATOM      8  N   UNL     1       2.300   9.562  17.738  0.00  0.00    +0.000 NA
ATOM      9  C   UNL     1       1.643   8.989  18.785  0.00  0.00    +0.000 A 
ATOM     10  N   UNL     1       1.705   7.577  18.859  0.00  0.00    +0.000 N 
ATOM     11  C   UNL     1       1.001   9.848  19.717  0.00  0.00    +0.000 A 
ATOM     12  H   UNL     1       1.343   7.220  19.736  0.00  0.00    +0.000 HD
ENDROOT
BRANCH  10  13
ATOM     13  C   UNL     1       2.888   6.857  18.516  0.00  0.00    +0.000 A 
ATOM     14  C   UNL     1       3.718   7.372  17.496  0.00  0.00    +0.000 A 
ATOM     15  C   UNL     1       4.934   6.785  17.161  0.00  0.00    +0.000 A 
ATOM     16  C   UNL     1       5.385   5.689  17.887  0.00  0.00    +0.000 A 
ATOM     17  C   UNL     1       4.594   5.172  18.918  0.00  0.00    +0.000 A 
ATOM     18  C   UNL     1       3.335   5.725  19.220  0.00  0.00    +0.000 A 
BRANCH  16  19
ATOM     19  C   UNL     1       6.657   5.112  17.570  0.00  0.00    +0.000 C 
ATOM     20  N   UNL     1       7.694   4.671  17.291  0.00  0.00    +0.000 NA
ENDBRANCH  16  19
BRANCH  18  21
ATOM     21  O   UNL     1       2.684   5.044  20.214  0.00  0.00    +0.000 OA
BRANCH  21  22
ATOM     22  C   UNL     1       2.316   3.664  20.020  0.00  0.00    +0.000 C 
BRANCH  22  23
ATOM     23  C   UNL     1       1.760   2.991  21.276  0.00  0.00    +0.000 C 
ATOM     24  F   UNL     1       2.789   2.519  22.037  0.00  0.00    +0.000 F 
ENDBRANCH  22  23
BRANCH  22  25
ATOM     25  C   UNL     1       1.222   3.625  18.946  0.00  0.00    +0.000 C 
ATOM     26  F   UNL     1       0.373   2.588  19.202  0.00  0.00    +0.000 F 
ENDBRANCH  22  25
ENDBRANCH  21  22
ENDBRANCH  18  21
ENDBRANCH  10  13
BRANCH   3  27
ATOM     27  C   UNL     1      -1.100  11.114  22.617  0.00  0.00    +0.000 C 
ATOM     28  O   UNL     1      -1.022  10.481  23.661  0.00  0.00    +0.000 OA
ATOM     29  N   UNL     1      -2.054  12.102  22.484  0.00  0.00    +0.000 N 
ATOM     30  H   UNL     1      -2.058  12.659  21.642  0.00  0.00    +0.000 HD
BRANCH  29  31
ATOM     31  C   UNL     1      -2.964  12.435  23.564  0.00  0.00    +0.000 C 
BRANCH  31  32
ATOM     32  C   UNL     1      -4.352  12.785  23.041  0.00  0.00    +0.000 C 
BRANCH  32  33
ATOM     33  C   UNL     1      -4.395  14.237  22.553  0.00  0.00    +0.000 C 
BRANCH  33  34
ATOM     34  N   UNL     1      -4.031  14.401  21.134  0.00  0.00    +0.000 NA
ATOM     35  C   UNL     1      -4.883  13.613  20.242  0.00  0.00    +0.000 C 
ATOM     36  C   UNL     1      -4.108  15.818  20.763  0.00  0.00    +0.000 C 
ENDBRANCH  33  34
ENDBRANCH  32  33
ENDBRANCH  31  32
ENDBRANCH  29  31
ENDBRANCH   3  27
TORSDOF 11
ENDMDL
