MODEL 1
REMARK VINA RESULT:      -6.1      0.000      0.000
REMARK  Name = 
REMARK  2 active torsions:
REMARK  status: ('A' for Active; 'I' for Inactive)
REMARK    1  A    between atoms: N_1  and  C_2
REMARK    2  A    between atoms: C_7  and  O_8
REMARK                            x       y       z     vdW  Elec       q    Type
REMARK                         _______ _______ _______ _____ _____    ______ ____
ROOT
ATOM      1  C   UNL     1       2.548   6.326  19.439  0.00  0.00    +0.000 A 
ATOM      2  C   UNL     1       3.368   6.742  18.380  0.00  0.00    +0.000 A 
ATOM      3  C   UNL     1       3.793   5.845  17.409  0.00  0.00    +0.000 A 
ATOM      4  C   UNL     1       3.423   4.507  17.476  0.00  0.00    +0.000 A 
ATOM      5  C   UNL     1       2.602   4.035  18.520  0.00  0.00    +0.000 A 
ATOM      6  C   UNL     1       2.216   2.669  18.608  0.00  0.00    +0.000 A 
ATOM      7  C   UNL     1       1.386   2.247  19.648  0.00  0.00    +0.000 A 
ATOM      8  C   UNL     1       0.932   3.146  20.604  0.00  0.00    +0.000 A 
ATOM      9  C   UNL     1       1.307   4.486  20.547  0.00  0.00    +0.000 A 
ATOM     10  C   UNL     1       2.146   4.960  19.514  0.00  0.00    +0.000 A 
ENDROOT
BRANCH   1  11
ATOM     11  N   UNL     1       2.163   7.302  20.403  0.00  0.00    +0.000 N 
ATOM     12  H   UNL     1       1.626   7.021  21.236  0.00  0.00    +0.000 HD
ATOM     13  H   UNL     1       2.369   8.303  20.310  0.00  0.00    +0.000 HD
ENDBRANCH   1  11
BRANCH   6  14
ATOM     14  O   UNL     1       2.623   1.723  17.729  0.00  0.00    +0.000 OA
ATOM     15  H   UNL     1       3.424   1.192  17.809  0.00  0.00    +0.000 HD
ENDBRANCH   6  14
TORSDOF 2
ENDMDL
MODEL 2
REMARK VINA RESULT:      -6.0      2.536      4.474
REMARK  Name = 
REMARK  2 active torsions:
REMARK  status: ('A' for Active; 'I' for Inactive)
REMARK    1  A    between atoms: N_1  and  C_2
REMARK    2  A    between atoms: C_7  and  O_8
REMARK                            x       y       z     vdW  Elec       q    Type
REMARK                         _______ _______ _______ _____ _____    ______ ____
ROOT
ATOM      1  C   UNL     1       2.300   2.732  18.740  0.00  0.00    +0.000 A 
ATOM      2  C   UNL     1       1.491   2.348  19.818  0.00  0.00    +0.000 A 
ATOM      3  C   UNL     1       1.043   3.281  20.744  0.00  0.00    +0.000 A 
ATOM      4  C   UNL     1       1.401   4.619  20.626  0.00  0.00    +0.000 A 
ATOM      5  C   UNL     1       2.215   5.059  19.561  0.00  0.00    +0.000 A 
ATOM      6  C   UNL     1       2.595   6.422  19.426  0.00  0.00    +0.000 A 
ATOM      7  C   UNL     1       3.386   6.818  18.347  0.00  0.00    +0.000 A 
ATOM      8  C   UNL     1       3.812   5.895  17.401  0.00  0.00    +0.000 A 
ATOM      9  C   UNL     1       3.463   4.552  17.519  0.00  0.00    +0.000 A 
ATOM     10  C   UNL     1       2.664   4.103  18.594  0.00  0.00    +0.000 A 
ENDROOT
BRANCH   1  11
ATOM     11  N   UNL     1       2.731   1.715  17.839  0.00  0.00    +0.000 N 
ATOM     12  H   UNL     1       2.151   0.877  17.691  0.00  0.00    +0.000 HD
ATOM     13  H   UNL     1       3.618   1.751  17.327  0.00  0.00    +0.000 HD
ENDBRANCH   1  11
BRANCH   6  14
ATOM     14  O   UNL     1       2.238   7.386  20.308  0.00  0.00    +0.000 OA
ATOM     15  H   UNL     1       1.645   8.123  20.123  0.00  0.00    +0.000 HD
ENDBRANCH   6  14
TORSDOF 2
ENDMDL
MODEL 3
REMARK VINA RESULT:      -5.8      2.689      4.545
REMARK  Name = 
REMARK  2 active torsions:
REMARK  status: ('A' for Active; 'I' for Inactive)
REMARK    1  A    between atoms: N_1  and  C_2
REMARK    2  A    between atoms: C_7  and  O_8
REMARK                            x       y       z     vdW  Elec       q    Type
REMARK                         _______ _______ _______ _____ _____    ______ ____
ROOT
ATOM      1  C   UNL     1       3.070   2.116  18.514  0.00  0.00    +0.000 A 
ATOM      2  C   UNL     1       1.907   1.958  19.279  0.00  0.00    +0.000 A 
ATOM      3  C   UNL     1       1.117   3.050  19.613  0.00  0.00    +0.000 A 
ATOM      4  C   UNL     1       1.474   4.330  19.205  0.00  0.00    +0.000 A 
ATOM      5  C   UNL     1       2.636   4.545  18.435  0.00  0.00    +0.000 A 
ATOM      6  C   UNL     1       3.020   5.847  18.011  0.00  0.00    +0.000 A 
ATOM      7  C   UNL     1       4.168   6.013  17.234  0.00  0.00    +0.000 A 
ATOM      8  C   UNL     1       4.945   4.921  16.870  0.00  0.00    +0.000 A 
ATOM      9  C   UNL     1       4.596   3.638  17.285  0.00  0.00    +0.000 A 
ATOM     10  C   UNL     1       3.444   3.419  18.072  0.00  0.00    +0.000 A 
ENDROOT
BRANCH   1  11
ATOM     11  N   UNL     1       3.835   0.949  18.221  0.00  0.00    +0.000 N 
ATOM     12  H   UNL     1       3.846   0.159  18.882  0.00  0.00    +0.000 HD
ATOM     13  H   UNL     1       4.414   0.848  17.381  0.00  0.00    +0.000 HD
ENDBRANCH   1  11
BRANCH   6  14
ATOM     14  O   UNL     1       2.331   6.968  18.331  0.00  0.00    +0.000 OA
ATOM     15  H   UNL     1       1.376   7.077  18.262  0.00  0.00    +0.000 HD
ENDBRANCH   6  14
TORSDOF 2
ENDMDL
MODEL 4
REMARK VINA RESULT:      -5.7      2.763      4.487
REMARK  Name = 
REMARK  2 active torsions:
REMARK  status: ('A' for Active; 'I' for Inactive)
REMARK    1  A    between atoms: N_1  and  C_2
REMARK    2  A    between atoms: C_7  and  O_8
REMARK                            x       y       z     vdW  Elec       q    Type
REMARK                         _______ _______ _______ _____ _____    ______ ____
ROOT
ATOM      1  C   UNL     1       3.869   2.918  19.980  0.00  0.00    +0.000 A 
ATOM      2  C   UNL     1       2.979   2.732  21.046  0.00  0.00    +0.000 A 
ATOM      3  C   UNL     1       2.083   3.728  21.413  0.00  0.00    +0.000 A 
ATOM      4  C   UNL     1       2.061   4.941  20.734  0.00  0.00    +0.000 A 
ATOM      5  C   UNL     1       2.937   5.181  19.654  0.00  0.00    +0.000 A 
ATOM      6  C   UNL     1       2.932   6.416  18.950  0.00  0.00    +0.000 A 
ATOM      7  C   UNL     1       3.803   6.606  17.876  0.00  0.00    +0.000 A 
ATOM      8  C   UNL     1       4.679   5.602  17.485  0.00  0.00    +0.000 A 
ATOM      9  C   UNL     1       4.711   4.389  18.168  0.00  0.00    +0.000 A 
ATOM     10  C   UNL     1       3.850   4.149  19.261  0.00  0.00    +0.000 A 
ENDROOT
BRANCH   1  11
ATOM     11  N   UNL     1       4.766   1.854  19.671  0.00  0.00    +0.000 N 
ATOM     12  H   UNL     1       5.759   2.055  19.483  0.00  0.00    +0.000 HD
ATOM     13  H   UNL     1       4.478   0.873  19.598  0.00  0.00    +0.000 HD
ENDBRANCH   1  11
BRANCH   6  14
ATOM     14  O   UNL     1       2.123   7.453  19.271  0.00  0.00    +0.000 OA
ATOM     15  H   UNL     1       1.759   8.093  18.649  0.00  0.00    +0.000 HD
ENDBRANCH   6  14
TORSDOF 2
ENDMDL
MODEL 5
REMARK VINA RESULT:      -5.6      1.051      3.107
REMARK  Name = 
REMARK  2 active torsions:
REMARK  status: ('A' for Active; 'I' for Inactive)
REMARK    1  A    between atoms: N_1  and  C_2
REMARK    2  A    between atoms: C_7  and  O_8
REMARK                            x       y       z     vdW  Elec       q    Type
REMARK                         _______ _______ _______ _____ _____    ______ ____
ROOT
ATOM      1  C   UNL     1       2.285   5.699  19.946  0.00  0.00    +0.000 A 
ATOM      2  C   UNL     1       1.544   4.919  20.843  0.00  0.00    +0.000 A 
ATOM      3  C   UNL     1       1.573   3.532  20.780  0.00  0.00    +0.000 A 
ATOM      4  C   UNL     1       2.333   2.887  19.811  0.00  0.00    +0.000 A 
ATOM      5  C   UNL     1       3.096   3.624  18.882  0.00  0.00    +0.000 A 
ATOM      6  C   UNL     1       3.876   2.982  17.881  0.00  0.00    +0.000 A 
ATOM      7  C   UNL     1       4.632   3.749  16.993  0.00  0.00    +0.000 A 
ATOM      8  C   UNL     1       4.631   5.135  17.071  0.00  0.00    +0.000 A 
ATOM      9  C   UNL     1       3.865   5.786  18.034  0.00  0.00    +0.000 A 
ATOM     10  C   UNL     1       3.083   5.054  18.955  0.00  0.00    +0.000 A 
ENDROOT
BRANCH   1  11
ATOM     11  N   UNL     1       2.194   7.116  20.065  0.00  0.00    +0.000 N 
ATOM     12  H   UNL     1       1.768   7.672  19.310  0.00  0.00    +0.000 HD
ATOM     13  H   UNL     1       2.557   7.641  20.868  0.00  0.00    +0.000 HD
ENDBRANCH   1  11
BRANCH   6  14
ATOM     14  O   UNL     1       3.925   1.638  17.723  0.00  0.00    +0.000 OA
ATOM     15  H   UNL     1       4.729   1.115  17.626  0.00  0.00    +0.000 HD
ENDBRANCH   6  14
TORSDOF 2
ENDMDL
MODEL 6
REMARK VINA RESULT:      -5.6      1.955      3.630
REMARK  Name = 
REMARK  2 active torsions:
REMARK  status: ('A' for Active; 'I' for Inactive)
REMARK    1  A    between atoms: N_1  and  C_2
REMARK    2  A    between atoms: C_7  and  O_8
REMARK                            x       y       z     vdW  Elec       q    Type
REMARK                         _______ _______ _______ _____ _____    ______ ____
ROOT
ATOM      1  C   UNL     1       1.696   3.439  19.390  0.00  0.00    +0.000 A 
ATOM      2  C   UNL     1       2.029   2.155  18.938  0.00  0.00    +0.000 A 
ATOM      3  C   UNL     1       3.010   1.966  17.974  0.00  0.00    +0.000 A 
ATOM      4  C   UNL     1       3.677   3.055  17.425  0.00  0.00    +0.000 A 
ATOM      5  C   UNL     1       3.380   4.369  17.842  0.00  0.00    +0.000 A 
ATOM      6  C   UNL     1       4.048   5.496  17.289  0.00  0.00    +0.000 A 
ATOM      7  C   UNL     1       3.737   6.779  17.743  0.00  0.00    +0.000 A 
ATOM      8  C   UNL     1       2.779   6.971  18.729  0.00  0.00    +0.000 A 
ATOM      9  C   UNL     1       2.102   5.884  19.276  0.00  0.00    +0.000 A 
ATOM     10  C   UNL     1       2.381   4.567  18.849  0.00  0.00    +0.000 A 
ENDROOT
BRANCH   1  11
ATOM     11  N   UNL     1       0.671   3.553  20.372  0.00  0.00    +0.000 N 
ATOM     12  H   UNL     1      -0.319   3.558  20.087  0.00  0.00    +0.000 HD
ATOM     13  H   UNL     1       0.856   3.658  21.375  0.00  0.00    +0.000 HD
ENDBRANCH   1  11
BRANCH   6  14
ATOM     14  O   UNL     1       4.984   5.403  16.315  0.00  0.00    +0.000 OA
ATOM     15  H   UNL     1       5.008   4.732  15.623  0.00  0.00    +0.000 HD
ENDBRANCH   6  14
TORSDOF 2
ENDMDL
MODEL 7
REMARK VINA RESULT:      -5.6      2.723      3.409
REMARK  Name = 
REMARK  2 active torsions:
REMARK  status: ('A' for Active; 'I' for Inactive)
REMARK    1  A    between atoms: N_1  and  C_2
REMARK    2  A    between atoms: C_7  and  O_8
REMARK                            x       y       z     vdW  Elec       q    Type
REMARK                         _______ _______ _______ _____ _____    ______ ____
ROOT
ATOM      1  C   UNL     1       3.691   2.878  17.981  0.00  0.00    +0.000 A 
ATOM      2  C   UNL     1       4.500   3.542  17.050  0.00  0.00    +0.000 A 
ATOM      3  C   UNL     1       4.614   4.926  17.059  0.00  0.00    +0.000 A 
ATOM      4  C   UNL     1       3.913   5.685  17.990  0.00  0.00    +0.000 A 
ATOM      5  C   UNL     1       3.084   5.067  18.948  0.00  0.00    +0.000 A 
ATOM      6  C   UNL     1       2.356   5.826  19.906  0.00  0.00    +0.000 A 
ATOM      7  C   UNL     1       1.560   5.173  20.849  0.00  0.00    +0.000 A 
ATOM      8  C   UNL     1       1.467   3.788  20.864  0.00  0.00    +0.000 A 
ATOM      9  C   UNL     1       2.160   3.024  19.928  0.00  0.00    +0.000 A 
ATOM     10  C   UNL     1       2.978   3.639  18.954  0.00  0.00    +0.000 A 
ENDROOT
BRANCH   1  11
ATOM     11  N   UNL     1       3.615   1.457  17.901  0.00  0.00    +0.000 N 
ATOM     12  H   UNL     1       4.284   0.874  18.425  0.00  0.00    +0.000 HD
ATOM     13  H   UNL     1       2.934   0.958  17.320  0.00  0.00    +0.000 HD
ENDBRANCH   1  11
BRANCH   6  14
ATOM     14  O   UNL     1       2.376   7.179  19.955  0.00  0.00    +0.000 OA
ATOM     15  H   UNL     1       2.711   7.759  19.262  0.00  0.00    +0.000 HD
ENDBRANCH   6  14
TORSDOF 2
ENDMDL
MODEL 8
REMARK VINA RESULT:      -5.6      1.190      1.223
REMARK  Name = 
REMARK  2 active torsions:
REMARK  status: ('A' for Active; 'I' for Inactive)
REMARK    1  A    between atoms: N_1  and  C_2
REMARK    2  A    between atoms: C_7  and  O_8
REMARK                            x       y       z     vdW  Elec       q    Type
REMARK                         _______ _______ _______ _____ _____    ______ ____
ROOT
ATOM      1  C   UNL     1       2.318   6.706  19.848  0.00  0.00    +0.000 A 
ATOM      2  C   UNL     1       2.756   7.380  18.700  0.00  0.00    +0.000 A 
ATOM      3  C   UNL     1       3.435   6.708  17.692  0.00  0.00    +0.000 A 
ATOM      4  C   UNL     1       3.706   5.350  17.808  0.00  0.00    +0.000 A 
ATOM      5  C   UNL     1       3.290   4.625  18.943  0.00  0.00    +0.000 A 
ATOM      6  C   UNL     1       3.562   3.236  19.083  0.00  0.00    +0.000 A 
ATOM      7  C   UNL     1       3.116   2.551  20.215  0.00  0.00    +0.000 A 
ATOM      8  C   UNL     1       2.410   3.211  21.212  0.00  0.00    +0.000 A 
ATOM      9  C   UNL     1       2.143   4.573  21.104  0.00  0.00    +0.000 A 
ATOM     10  C   UNL     1       2.574   5.309  19.978  0.00  0.00    +0.000 A 
ENDROOT
BRANCH   1  11
ATOM     11  N   UNL     1       1.639   7.465  20.845  0.00  0.00    +0.000 N 
ATOM     12  H   UNL     1       1.778   8.485  20.902  0.00  0.00    +0.000 HD
ATOM     13  H   UNL     1       1.019   7.050  21.548  0.00  0.00    +0.000 HD
ENDBRANCH   1  11
BRANCH   6  14
ATOM     14  O   UNL     1       4.256   2.517  18.168  0.00  0.00    +0.000 OA
ATOM     15  H   UNL     1       4.522   2.830  17.296  0.00  0.00    +0.000 HD
ENDBRANCH   6  14
TORSDOF 2
ENDMDL
MODEL 9
REMARK VINA RESULT:      -5.6      1.896      2.758
REMARK  Name = 
REMARK  2 active torsions:
REMARK  status: ('A' for Active; 'I' for Inactive)
REMARK    1  A    between atoms: N_1  and  C_2
REMARK    2  A    between atoms: C_7  and  O_8
REMARK                            x       y       z     vdW  Elec       q    Type
REMARK                         _______ _______ _______ _____ _____    ______ ____
ROOT
ATOM      1  C   UNL     1       3.617   5.684  17.761  0.00  0.00    +0.000 A 
ATOM      2  C   UNL     1       3.358   6.841  18.508  0.00  0.00    +0.000 A 
ATOM      3  C   UNL     1       2.480   6.818  19.583  0.00  0.00    +0.000 A 
ATOM      4  C   UNL     1       1.825   5.643  19.934  0.00  0.00    +0.000 A 
ATOM      5  C   UNL     1       2.048   4.450  19.215  0.00  0.00    +0.000 A 
ATOM      6  C   UNL     1       1.385   3.239  19.555  0.00  0.00    +0.000 A 
ATOM      7  C   UNL     1       1.648   2.076  18.829  0.00  0.00    +0.000 A 
ATOM      8  C   UNL     1       2.549   2.086  17.773  0.00  0.00    +0.000 A 
ATOM      9  C   UNL     1       3.200   3.263  17.412  0.00  0.00    +0.000 A 
ATOM     10  C   UNL     1       2.967   4.465  18.116  0.00  0.00    +0.000 A 
ENDROOT
BRANCH   1  11
ATOM     11  N   UNL     1       4.521   5.789  16.665  0.00  0.00    +0.000 N 
ATOM     12  H   UNL     1       4.453   6.585  16.014  0.00  0.00    +0.000 HD
ATOM     13  H   UNL     1       5.244   5.093  16.459  0.00  0.00    +0.000 HD
ENDBRANCH   1  11
BRANCH   6  14
ATOM     14  O   UNL     1       0.481   3.142  20.559  0.00  0.00    +0.000 OA
ATOM     15  H   UNL     1      -0.472   3.253  20.468  0.00  0.00    +0.000 HD
ENDBRANCH   6  14
TORSDOF 2
ENDMDL
