MODEL 1
REMARK VINA RESULT:      -6.8      0.000      0.000
REMARK  Name = 
REMARK  5 active torsions:
REMARK  status: ('A' for Active; 'I' for Inactive)
REMARK    1  A    between atoms: C_1  and  O_2
REMARK    2  A    between atoms: O_2  and  C_3
REMARK    3  A    between atoms: C_12  and  C_14
REMARK    4  A    between atoms: C_30  and  O_31
REMARK    5  A    between atoms: O_31  and  C_32
REMARK                            x       y       z     vdW  Elec       q    Type
REMARK                         _______ _______ _______ _____ _____    ______ ____
ROOT
ATOM      1  C   UNL     1       3.057  15.039  17.976  0.00  0.00    +0.000 A 
ATOM      2  C   UNL     1       2.960  13.644  18.056  0.00  0.00    +0.000 A 
ATOM      3  C   UNL     1       1.853  13.023  18.606  0.00  0.00    +0.000 A 
ATOM      4  N   UNL     1       1.843  11.693  18.651  0.00  0.00    +0.000 NA
ATOM      5  C   UNL     1       0.794  11.072  19.205  0.00  0.00    +0.000 A 
ATOM      6  N   UNL     1       0.878   9.712  19.324  0.00  0.00    +0.000 N 
ATOM      7  C   UNL     1       1.636   9.012  18.290  0.00  0.00    +0.000 C 
ATOM      8  C   UNL     1       2.589   8.006  18.938  0.00  0.00    +0.000 C 
ATOM      9  N   UNL     1       1.907   7.110  19.885  0.00  0.00    +0.000 N 
ATOM     10  C   UNL     1       1.982   5.707  19.900  0.00  0.00    +0.000 C 
ATOM     11  O   UNL     1       1.330   5.076  20.735  0.00  0.00    +0.000 OA
ATOM     12  C   UNL     1       1.020   7.797  20.871  0.00  0.00    +0.000 C 
ATOM     13  C   UNL     1       1.831   8.381  22.045  0.00  0.00    +0.000 C 
ATOM     14  C   UNL     1       1.368   9.717  22.627  0.00  0.00    +0.000 C 
ATOM     15  C   UNL     1      -0.066  10.167  22.374  0.00  0.00    +0.000 C 
ATOM     16  C   UNL     1      -0.810   9.450  21.256  0.00  0.00    +0.000 C 
ATOM     17  C   UNL     1       0.074   8.828  20.182  0.00  0.00    +0.000 C 
ATOM     18  N   UNL     1      -0.265  11.731  19.665  0.00  0.00    +0.000 NA
ATOM     19  C   UNL     1      -0.253  13.066  19.620  0.00  0.00    +0.000 A 
ATOM     20  N   UNL     1      -1.376  13.686  20.176  0.00  0.00    +0.000 N 
ATOM     21  C   UNL     1       0.815  13.798  19.098  0.00  0.00    +0.000 A 
ATOM     22  C   UNL     1       0.904  15.205  19.058  0.00  0.00    +0.000 A 
ATOM     23  C   UNL     1       2.024  15.833  18.497  0.00  0.00    +0.000 A 
ATOM     24  H   UNL     1      -2.007  12.937  20.454  0.00  0.00    +0.000 HD
ATOM     25  H   UNL     1      -1.818  14.315  19.517  0.00  0.00    +0.000 HD
ENDROOT
BRANCH  10  26
ATOM     26  C   UNL     1       2.788   5.014  18.893  0.00  0.00    +0.000 A 
ATOM     27  C   UNL     1       2.451   4.393  17.701  0.00  0.00    +0.000 A 
ATOM     28  C   UNL     1       3.555   3.729  17.088  0.00  0.00    +0.000 A 
ATOM     29  C   UNL     1       4.733   3.981  17.749  0.00  0.00    +0.000 A 
ATOM     30  S   UNL     1       4.495   4.957  19.131  0.00  0.00    +0.000 S 
ENDBRANCH  10  26
BRANCH   1  32
ATOM     31  C   UNL     1       5.419  15.139  17.801  0.00  0.00    +0.000 C 
ATOM     32  O   UNL     1       4.150  15.679  17.446  0.00  0.00    +0.000 OA
ENDBRANCH   1  32
BRANCH  23  33
ATOM     33  O   UNL     1       2.182  17.191  18.405  0.00  0.00    +0.000 OA
ATOM     34  C   UNL     1       1.113  17.930  17.826  0.00  0.00    +0.000 C 
ENDBRANCH  23  33
TORSDOF 3
ENDMDL
MODEL 2
REMARK VINA RESULT:      -6.7      3.397      8.692
REMARK  Name = 
REMARK  5 active torsions:
REMARK  status: ('A' for Active; 'I' for Inactive)
REMARK    1  A    between atoms: C_1  and  O_2
REMARK    2  A    between atoms: O_2  and  C_3
REMARK    3  A    between atoms: C_12  and  C_14
REMARK    4  A    between atoms: C_30  and  O_31
REMARK    5  A    between atoms: O_31  and  C_32
REMARK                            x       y       z     vdW  Elec       q    Type
REMARK                         _______ _______ _______ _____ _____    ______ ____
ROOT
ATOM      1  C   UNL     1       2.050   7.662  18.899  0.00  0.00    +0.000 A 
ATOM      2  C   UNL     1       1.764   9.032  18.880  0.00  0.00    +0.000 A 
ATOM      3  C   UNL     1       1.322   9.698  20.008  0.00  0.00    +0.000 A 
ATOM      4  N   UNL     1       1.065  11.000  19.904  0.00  0.00    +0.000 NA
ATOM      5  C   UNL     1       0.609  11.659  20.976  0.00  0.00    +0.000 A 
ATOM      6  N   UNL     1       0.259  12.968  20.790  0.00  0.00    +0.000 N 
ATOM      7  C   UNL     1       1.020  13.711  19.789  0.00  0.00    +0.000 C 
ATOM      8  C   UNL     1       0.064  14.492  18.887  0.00  0.00    +0.000 C 
ATOM      9  N   UNL     1      -0.883  15.321  19.650  0.00  0.00    +0.000 N 
ATOM     10  C   UNL     1      -1.137  16.688  19.449  0.00  0.00    +0.000 C 
ATOM     11  O   UNL     1      -1.937  17.270  20.187  0.00  0.00    +0.000 OA
ATOM     12  C   UNL     1      -1.577  14.614  20.767  0.00  0.00    +0.000 C 
ATOM     13  C   UNL     1      -2.764  13.776  20.251  0.00  0.00    +0.000 C 
ATOM     14  C   UNL     1      -3.034  12.437  20.939  0.00  0.00    +0.000 C 
ATOM     15  C   UNL     1      -2.467  12.203  22.334  0.00  0.00    +0.000 C 
ATOM     16  C   UNL     1      -1.368  13.156  22.783  0.00  0.00    +0.000 C 
ATOM     17  C   UNL     1      -0.577  13.812  21.658  0.00  0.00    +0.000 C 
ATOM     18  N   UNL     1       0.451  11.073  22.160  0.00  0.00    +0.000 NA
ATOM     19  C   UNL     1       0.708   9.767  22.263  0.00  0.00    +0.000 A 
ATOM     20  N   UNL     1       0.462   9.215  23.524  0.00  0.00    +0.000 N 
ATOM     21  C   UNL     1       1.148   8.992  21.188  0.00  0.00    +0.000 A 
ATOM     22  C   UNL     1       1.398   7.605  21.224  0.00  0.00    +0.000 A 
ATOM     23  C   UNL     1       1.851   6.933  20.082  0.00  0.00    +0.000 A 
ATOM     24  H   UNL     1       0.180   9.988  24.124  0.00  0.00    +0.000 HD
ATOM     25  H   UNL     1       1.281   8.743  23.889  0.00  0.00    +0.000 HD
ENDROOT
BRANCH  10  26
ATOM     26  C   UNL     1      -0.409  17.415  18.406  0.00  0.00    +0.000 A 
ATOM     27  C   UNL     1      -0.840  18.112  17.289  0.00  0.00    +0.000 A 
ATOM     28  C   UNL     1       0.235  18.566  16.469  0.00  0.00    +0.000 A 
ATOM     29  C   UNL     1       1.457  18.331  17.051  0.00  0.00    +0.000 A 
ATOM     30  S   UNL     1       1.307  17.514  18.544  0.00  0.00    +0.000 S 
ENDBRANCH  10  26
BRANCH   1  32
ATOM     31  C   UNL     1       3.842   7.178  17.425  0.00  0.00    +0.000 C 
ATOM     32  O   UNL     1       2.480   6.976  17.790  0.00  0.00    +0.000 OA
ENDBRANCH   1  32
BRANCH  23  33
ATOM     33  O   UNL     1       2.131   5.592  20.036  0.00  0.00    +0.000 OA
ATOM     34  C   UNL     1       1.110   4.701  20.467  0.00  0.00    +0.000 C 
ENDBRANCH  23  33
TORSDOF 3
ENDMDL
MODEL 3
REMARK VINA RESULT:      -6.5      4.948      8.067
REMARK  Name = 
REMARK  5 active torsions:
REMARK  status: ('A' for Active; 'I' for Inactive)
REMARK    1  A    between atoms: C_1  and  O_2
REMARK    2  A    between atoms: O_2  and  C_3
REMARK    3  A    between atoms: C_12  and  C_14
REMARK    4  A    between atoms: C_30  and  O_31
REMARK    5  A    between atoms: O_31  and  C_32
REMARK                            x       y       z     vdW  Elec       q    Type
REMARK                         _______ _______ _______ _____ _____    ______ ____
ROOT
ATOM      1  C   UNL     1      -2.688  10.687  17.748  0.00  0.00    +0.000 A 
ATOM      2  C   UNL     1      -1.462  11.327  17.970  0.00  0.00    +0.000 A 
ATOM      3  C   UNL     1      -1.344  12.384  18.853  0.00  0.00    +0.000 A 
ATOM      4  N   UNL     1      -0.145  12.943  19.000  0.00  0.00    +0.000 NA
ATOM      5  C   UNL     1      -0.013  13.987  19.827  0.00  0.00    +0.000 A 
ATOM      6  N   UNL     1       1.213  14.592  19.863  0.00  0.00    +0.000 N 
ATOM      7  C   UNL     1       2.372  13.732  19.637  0.00  0.00    +0.000 C 
ATOM      8  C   UNL     1       3.319  14.393  18.634  0.00  0.00    +0.000 C 
ATOM      9  N   UNL     1       3.666  15.773  19.009  0.00  0.00    +0.000 N 
ATOM     10  C   UNL     1       4.963  16.307  19.097  0.00  0.00    +0.000 C 
ATOM     11  O   UNL     1       5.112  17.478  19.456  0.00  0.00    +0.000 OA
ATOM     12  C   UNL     1       2.503  16.636  19.373  0.00  0.00    +0.000 C 
ATOM     13  C   UNL     1       1.793  17.181  18.118  0.00  0.00    +0.000 C 
ATOM     14  C   UNL     1       0.269  17.311  18.170  0.00  0.00    +0.000 C 
ATOM     15  C   UNL     1      -0.414  17.356  19.531  0.00  0.00    +0.000 C 
ATOM     16  C   UNL     1       0.416  16.891  20.719  0.00  0.00    +0.000 C 
ATOM     17  C   UNL     1       1.548  15.927  20.383  0.00  0.00    +0.000 C 
ATOM     18  N   UNL     1      -1.025  14.456  20.551  0.00  0.00    +0.000 NA
ATOM     19  C   UNL     1      -2.228  13.895  20.402  0.00  0.00    +0.000 A 
ATOM     20  N   UNL     1      -3.250  14.483  21.153  0.00  0.00    +0.000 N 
ATOM     21  C   UNL     1      -2.467  12.831  19.531  0.00  0.00    +0.000 A 
ATOM     22  C   UNL     1      -3.718  12.223  19.301  0.00  0.00    +0.000 A 
ATOM     23  C   UNL     1      -3.836  11.149  18.411  0.00  0.00    +0.000 A 
ATOM     24  H   UNL     1      -2.810  15.209  21.716  0.00  0.00    +0.000 HD
ATOM     25  H   UNL     1      -3.723  13.802  21.734  0.00  0.00    +0.000 HD
ENDROOT
BRANCH  10  26
ATOM     26  C   UNL     1       6.119  15.453  18.815  0.00  0.00    +0.000 A 
ATOM     27  C   UNL     1       6.568  14.855  17.649  0.00  0.00    +0.000 A 
ATOM     28  C   UNL     1       7.687  13.995  17.861  0.00  0.00    +0.000 A 
ATOM     29  C   UNL     1       8.152  14.070  19.152  0.00  0.00    +0.000 A 
ATOM     30  S   UNL     1       7.207  15.121  20.111  0.00  0.00    +0.000 S 
ENDBRANCH  10  26
BRANCH   1  32
ATOM     31  C   UNL     1      -2.822   9.987  15.488  0.00  0.00    +0.000 C 
ATOM     32  O   UNL     1      -2.833   9.642  16.870  0.00  0.00    +0.000 OA
ENDBRANCH   1  32
BRANCH  23  33
ATOM     33  O   UNL     1      -5.010  10.494  18.142  0.00  0.00    +0.000 OA
ATOM     34  C   UNL     1      -6.213  11.239  18.279  0.00  0.00    +0.000 C 
ENDBRANCH  23  33
TORSDOF 3
ENDMDL
MODEL 4
REMARK VINA RESULT:      -6.2      3.997      5.882
REMARK  Name = 
REMARK  5 active torsions:
REMARK  status: ('A' for Active; 'I' for Inactive)
REMARK    1  A    between atoms: C_1  and  O_2
REMARK    2  A    between atoms: O_2  and  C_3
REMARK    3  A    between atoms: C_12  and  C_14
REMARK    4  A    between atoms: C_30  and  O_31
REMARK    5  A    between atoms: O_31  and  C_32
REMARK                            x       y       z     vdW  Elec       q    Type
REMARK                         _______ _______ _______ _____ _____    ______ ____
ROOT
ATOM      1  C   UNL     1      -4.026  12.998  24.252  0.00  0.00    +0.000 A 
ATOM      2  C   UNL     1      -3.092  12.145  23.653  0.00  0.00    +0.000 A 
ATOM      3  C   UNL     1      -2.039  12.633  22.901  0.00  0.00    +0.000 A 
ATOM      4  N   UNL     1      -1.200  11.754  22.358  0.00  0.00    +0.000 NA
ATOM      5  C   UNL     1      -0.190  12.203  21.603  0.00  0.00    +0.000 A 
ATOM      6  N   UNL     1       0.579  11.259  20.982  0.00  0.00    +0.000 N 
ATOM      7  C   UNL     1       0.746   9.988  21.682  0.00  0.00    +0.000 C 
ATOM      8  C   UNL     1       0.520   8.828  20.712  0.00  0.00    +0.000 C 
ATOM      9  N   UNL     1       1.335   8.945  19.492  0.00  0.00    +0.000 N 
ATOM     10  C   UNL     1       2.166   7.950  18.950  0.00  0.00    +0.000 C 
ATOM     11  O   UNL     1       2.820   8.196  17.933  0.00  0.00    +0.000 OA
ATOM     12  C   UNL     1       1.283  10.283  18.829  0.00  0.00    +0.000 C 
ATOM     13  C   UNL     1       0.013  10.435  17.968  0.00  0.00    +0.000 C 
ATOM     14  C   UNL     1      -0.651  11.812  17.927  0.00  0.00    +0.000 C 
ATOM     15  C   UNL     1       0.172  13.033  18.319  0.00  0.00    +0.000 C 
ATOM     16  C   UNL     1       1.462  12.760  19.079  0.00  0.00    +0.000 C 
ATOM     17  C   UNL     1       1.499  11.445  19.847  0.00  0.00    +0.000 C 
ATOM     18  N   UNL     1       0.039  13.500  21.416  0.00  0.00    +0.000 NA
ATOM     19  C   UNL     1      -0.804  14.381  21.961  0.00  0.00    +0.000 A 
ATOM     20  N   UNL     1      -0.528  15.720  21.669  0.00  0.00    +0.000 N 
ATOM     21  C   UNL     1      -1.907  14.001  22.728  0.00  0.00    +0.000 A 
ATOM     22  C   UNL     1      -2.853  14.880  23.295  0.00  0.00    +0.000 A 
ATOM     23  C   UNL     1      -3.916  14.384  24.060  0.00  0.00    +0.000 A 
ATOM     24  H   UNL     1       0.333  15.722  21.124  0.00  0.00    +0.000 HD
ATOM     25  H   UNL     1      -0.432  16.271  22.513  0.00  0.00    +0.000 HD
ENDROOT
BRANCH  10  26
ATOM     26  C   UNL     1       2.286   6.658  19.629  0.00  0.00    +0.000 A 
ATOM     27  C   UNL     1       1.504   6.040  20.592  0.00  0.00    +0.000 A 
ATOM     28  C   UNL     1       2.069   4.819  21.065  0.00  0.00    +0.000 A 
ATOM     29  C   UNL     1       3.189   4.463  20.353  0.00  0.00    +0.000 A 
ATOM     30  S   UNL     1       3.587   5.626  19.166  0.00  0.00    +0.000 S 
ENDBRANCH  10  26
BRANCH   1  32
ATOM     31  C   UNL     1      -6.292  12.305  24.274  0.00  0.00    +0.000 C 
ATOM     32  O   UNL     1      -5.086  12.537  24.994  0.00  0.00    +0.000 OA
ENDBRANCH   1  32
BRANCH  23  33
ATOM     33  O   UNL     1      -4.868  15.168  24.658  0.00  0.00    +0.000 OA
ATOM     34  C   UNL     1      -4.566  16.549  24.812  0.00  0.00    +0.000 C 
ENDBRANCH  23  33
TORSDOF 3
ENDMDL
MODEL 5
REMARK VINA RESULT:      -6.1      4.692      7.896
REMARK  Name = 
REMARK  5 active torsions:
REMARK  status: ('A' for Active; 'I' for Inactive)
REMARK    1  A    between atoms: C_1  and  O_2
REMARK    2  A    between atoms: O_2  and  C_3
REMARK    3  A    between atoms: C_12  and  C_14
REMARK    4  A    between atoms: C_30  and  O_31
REMARK    5  A    between atoms: O_31  and  C_32
REMARK                            x       y       z     vdW  Elec       q    Type
REMARK                         _______ _______ _______ _____ _____    ______ ____
ROOT
ATOM      1  C   UNL     1       9.658  13.470  17.720  0.00  0.00    +0.000 A 
ATOM      2  C   UNL     1       8.272  13.413  17.902  0.00  0.00    +0.000 A 
ATOM      3  C   UNL     1       7.526  14.546  18.168  0.00  0.00    +0.000 A 
ATOM      4  N   UNL     1       6.213  14.404  18.337  0.00  0.00    +0.000 NA
ATOM      5  C   UNL     1       5.475  15.483  18.624  0.00  0.00    +0.000 A 
ATOM      6  N   UNL     1       4.152  15.270  18.892  0.00  0.00    +0.000 N 
ATOM      7  C   UNL     1       3.514  14.158  18.191  0.00  0.00    +0.000 C 
ATOM      8  C   UNL     1       2.698  13.323  19.178  0.00  0.00    +0.000 C 
ATOM      9  N   UNL     1       1.765  14.139  19.971  0.00  0.00    +0.000 N 
ATOM     10  C   UNL     1       0.391  13.897  20.142  0.00  0.00    +0.000 C 
ATOM     11  O   UNL     1      -0.283  14.684  20.812  0.00  0.00    +0.000 OA
ATOM     12  C   UNL     1       2.367  15.357  20.592  0.00  0.00    +0.000 C 
ATOM     13  C   UNL     1       3.128  15.010  21.886  0.00  0.00    +0.000 C 
ATOM     14  C   UNL     1       4.412  15.789  22.180  0.00  0.00    +0.000 C 
ATOM     15  C   UNL     1       4.630  17.127  21.485  0.00  0.00    +0.000 C 
ATOM     16  C   UNL     1       3.751  17.409  20.275  0.00  0.00    +0.000 C 
ATOM     17  C   UNL     1       3.207  16.176  19.564  0.00  0.00    +0.000 C 
ATOM     18  N   UNL     1       5.996  16.705  18.696  0.00  0.00    +0.000 NA
ATOM     19  C   UNL     1       7.314  16.846  18.527  0.00  0.00    +0.000 A 
ATOM     20  N   UNL     1       7.791  18.152  18.676  0.00  0.00    +0.000 N 
ATOM     21  C   UNL     1       8.165  15.772  18.266  0.00  0.00    +0.000 A 
ATOM     22  C   UNL     1       9.566  15.850  18.118  0.00  0.00    +0.000 A 
ATOM     23  C   UNL     1      10.319  14.703  17.844  0.00  0.00    +0.000 A 
ATOM     24  H   UNL     1       6.973  18.739  18.832  0.00  0.00    +0.000 HD
ATOM     25  H   UNL     1       8.311  18.453  17.860  0.00  0.00    +0.000 HD
ENDROOT
BRANCH  10  26
ATOM     26  C   UNL     1      -0.231  12.748  19.480  0.00  0.00    +0.000 A 
ATOM     27  C   UNL     1      -1.004  12.644  18.335  0.00  0.00    +0.000 A 
ATOM     28  C   UNL     1      -1.508  11.326  18.123  0.00  0.00    +0.000 A 
ATOM     29  C   UNL     1      -0.991  10.430  19.027  0.00  0.00    +0.000 A 
ATOM     30  S   UNL     1       0.042  11.186  20.157  0.00  0.00    +0.000 S 
ENDBRANCH  10  26
BRANCH   1  32
ATOM     31  C   UNL     1       9.849  11.111  17.846  0.00  0.00    +0.000 C 
ATOM     32  O   UNL     1      10.422  12.358  17.465  0.00  0.00    +0.000 OA
ENDBRANCH   1  32
BRANCH  23  33
ATOM     33  O   UNL     1      11.679  14.695  17.671  0.00  0.00    +0.000 OA
ATOM     34  C   UNL     1      12.333  15.957  17.628  0.00  0.00    +0.000 C 
ENDBRANCH  23  33
TORSDOF 3
ENDMDL
MODEL 6
REMARK VINA RESULT:      -6.1      1.091      1.147
REMARK  Name = 
REMARK  5 active torsions:
REMARK  status: ('A' for Active; 'I' for Inactive)
REMARK    1  A    between atoms: C_1  and  O_2
REMARK    2  A    between atoms: O_2  and  C_3
REMARK    3  A    between atoms: C_12  and  C_14
REMARK    4  A    between atoms: C_30  and  O_31
REMARK    5  A    between atoms: O_31  and  C_32
REMARK                            x       y       z     vdW  Elec       q    Type
REMARK                         _______ _______ _______ _____ _____    ______ ____
ROOT
ATOM      1  C   UNL     1       2.979  15.814  18.188  0.00  0.00    +0.000 A 
ATOM      2  C   UNL     1       2.976  14.415  18.139  0.00  0.00    +0.000 A 
ATOM      3  C   UNL     1       1.862  13.677  18.494  0.00  0.00    +0.000 A 
ATOM      4  N   UNL     1       1.944  12.351  18.426  0.00  0.00    +0.000 NA
ATOM      5  C   UNL     1       0.887  11.616  18.793  0.00  0.00    +0.000 A 
ATOM      6  N   UNL     1       1.056  10.260  18.807  0.00  0.00    +0.000 N 
ATOM      7  C   UNL     1       1.980   9.706  17.819  0.00  0.00    +0.000 C 
ATOM      8  C   UNL     1       2.922   8.708  18.493  0.00  0.00    +0.000 C 
ATOM      9  N   UNL     1       2.201   7.687  19.271  0.00  0.00    +0.000 N 
ATOM     10  C   UNL     1       2.378   6.296  19.178  0.00  0.00    +0.000 C 
ATOM     11  O   UNL     1       1.680   5.550  19.870  0.00  0.00    +0.000 OA
ATOM     12  C   UNL     1       1.157   8.223  20.194  0.00  0.00    +0.000 C 
ATOM     13  C   UNL     1       1.779   8.746  21.503  0.00  0.00    +0.000 C 
ATOM     14  C   UNL     1       1.153   9.992  22.134  0.00  0.00    +0.000 C 
ATOM     15  C   UNL     1      -0.270  10.371  21.744  0.00  0.00    +0.000 C 
ATOM     16  C   UNL     1      -0.823   9.715  20.487  0.00  0.00    +0.000 C 
ATOM     17  C   UNL     1       0.224   9.251  19.482  0.00  0.00    +0.000 C 
ATOM     18  N   UNL     1      -0.265  12.162  19.172  0.00  0.00    +0.000 NA
ATOM     19  C   UNL     1      -0.346  13.494  19.240  0.00  0.00    +0.000 A 
ATOM     20  N   UNL     1      -1.569  13.987  19.704  0.00  0.00    +0.000 N 
ATOM     21  C   UNL     1       0.719  14.337  18.918  0.00  0.00    +0.000 A 
ATOM     22  C   UNL     1       0.708  15.744  19.007  0.00  0.00    +0.000 A 
ATOM     23  C   UNL     1       1.836  16.490  18.642  0.00  0.00    +0.000 A 
ATOM     24  H   UNL     1      -2.172  13.177  19.838  0.00  0.00    +0.000 HD
ATOM     25  H   UNL     1      -1.976  14.645  19.049  0.00  0.00    +0.000 HD
ENDROOT
BRANCH  10  26
ATOM     26  C   UNL     1       3.345   5.750  18.224  0.00  0.00    +0.000 A 
ATOM     27  C   UNL     1       4.418   6.324  17.560  0.00  0.00    +0.000 A 
ATOM     28  C   UNL     1       5.023   5.442  16.616  0.00  0.00    +0.000 A 
ATOM     29  C   UNL     1       4.491   4.177  16.684  0.00  0.00    +0.000 A 
ATOM     30  S   UNL     1       3.232   4.074  17.834  0.00  0.00    +0.000 S 
ENDBRANCH  10  26
BRANCH   1  32
ATOM     31  C   UNL     1       5.152  16.549  18.784  0.00  0.00    +0.000 C 
ATOM     32  O   UNL     1       4.076  16.568  17.852  0.00  0.00    +0.000 OA
ENDBRANCH   1  32
BRANCH  23  33
ATOM     33  O   UNL     1       1.903  17.858  18.684  0.00  0.00    +0.000 OA
ATOM     34  C   UNL     1       1.462  18.492  19.879  0.00  0.00    +0.000 C 
ENDBRANCH  23  33
TORSDOF 3
ENDMDL
MODEL 7
REMARK VINA RESULT:      -6.0      5.138      7.773
REMARK  Name = 
REMARK  5 active torsions:
REMARK  status: ('A' for Active; 'I' for Inactive)
REMARK    1  A    between atoms: C_1  and  O_2
REMARK    2  A    between atoms: O_2  and  C_3
REMARK    3  A    between atoms: C_12  and  C_14
REMARK    4  A    between atoms: C_30  and  O_31
REMARK    5  A    between atoms: O_31  and  C_32
REMARK                            x       y       z     vdW  Elec       q    Type
REMARK                         _______ _______ _______ _____ _____    ______ ____
ROOT
ATOM      1  C   UNL     1      -3.390  11.383  17.200  0.00  0.00    +0.000 A 
ATOM      2  C   UNL     1      -2.111  11.847  17.529  0.00  0.00    +0.000 A 
ATOM      3  C   UNL     1      -1.824  12.365  18.779  0.00  0.00    +0.000 A 
ATOM      4  N   UNL     1      -0.585  12.792  19.008  0.00  0.00    +0.000 NA
ATOM      5  C   UNL     1      -0.293  13.324  20.202  0.00  0.00    +0.000 A 
ATOM      6  N   UNL     1       0.962  13.845  20.352  0.00  0.00    +0.000 N 
ATOM      7  C   UNL     1       2.033  13.196  19.598  0.00  0.00    +0.000 C 
ATOM      8  C   UNL     1       2.891  14.254  18.903  0.00  0.00    +0.000 C 
ATOM      9  N   UNL     1       3.363  15.296  19.830  0.00  0.00    +0.000 N 
ATOM     10  C   UNL     1       4.691  15.730  19.983  0.00  0.00    +0.000 C 
ATOM     11  O   UNL     1       4.951  16.594  20.824  0.00  0.00    +0.000 OA
ATOM     12  C   UNL     1       2.305  15.883  20.706  0.00  0.00    +0.000 C 
ATOM     13  C   UNL     1       1.485  16.952  19.958  0.00  0.00    +0.000 C 
ATOM     14  C   UNL     1      -0.011  17.038  20.268  0.00  0.00    +0.000 C 
ATOM     15  C   UNL     1      -0.524  16.435  21.570  0.00  0.00    +0.000 C 
ATOM     16  C   UNL     1       0.413  15.467  22.280  0.00  0.00    +0.000 C 
ATOM     17  C   UNL     1       1.437  14.779  21.385  0.00  0.00    +0.000 C 
ATOM     18  N   UNL     1      -1.182  13.394  21.188  0.00  0.00    +0.000 NA
ATOM     19  C   UNL     1      -2.425  12.965  20.957  0.00  0.00    +0.000 A 
ATOM     20  N   UNL     1      -3.313  13.127  22.024  0.00  0.00    +0.000 N 
ATOM     21  C   UNL     1      -2.830  12.436  19.730  0.00  0.00    +0.000 A 
ATOM     22  C   UNL     1      -4.134  12.004  19.412  0.00  0.00    +0.000 A 
ATOM     23  C   UNL     1      -4.421  11.475  18.148  0.00  0.00    +0.000 A 
ATOM     24  H   UNL     1      -2.767  13.504  22.796  0.00  0.00    +0.000 HD
ATOM     25  H   UNL     1      -3.754  12.251  22.277  0.00  0.00    +0.000 HD
ENDROOT
BRANCH  10  26
ATOM     26  C   UNL     1       5.752  15.113  19.184  0.00  0.00    +0.000 A 
ATOM     27  C   UNL     1       5.796  14.699  17.862  0.00  0.00    +0.000 A 
ATOM     28  C   UNL     1       7.011  14.029  17.530  0.00  0.00    +0.000 A 
ATOM     29  C   UNL     1       7.918  14.075  18.561  0.00  0.00    +0.000 A 
ATOM     30  S   UNL     1       7.283  14.865  19.936  0.00  0.00    +0.000 S 
ENDBRANCH  10  26
BRANCH   1  32
ATOM     31  C   UNL     1      -2.729  10.008  15.386  0.00  0.00    +0.000 C 
ATOM     32  O   UNL     1      -3.701  10.875  15.963  0.00  0.00    +0.000 OA
ENDBRANCH   1  32
BRANCH  23  33
ATOM     33  O   UNL     1      -5.656  11.020  17.763  0.00  0.00    +0.000 OA
ATOM     34  C   UNL     1      -6.496  10.489  18.781  0.00  0.00    +0.000 C 
ENDBRANCH  23  33
TORSDOF 3
ENDMDL
MODEL 8
REMARK VINA RESULT:      -5.9      5.980      9.835
REMARK  Name = 
REMARK  5 active torsions:
REMARK  status: ('A' for Active; 'I' for Inactive)
REMARK    1  A    between atoms: C_1  and  O_2
REMARK    2  A    between atoms: O_2  and  C_3
REMARK    3  A    between atoms: C_12  and  C_14
REMARK    4  A    between atoms: C_30  and  O_31
REMARK    5  A    between atoms: O_31  and  C_32
REMARK                            x       y       z     vdW  Elec       q    Type
REMARK                         _______ _______ _______ _____ _____    ______ ____
ROOT
ATOM      1  C   UNL     1      -1.831  10.570  17.893  0.00  0.00    +0.000 A 
ATOM      2  C   UNL     1      -1.789  11.433  18.994  0.00  0.00    +0.000 A 
ATOM      3  C   UNL     1      -2.916  12.094  19.444  0.00  0.00    +0.000 A 
ATOM      4  N   UNL     1      -2.788  12.903  20.493  0.00  0.00    +0.000 NA
ATOM      5  C   UNL     1      -3.861  13.577  20.928  0.00  0.00    +0.000 A 
ATOM      6  N   UNL     1      -3.655  14.474  21.939  0.00  0.00    +0.000 N 
ATOM      7  C   UNL     1      -2.603  14.147  22.898  0.00  0.00    +0.000 C 
ATOM      8  C   UNL     1      -1.721  15.373  23.138  0.00  0.00    +0.000 C 
ATOM      9  N   UNL     1      -2.502  16.569  23.496  0.00  0.00    +0.000 N 
ATOM     10  C   UNL     1      -2.275  17.407  24.600  0.00  0.00    +0.000 C 
ATOM     11  O   UNL     1      -3.030  18.362  24.800  0.00  0.00    +0.000 OA
ATOM     12  C   UNL     1      -3.666  16.849  22.602  0.00  0.00    +0.000 C 
ATOM     13  C   UNL     1      -3.222  17.555  21.306  0.00  0.00    +0.000 C 
ATOM     14  C   UNL     1      -3.956  17.187  20.015  0.00  0.00    +0.000 C 
ATOM     15  C   UNL     1      -5.332  16.539  20.116  0.00  0.00    +0.000 C 
ATOM     16  C   UNL     1      -5.708  15.963  21.473  0.00  0.00    +0.000 C 
ATOM     17  C   UNL     1      -4.534  15.575  22.363  0.00  0.00    +0.000 C 
ATOM     18  N   UNL     1      -5.065  13.428  20.383  0.00  0.00    +0.000 NA
ATOM     19  C   UNL     1      -5.192  12.616  19.330  0.00  0.00    +0.000 A 
ATOM     20  N   UNL     1      -6.476  12.560  18.781  0.00  0.00    +0.000 N 
ATOM     21  C   UNL     1      -4.121  11.907  18.785  0.00  0.00    +0.000 A 
ATOM     22  C   UNL     1      -4.182  11.068  17.653  0.00  0.00    +0.000 A 
ATOM     23  C   UNL     1      -3.041  10.395  17.202  0.00  0.00    +0.000 A 
ATOM     24  H   UNL     1      -7.067  13.139  19.375  0.00  0.00    +0.000 HD
ATOM     25  H   UNL     1      -6.819  11.608  18.735  0.00  0.00    +0.000 HD
ENDROOT
BRANCH  10  26
ATOM     26  C   UNL     1      -1.183  17.104  25.528  0.00  0.00    +0.000 A 
ATOM     27  C   UNL     1      -1.047  16.144  26.519  0.00  0.00    +0.000 A 
ATOM     28  C   UNL     1       0.155  16.292  27.273  0.00  0.00    +0.000 A 
ATOM     29  C   UNL     1       0.971  17.265  26.749  0.00  0.00    +0.000 A 
ATOM     30  S   UNL     1       0.262  18.035  25.399  0.00  0.00    +0.000 S 
ENDBRANCH  10  26
BRANCH   1  32
ATOM     31  C   UNL     1       0.392   9.859  18.305  0.00  0.00    +0.000 C 
ATOM     32  O   UNL     1      -0.724   9.910  17.421  0.00  0.00    +0.000 OA
ENDBRANCH   1  32
BRANCH  23  33
ATOM     33  O   UNL     1      -3.019   9.551  16.122  0.00  0.00    +0.000 OA
ATOM     34  C   UNL     1      -3.042  10.149  14.832  0.00  0.00    +0.000 C 
ENDBRANCH  23  33
TORSDOF 3
ENDMDL
MODEL 9
REMARK VINA RESULT:      -5.8      4.862      7.996
REMARK  Name = 
REMARK  5 active torsions:
REMARK  status: ('A' for Active; 'I' for Inactive)
REMARK    1  A    between atoms: C_1  and  O_2
REMARK    2  A    between atoms: O_2  and  C_3
REMARK    3  A    between atoms: C_12  and  C_14
REMARK    4  A    between atoms: C_30  and  O_31
REMARK    5  A    between atoms: O_31  and  C_32
REMARK                            x       y       z     vdW  Elec       q    Type
REMARK                         _______ _______ _______ _____ _____    ______ ____
ROOT
ATOM      1  C   UNL     1      -2.368  11.301  18.716  0.00  0.00    +0.000 A 
ATOM      2  C   UNL     1      -1.066  11.813  18.762  0.00  0.00    +0.000 A 
ATOM      3  C   UNL     1      -0.773  12.998  19.412  0.00  0.00    +0.000 A 
ATOM      4  N   UNL     1       0.489  13.419  19.403  0.00  0.00    +0.000 NA
ATOM      5  C   UNL     1       0.790  14.579  20.001  0.00  0.00    +0.000 A 
ATOM      6  N   UNL     1       2.078  15.020  19.873  0.00  0.00    +0.000 N 
ATOM      7  C   UNL     1       3.114  13.995  19.781  0.00  0.00    +0.000 C 
ATOM      8  C   UNL     1       4.070  14.325  18.634  0.00  0.00    +0.000 C 
ATOM      9  N   UNL     1       4.597  15.697  18.715  0.00  0.00    +0.000 N 
ATOM     10  C   UNL     1       5.949  16.071  18.649  0.00  0.00    +0.000 C 
ATOM     11  O   UNL     1       6.254  17.261  18.763  0.00  0.00    +0.000 OA
ATOM     12  C   UNL     1       3.565  16.753  18.941  0.00  0.00    +0.000 C 
ATOM     13  C   UNL     1       2.850  17.130  17.629  0.00  0.00    +0.000 C 
ATOM     14  C   UNL     1       1.357  17.458  17.707  0.00  0.00    +0.000 C 
ATOM     15  C   UNL     1       0.765  17.851  19.055  0.00  0.00    +0.000 C 
ATOM     16  C   UNL     1       1.605  17.523  20.282  0.00  0.00    +0.000 C 
ATOM     17  C   UNL     1       2.595  16.378  20.104  0.00  0.00    +0.000 C 
ATOM     18  N   UNL     1      -0.116  15.302  20.652  0.00  0.00    +0.000 NA
ATOM     19  C   UNL     1      -1.383  14.878  20.661  0.00  0.00    +0.000 A 
ATOM     20  N   UNL     1      -2.283  15.723  21.316  0.00  0.00    +0.000 N 
ATOM     21  C   UNL     1      -1.794  13.704  20.028  0.00  0.00    +0.000 A 
ATOM     22  C   UNL     1      -3.120  13.225  19.967  0.00  0.00    +0.000 A 
ATOM     23  C   UNL     1      -3.413  12.022  19.313  0.00  0.00    +0.000 A 
ATOM     24  H   UNL     1      -1.730  16.483  21.707  0.00  0.00    +0.000 HD
ATOM     25  H   UNL     1      -2.797  15.231  22.037  0.00  0.00    +0.000 HD
ENDROOT
BRANCH  10  26
ATOM     26  C   UNL     1       6.980  15.041  18.502  0.00  0.00    +0.000 A 
ATOM     27  C   UNL     1       7.309  14.202  17.450  0.00  0.00    +0.000 A 
ATOM     28  C   UNL     1       8.319  13.254  17.791  0.00  0.00    +0.000 A 
ATOM     29  C   UNL     1       8.837  13.486  19.042  0.00  0.00    +0.000 A 
ATOM     30  S   UNL     1       8.064  14.796  19.820  0.00  0.00    +0.000 S 
ENDBRANCH  10  26
BRANCH   1  32
ATOM     31  C   UNL     1      -2.256  10.038  16.713  0.00  0.00    +0.000 C 
ATOM     32  O   UNL     1      -2.685  10.133  18.068  0.00  0.00    +0.000 OA
ENDBRANCH   1  32
BRANCH  23  33
ATOM     33  O   UNL     1      -4.669  11.480  19.222  0.00  0.00    +0.000 OA
ATOM     34  C   UNL     1      -5.588  12.118  18.343  0.00  0.00    +0.000 C 
ENDBRANCH  23  33
TORSDOF 3
ENDMDL
