MODEL 1
REMARK VINA RESULT:      -7.6      0.000      0.000
REMARK  Name = 
REMARK  8 active torsions:
REMARK  status: ('A' for Active; 'I' for Inactive)
REMARK    1  A    between atoms: C_1  and  C_2
REMARK    2  A    between atoms: C_2  and  O_3
REMARK    3  A    between atoms: O_3  and  C_4
REMARK    4  A    between atoms: C_7  and  C_8
REMARK    5  A    between atoms: N_10  and  C_11
REMARK    6  A    between atoms: C_11  and  N_13
REMARK    7  A    between atoms: N_13  and  C_14
REMARK    8  A    between atoms: C_21  and  N_22
REMARK                            x       y       z     vdW  Elec       q    Type
REMARK                         _______ _______ _______ _____ _____    ______ ____
ROOT
ATOM      1  C   UNL     1       2.958   5.677  18.557  0.00  0.00    +0.000 C 
ATOM      2  O   UNL     1       2.396   4.995  17.708  0.00  0.00    +0.000 OA
ATOM      3  N   UNL     1       4.003   5.247  19.359  0.00  0.00    +0.000 N 
ATOM      4  H   UNL     1       4.251   5.829  20.146  0.00  0.00    +0.000 HD
ENDROOT
BRANCH   1   8
ATOM      5  C   UNL     1       1.267   9.572  19.315  0.00  0.00    +0.000 A 
ATOM      6  C   UNL     1       1.800   9.222  18.073  0.00  0.00    +0.000 A 
ATOM      7  C   UNL     1       2.335   7.951  17.861  0.00  0.00    +0.000 A 
ATOM      8  C   UNL     1       2.378   7.004  18.894  0.00  0.00    +0.000 A 
ATOM      9  C   UNL     1       1.897   7.348  20.162  0.00  0.00    +0.000 A 
ATOM     10  C   UNL     1       1.363   8.637  20.351  0.00  0.00    +0.000 A 
BRANCH  10  11
ATOM     11  N   UNL     1       0.865   8.973  21.677  0.00  0.00    +0.000 N 
ATOM     12  O   UNL     1       1.658   9.470  22.483  0.00  0.00    +0.000 OA
ATOM     13  O   UNL     1      -0.313   8.657  21.918  0.00  0.00    +0.000 OA
ENDBRANCH  10  11
BRANCH   5  14
ATOM     14  O   UNL     1       0.649  10.769  19.549  0.00  0.00    +0.000 OA
BRANCH  14  16
ATOM     15  C   UNL     1       1.703  12.747  20.402  0.00  0.00    +0.000 C 
ATOM     16  C   UNL     1       1.391  11.933  19.167  0.00  0.00    +0.000 C 
ENDBRANCH  14  16
ENDBRANCH   5  14
ENDBRANCH   1   8
BRANCH   3  17
ATOM     17  C   UNL     1       4.735   4.070  19.283  0.00  0.00    +0.000 C 
ATOM     18  S   UNL     1       4.245   2.538  19.710  0.00  0.00    +0.000 S 
BRANCH  17  19
ATOM     19  N   UNL     1       5.979   4.238  18.709  0.00  0.00    +0.000 N 
ATOM     20  H   UNL     1       6.735   4.456  19.354  0.00  0.00    +0.000 HD
BRANCH  19  21
ATOM     21  C   UNL     1       6.225   4.494  17.343  0.00  0.00    +0.000 A 
ATOM     22  C   UNL     1       5.454   3.842  16.386  0.00  0.00    +0.000 A 
ATOM     23  C   UNL     1       5.677   4.111  15.037  0.00  0.00    +0.000 A 
ATOM     24  C   UNL     1       6.683   4.999  14.690  0.00  0.00    +0.000 A 
ATOM     25  N   UNL     1       7.473   5.620  15.589  0.00  0.00    +0.000 NA
ATOM     26  C   UNL     1       7.238   5.341  16.890  0.00  0.00    +0.000 A 
ENDBRANCH  19  21
ENDBRANCH  17  19
ENDBRANCH   3  17
TORSDOF 7
ENDMDL
MODEL 2
REMARK VINA RESULT:      -7.3      1.096      1.775
REMARK  Name = 
REMARK  8 active torsions:
REMARK  status: ('A' for Active; 'I' for Inactive)
REMARK    1  A    between atoms: C_1  and  C_2
REMARK    2  A    between atoms: C_2  and  O_3
REMARK    3  A    between atoms: O_3  and  C_4
REMARK    4  A    between atoms: C_7  and  C_8
REMARK    5  A    between atoms: N_10  and  C_11
REMARK    6  A    between atoms: C_11  and  N_13
REMARK    7  A    between atoms: N_13  and  C_14
REMARK    8  A    between atoms: C_21  and  N_22
REMARK                            x       y       z     vdW  Elec       q    Type
REMARK                         _______ _______ _______ _____ _____    ______ ____
ROOT
ATOM      1  C   UNL     1       2.838   5.437  18.755  0.00  0.00    +0.000 C 
ATOM      2  O   UNL     1       2.150   4.694  18.065  0.00  0.00    +0.000 OA
ATOM      3  N   UNL     1       3.996   5.062  19.415  0.00  0.00    +0.000 N 
ATOM      4  H   UNL     1       4.365   5.705  20.102  0.00  0.00    +0.000 HD
ENDROOT
BRANCH   1   8
ATOM      5  C   UNL     1       1.326   9.418  19.438  0.00  0.00    +0.000 A 
ATOM      6  C   UNL     1       1.871   9.031  18.213  0.00  0.00    +0.000 A 
ATOM      7  C   UNL     1       2.346   7.732  18.025  0.00  0.00    +0.000 A 
ATOM      8  C   UNL     1       2.317   6.795  19.066  0.00  0.00    +0.000 A 
ATOM      9  C   UNL     1       1.823   7.174  20.319  0.00  0.00    +0.000 A 
ATOM     10  C   UNL     1       1.349   8.489  20.484  0.00  0.00    +0.000 A 
BRANCH  10  11
ATOM     11  N   UNL     1       0.837   8.862  21.795  0.00  0.00    +0.000 N 
ATOM     12  O   UNL     1      -0.364   8.680  22.019  0.00  0.00    +0.000 OA
ATOM     13  O   UNL     1       1.644   9.412  22.563  0.00  0.00    +0.000 OA
ENDBRANCH  10  11
BRANCH   5  14
ATOM     14  O   UNL     1       0.762  10.646  19.647  0.00  0.00    +0.000 OA
BRANCH  14  16
ATOM     15  C   UNL     1       1.165  13.010  19.609  0.00  0.00    +0.000 C 
ATOM     16  C   UNL     1       1.286  11.711  18.845  0.00  0.00    +0.000 C 
ENDBRANCH  14  16
ENDBRANCH   5  14
ENDBRANCH   1   8
BRANCH   3  17
ATOM     17  C   UNL     1       4.709   3.874  19.324  0.00  0.00    +0.000 C 
ATOM     18  S   UNL     1       4.263   2.374  19.892  0.00  0.00    +0.000 S 
BRANCH  17  19
ATOM     19  N   UNL     1       5.879   3.995  18.603  0.00  0.00    +0.000 N 
ATOM     20  H   UNL     1       6.472   3.168  18.586  0.00  0.00    +0.000 HD
BRANCH  19  21
ATOM     21  C   UNL     1       6.484   5.209  18.217  0.00  0.00    +0.000 A 
ATOM     22  C   UNL     1       7.472   5.757  19.028  0.00  0.00    +0.000 A 
ATOM     23  C   UNL     1       8.090   6.945  18.638  0.00  0.00    +0.000 A 
ATOM     24  C   UNL     1       7.678   7.558  17.466  0.00  0.00    +0.000 A 
ATOM     25  N   UNL     1       6.699   7.075  16.675  0.00  0.00    +0.000 NA
ATOM     26  C   UNL     1       6.115   5.924  17.076  0.00  0.00    +0.000 A 
ENDBRANCH  19  21
ENDBRANCH  17  19
ENDBRANCH   3  17
TORSDOF 7
ENDMDL
MODEL 3
REMARK VINA RESULT:      -7.3      1.337      1.353
REMARK  Name = 
REMARK  8 active torsions:
REMARK  status: ('A' for Active; 'I' for Inactive)
REMARK    1  A    between atoms: C_1  and  C_2
REMARK    2  A    between atoms: C_2  and  O_3
REMARK    3  A    between atoms: O_3  and  C_4
REMARK    4  A    between atoms: C_7  and  C_8
REMARK    5  A    between atoms: N_10  and  C_11
REMARK    6  A    between atoms: C_11  and  N_13
REMARK    7  A    between atoms: N_13  and  C_14
REMARK    8  A    between atoms: C_21  and  N_22
REMARK                            x       y       z     vdW  Elec       q    Type
REMARK                         _______ _______ _______ _____ _____    ______ ____
ROOT
ATOM      1  C   UNL     1       2.921   5.460  19.507  0.00  0.00    +0.000 C 
ATOM      2  O   UNL     1       2.944   4.933  20.613  0.00  0.00    +0.000 OA
ATOM      3  N   UNL     1       3.533   4.954  18.372  0.00  0.00    +0.000 N 
ATOM      4  H   UNL     1       3.607   5.569  17.574  0.00  0.00    +0.000 HD
ENDROOT
BRANCH   1   8
ATOM      5  C   UNL     1       1.287   9.411  18.942  0.00  0.00    +0.000 A 
ATOM      6  C   UNL     1       1.932   8.720  17.914  0.00  0.00    +0.000 A 
ATOM      7  C   UNL     1       2.445   7.441  18.131  0.00  0.00    +0.000 A 
ATOM      8  C   UNL     1       2.353   6.829  19.389  0.00  0.00    +0.000 A 
ATOM      9  C   UNL     1       1.757   7.522  20.447  0.00  0.00    +0.000 A 
ATOM     10  C   UNL     1       1.247   8.811  20.205  0.00  0.00    +0.000 A 
BRANCH  10  11
ATOM     11  N   UNL     1       0.629   9.514  21.320  0.00  0.00    +0.000 N 
ATOM     12  O   UNL     1       1.299  10.370  21.907  0.00  0.00    +0.000 OA
ATOM     13  O   UNL     1      -0.510   9.135  21.644  0.00  0.00    +0.000 OA
ENDBRANCH  10  11
BRANCH   5  14
ATOM     14  O   UNL     1       0.687  10.626  18.759  0.00  0.00    +0.000 OA
BRANCH  14  16
ATOM     15  C   UNL     1      -1.391  11.822  18.687  0.00  0.00    +0.000 C 
ATOM     16  C   UNL     1      -0.646  10.585  18.236  0.00  0.00    +0.000 C 
ENDBRANCH  14  16
ENDBRANCH   5  14
ENDBRANCH   1   8
BRANCH   3  17
ATOM     17  C   UNL     1       4.140   3.719  18.183  0.00  0.00    +0.000 C 
ATOM     18  S   UNL     1       3.417   2.221  18.171  0.00  0.00    +0.000 S 
BRANCH  17  19
ATOM     19  N   UNL     1       5.488   3.813  17.900  0.00  0.00    +0.000 N 
ATOM     20  H   UNL     1       6.105   3.856  18.708  0.00  0.00    +0.000 HD
BRANCH  19  21
ATOM     21  C   UNL     1       6.042   4.213  16.666  0.00  0.00    +0.000 A 
ATOM     22  C   UNL     1       5.590   3.609  15.497  0.00  0.00    +0.000 A 
ATOM     23  C   UNL     1       6.117   4.019  14.273  0.00  0.00    +0.000 A 
ATOM     24  C   UNL     1       7.099   4.996  14.263  0.00  0.00    +0.000 A 
ATOM     25  N   UNL     1       7.587   5.577  15.378  0.00  0.00    +0.000 NA
ATOM     26  C   UNL     1       7.061   5.161  16.551  0.00  0.00    +0.000 A 
ENDBRANCH  19  21
ENDBRANCH  17  19
ENDBRANCH   3  17
TORSDOF 7
ENDMDL
MODEL 4
REMARK VINA RESULT:      -7.2      2.343      3.787
REMARK  Name = 
REMARK  8 active torsions:
REMARK  status: ('A' for Active; 'I' for Inactive)
REMARK    1  A    between atoms: C_1  and  C_2
REMARK    2  A    between atoms: C_2  and  O_3
REMARK    3  A    between atoms: O_3  and  C_4
REMARK    4  A    between atoms: C_7  and  C_8
REMARK    5  A    between atoms: N_10  and  C_11
REMARK    6  A    between atoms: C_11  and  N_13
REMARK    7  A    between atoms: N_13  and  C_14
REMARK    8  A    between atoms: C_21  and  N_22
REMARK                            x       y       z     vdW  Elec       q    Type
REMARK                         _______ _______ _______ _____ _____    ______ ____
ROOT
ATOM      1  C   UNL     1       3.434   6.105  18.789  0.00  0.00    +0.000 C 
ATOM      2  O   UNL     1       4.409   5.960  19.517  0.00  0.00    +0.000 OA
ATOM      3  N   UNL     1       3.149   5.328  17.679  0.00  0.00    +0.000 N 
ATOM      4  H   UNL     1       2.431   5.662  17.052  0.00  0.00    +0.000 HD
ENDROOT
BRANCH   1   8
ATOM      5  C   UNL     1       0.944   9.609  19.137  0.00  0.00    +0.000 A 
ATOM      6  C   UNL     1       1.613   9.288  17.954  0.00  0.00    +0.000 A 
ATOM      7  C   UNL     1       2.407   8.143  17.876  0.00  0.00    +0.000 A 
ATOM      8  C   UNL     1       2.577   7.304  18.985  0.00  0.00    +0.000 A 
ATOM      9  C   UNL     1       1.959   7.633  20.196  0.00  0.00    +0.000 A 
ATOM     10  C   UNL     1       1.163   8.792  20.251  0.00  0.00    +0.000 A 
BRANCH  10  11
ATOM     11  N   UNL     1       0.526   9.114  21.520  0.00  0.00    +0.000 N 
ATOM     12  O   UNL     1       1.125   9.869  22.293  0.00  0.00    +0.000 OA
ATOM     13  O   UNL     1      -0.548   8.534  21.758  0.00  0.00    +0.000 OA
ENDBRANCH  10  11
BRANCH   5  14
ATOM     14  O   UNL     1       0.082  10.665  19.241  0.00  0.00    +0.000 OA
BRANCH  14  16
ATOM     15  C   UNL     1      -1.824  11.908  18.483  0.00  0.00    +0.000 C 
ATOM     16  C   UNL     1      -1.098  10.583  18.433  0.00  0.00    +0.000 C 
ENDBRANCH  14  16
ENDBRANCH   5  14
ENDBRANCH   1   8
BRANCH   3  17
ATOM     17  C   UNL     1       3.768   4.162  17.245  0.00  0.00    +0.000 C 
ATOM     18  S   UNL     1       5.076   4.022  16.226  0.00  0.00    +0.000 S 
BRANCH  17  19
ATOM     19  N   UNL     1       3.243   3.022  17.819  0.00  0.00    +0.000 N 
ATOM     20  H   UNL     1       2.969   2.288  17.170  0.00  0.00    +0.000 HD
BRANCH  19  21
ATOM     21  C   UNL     1       2.726   2.925  19.129  0.00  0.00    +0.000 A 
ATOM     22  C   UNL     1       1.380   3.197  19.344  0.00  0.00    +0.000 A 
ATOM     23  C   UNL     1       0.860   3.079  20.632  0.00  0.00    +0.000 A 
ATOM     24  C   UNL     1       1.711   2.720  21.665  0.00  0.00    +0.000 A 
ATOM     25  N   UNL     1       3.028   2.485  21.500  0.00  0.00    +0.000 NA
ATOM     26  C   UNL     1       3.507   2.608  20.242  0.00  0.00    +0.000 A 
ENDBRANCH  19  21
ENDBRANCH  17  19
ENDBRANCH   3  17
TORSDOF 7
ENDMDL
MODEL 5
REMARK VINA RESULT:      -7.1      2.318      3.367
REMARK  Name = 
REMARK  8 active torsions:
REMARK  status: ('A' for Active; 'I' for Inactive)
REMARK    1  A    between atoms: C_1  and  C_2
REMARK    2  A    between atoms: C_2  and  O_3
REMARK    3  A    between atoms: O_3  and  C_4
REMARK    4  A    between atoms: C_7  and  C_8
REMARK    5  A    between atoms: N_10  and  C_11
REMARK    6  A    between atoms: C_11  and  N_13
REMARK    7  A    between atoms: N_13  and  C_14
REMARK    8  A    between atoms: C_21  and  N_22
REMARK                            x       y       z     vdW  Elec       q    Type
REMARK                         _______ _______ _______ _____ _____    ______ ____
ROOT
ATOM      1  C   UNL     1       2.333   7.810  18.409  0.00  0.00    +0.000 C 
ATOM      2  O   UNL     1       2.623   8.303  17.325  0.00  0.00    +0.000 OA
ATOM      3  N   UNL     1       2.388   6.459  18.709  0.00  0.00    +0.000 N 
ATOM      4  H   UNL     1       1.945   6.157  19.565  0.00  0.00    +0.000 HD
ENDROOT
BRANCH   1   8
ATOM      5  C   UNL     1       0.589  10.204  21.544  0.00  0.00    +0.000 A 
ATOM      6  C   UNL     1       1.043   8.903  21.769  0.00  0.00    +0.000 A 
ATOM      7  C   UNL     1       1.607   8.158  20.732  0.00  0.00    +0.000 A 
ATOM      8  C   UNL     1       1.705   8.683  19.436  0.00  0.00    +0.000 A 
ATOM      9  C   UNL     1       1.209   9.965  19.175  0.00  0.00    +0.000 A 
ATOM     10  C   UNL     1       0.644  10.697  20.236  0.00  0.00    +0.000 A 
BRANCH  10  11
ATOM     11  N   UNL     1       0.137  12.029  19.944  0.00  0.00    +0.000 N 
ATOM     12  O   UNL     1       0.923  12.979  20.029  0.00  0.00    +0.000 OA
ATOM     13  O   UNL     1      -1.080  12.113  19.704  0.00  0.00    +0.000 OA
ENDBRANCH  10  11
BRANCH   5  14
ATOM     14  O   UNL     1       0.114  11.008  22.543  0.00  0.00    +0.000 OA
BRANCH  14  16
ATOM     15  C   UNL     1      -2.086  11.770  23.123  0.00  0.00    +0.000 C 
ATOM     16  C   UNL     1      -1.128  10.599  23.129  0.00  0.00    +0.000 C 
ENDBRANCH  14  16
ENDBRANCH   5  14
ENDBRANCH   1   8
BRANCH   3  17
ATOM     17  C   UNL     1       2.914   5.418  17.956  0.00  0.00    +0.000 C 
ATOM     18  S   UNL     1       2.260   3.907  17.711  0.00  0.00    +0.000 S 
BRANCH  17  19
ATOM     19  N   UNL     1       4.078   5.757  17.296  0.00  0.00    +0.000 N 
ATOM     20  H   UNL     1       4.053   5.658  16.283  0.00  0.00    +0.000 HD
BRANCH  19  21
ATOM     21  C   UNL     1       5.355   5.864  17.885  0.00  0.00    +0.000 A 
ATOM     22  C   UNL     1       6.321   6.646  17.261  0.00  0.00    +0.000 A 
ATOM     23  C   UNL     1       7.577   6.775  17.853  0.00  0.00    +0.000 A 
ATOM     24  C   UNL     1       7.832   6.094  19.033  0.00  0.00    +0.000 A 
ATOM     25  N   UNL     1       6.932   5.299  19.646  0.00  0.00    +0.000 NA
ATOM     26  C   UNL     1       5.724   5.190  19.051  0.00  0.00    +0.000 A 
ENDBRANCH  19  21
ENDBRANCH  17  19
ENDBRANCH   3  17
TORSDOF 7
ENDMDL
MODEL 6
REMARK VINA RESULT:      -7.1      3.661      8.070
REMARK  Name = 
REMARK  8 active torsions:
REMARK  status: ('A' for Active; 'I' for Inactive)
REMARK    1  A    between atoms: C_1  and  C_2
REMARK    2  A    between atoms: C_2  and  O_3
REMARK    3  A    between atoms: O_3  and  C_4
REMARK    4  A    between atoms: C_7  and  C_8
REMARK    5  A    between atoms: N_10  and  C_11
REMARK    6  A    between atoms: C_11  and  N_13
REMARK    7  A    between atoms: N_13  and  C_14
REMARK    8  A    between atoms: C_21  and  N_22
REMARK                            x       y       z     vdW  Elec       q    Type
REMARK                         _______ _______ _______ _____ _____    ______ ____
ROOT
ATOM      1  C   UNL     1       1.891   8.737  18.494  0.00  0.00    +0.000 C 
ATOM      2  O   UNL     1       2.283   9.163  17.414  0.00  0.00    +0.000 OA
ATOM      3  N   UNL     1       1.269   9.497  19.471  0.00  0.00    +0.000 N 
ATOM      4  H   UNL     1       1.168   9.082  20.386  0.00  0.00    +0.000 HD
ENDROOT
BRANCH   1   8
ATOM      5  C   UNL     1       2.792   4.718  19.773  0.00  0.00    +0.000 A 
ATOM      6  C   UNL     1       2.037   5.594  20.555  0.00  0.00    +0.000 A 
ATOM      7  C   UNL     1       1.760   6.887  20.108  0.00  0.00    +0.000 A 
ATOM      8  C   UNL     1       2.255   7.348  18.880  0.00  0.00    +0.000 A 
ATOM      9  C   UNL     1       3.057   6.506  18.103  0.00  0.00    +0.000 A 
ATOM     10  C   UNL     1       3.323   5.207  18.575  0.00  0.00    +0.000 A 
BRANCH  10  11
ATOM     11  N   UNL     1       4.157   4.346  17.749  0.00  0.00    +0.000 N 
ATOM     12  O   UNL     1       5.376   4.355  17.952  0.00  0.00    +0.000 OA
ATOM     13  O   UNL     1       3.576   3.723  16.844  0.00  0.00    +0.000 OA
ENDBRANCH  10  11
BRANCH   5  14
ATOM     14  O   UNL     1       3.015   3.415  20.121  0.00  0.00    +0.000 OA
BRANCH  14  16
ATOM     15  C   UNL     1       1.120   2.401  19.055  0.00  0.00    +0.000 C 
ATOM     16  C   UNL     1       1.841   2.630  20.364  0.00  0.00    +0.000 C 
ENDBRANCH  14  16
ENDBRANCH   5  14
ENDBRANCH   1   8
BRANCH   3  17
ATOM     17  C   UNL     1       0.815  10.808  19.401  0.00  0.00    +0.000 C 
ATOM     18  S   UNL     1       1.100  12.043  20.480  0.00  0.00    +0.000 S 
BRANCH  17  19
ATOM     19  N   UNL     1       0.115  11.081  18.243  0.00  0.00    +0.000 N 
ATOM     20  H   UNL     1       0.597  11.668  17.566  0.00  0.00    +0.000 HD
BRANCH  19  21
ATOM     21  C   UNL     1      -1.279  10.943  18.074  0.00  0.00    +0.000 A 
ATOM     22  C   UNL     1      -1.761   9.928  17.253  0.00  0.00    +0.000 A 
ATOM     23  C   UNL     1      -3.138   9.773  17.104  0.00  0.00    +0.000 A 
ATOM     24  C   UNL     1      -3.984  10.655  17.756  0.00  0.00    +0.000 A 
ATOM     25  N   UNL     1      -3.552  11.672  18.529  0.00  0.00    +0.000 NA
ATOM     26  C   UNL     1      -2.213  11.802  18.656  0.00  0.00    +0.000 A 
ENDBRANCH  19  21
ENDBRANCH  17  19
ENDBRANCH   3  17
TORSDOF 7
ENDMDL
MODEL 7
REMARK VINA RESULT:      -7.1      3.234      7.939
REMARK  Name = 
REMARK  8 active torsions:
REMARK  status: ('A' for Active; 'I' for Inactive)
REMARK    1  A    between atoms: C_1  and  C_2
REMARK    2  A    between atoms: C_2  and  O_3
REMARK    3  A    between atoms: O_3  and  C_4
REMARK    4  A    between atoms: C_7  and  C_8
REMARK    5  A    between atoms: N_10  and  C_11
REMARK    6  A    between atoms: C_11  and  N_13
REMARK    7  A    between atoms: N_13  and  C_14
REMARK    8  A    between atoms: C_21  and  N_22
REMARK                            x       y       z     vdW  Elec       q    Type
REMARK                         _______ _______ _______ _____ _____    ______ ____
ROOT
ATOM      1  C   UNL     1       2.077   8.631  18.209  0.00  0.00    +0.000 C 
ATOM      2  O   UNL     1       2.160   9.584  17.443  0.00  0.00    +0.000 OA
ATOM      3  N   UNL     1       1.472   8.661  19.454  0.00  0.00    +0.000 N 
ATOM      4  H   UNL     1       1.635   7.875  20.067  0.00  0.00    +0.000 HD
ENDROOT
BRANCH   1   8
ATOM      5  C   UNL     1       4.436   5.161  17.208  0.00  0.00    +0.000 A 
ATOM      6  C   UNL     1       4.857   6.458  16.906  0.00  0.00    +0.000 A 
ATOM      7  C   UNL     1       4.070   7.558  17.249  0.00  0.00    +0.000 A 
ATOM      8  C   UNL     1       2.828   7.391  17.876  0.00  0.00    +0.000 A 
ATOM      9  C   UNL     1       2.362   6.100  18.143  0.00  0.00    +0.000 A 
ATOM     10  C   UNL     1       3.172   5.005  17.788  0.00  0.00    +0.000 A 
BRANCH  10  11
ATOM     11  N   UNL     1       2.669   3.670  18.076  0.00  0.00    +0.000 N 
ATOM     12  O   UNL     1       2.028   3.090  17.193  0.00  0.00    +0.000 OA
ATOM     13  O   UNL     1       2.861   3.249  19.230  0.00  0.00    +0.000 OA
ENDBRANCH  10  11
BRANCH   5  14
ATOM     14  O   UNL     1       5.208   4.056  16.978  0.00  0.00    +0.000 OA
BRANCH  14  16
ATOM     15  C   UNL     1       6.115   3.868  14.766  0.00  0.00    +0.000 C 
ATOM     16  C   UNL     1       6.387   4.277  16.196  0.00  0.00    +0.000 C 
ENDBRANCH  14  16
ENDBRANCH   5  14
ENDBRANCH   1   8
BRANCH   3  17
ATOM     17  C   UNL     1       0.709   9.669  20.030  0.00  0.00    +0.000 C 
ATOM     18  S   UNL     1       0.375   9.894  21.645  0.00  0.00    +0.000 S 
BRANCH  17  19
ATOM     19  N   UNL     1       0.266  10.606  19.119  0.00  0.00    +0.000 N 
ATOM     20  H   UNL     1       0.857  11.427  19.011  0.00  0.00    +0.000 HD
BRANCH  19  21
ATOM     21  C   UNL     1      -1.050  10.709  18.621  0.00  0.00    +0.000 A 
ATOM     22  C   UNL     1      -1.432   9.904  17.554  0.00  0.00    +0.000 A 
ATOM     23  C   UNL     1      -2.739   9.985  17.075  0.00  0.00    +0.000 A 
ATOM     24  C   UNL     1      -3.609  10.890  17.661  0.00  0.00    +0.000 A 
ATOM     25  N   UNL     1      -3.263  11.712  18.672  0.00  0.00    +0.000 NA
ATOM     26  C   UNL     1      -1.990  11.615  19.116  0.00  0.00    +0.000 A 
ENDBRANCH  19  21
ENDBRANCH  17  19
ENDBRANCH   3  17
TORSDOF 7
ENDMDL
MODEL 8
REMARK VINA RESULT:      -7.1      3.637      8.176
REMARK  Name = 
REMARK  8 active torsions:
REMARK  status: ('A' for Active; 'I' for Inactive)
REMARK    1  A    between atoms: C_1  and  C_2
REMARK    2  A    between atoms: C_2  and  O_3
REMARK    3  A    between atoms: O_3  and  C_4
REMARK    4  A    between atoms: C_7  and  C_8
REMARK    5  A    between atoms: N_10  and  C_11
REMARK    6  A    between atoms: C_11  and  N_13
REMARK    7  A    between atoms: N_13  and  C_14
REMARK    8  A    between atoms: C_21  and  N_22
REMARK                            x       y       z     vdW  Elec       q    Type
REMARK                         _______ _______ _______ _____ _____    ______ ____
ROOT
ATOM      1  C   UNL     1       1.958   8.746  18.355  0.00  0.00    +0.000 C 
ATOM      2  O   UNL     1       2.138   9.350  17.304  0.00  0.00    +0.000 OA
ATOM      3  N   UNL     1       1.316   9.261  19.469  0.00  0.00    +0.000 N 
ATOM      4  H   UNL     1       1.399   8.743  20.332  0.00  0.00    +0.000 HD
ENDROOT
BRANCH   1   8
ATOM      5  C   UNL     1       3.732   4.873  19.031  0.00  0.00    +0.000 A 
ATOM      6  C   UNL     1       2.799   5.426  19.910  0.00  0.00    +0.000 A 
ATOM      7  C   UNL     1       2.241   6.680  19.658  0.00  0.00    +0.000 A 
ATOM      8  C   UNL     1       2.624   7.428  18.536  0.00  0.00    +0.000 A 
ATOM      9  C   UNL     1       3.595   6.918  17.669  0.00  0.00    +0.000 A 
ATOM     10  C   UNL     1       4.144   5.651  17.944  0.00  0.00    +0.000 A 
BRANCH  10  11
ATOM     11  N   UNL     1       5.151   5.138  17.027  0.00  0.00    +0.000 N 
ATOM     12  O   UNL     1       4.770   4.437  16.083  0.00  0.00    +0.000 OA
ATOM     13  O   UNL     1       6.334   5.385  17.317  0.00  0.00    +0.000 OA
ENDBRANCH  10  11
BRANCH   5  14
ATOM     14  O   UNL     1       4.240   3.613  19.182  0.00  0.00    +0.000 OA
BRANCH  14  16
ATOM     15  C   UNL     1       2.769   2.184  17.937  0.00  0.00    +0.000 C 
ATOM     16  C   UNL     1       3.270   2.567  19.312  0.00  0.00    +0.000 C 
ENDBRANCH  14  16
ENDBRANCH   5  14
ENDBRANCH   1   8
BRANCH   3  17
ATOM     17  C   UNL     1       0.614  10.452  19.599  0.00  0.00    +0.000 C 
ATOM     18  S   UNL     1       0.474  11.408  20.955  0.00  0.00    +0.000 S 
BRANCH  17  19
ATOM     19  N   UNL     1       0.050  10.885  18.416  0.00  0.00    +0.000 N 
ATOM     20  H   UNL     1       0.621  11.521  17.864  0.00  0.00    +0.000 HD
BRANCH  19  21
ATOM     21  C   UNL     1      -1.322  10.831  18.092  0.00  0.00    +0.000 A 
ATOM     22  C   UNL     1      -1.764   9.871  17.188  0.00  0.00    +0.000 A 
ATOM     23  C   UNL     1      -3.123   9.798  16.885  0.00  0.00    +0.000 A 
ATOM     24  C   UNL     1      -3.988  10.707  17.473  0.00  0.00    +0.000 A 
ATOM     25  N   UNL     1      -3.590  11.674  18.324  0.00  0.00    +0.000 NA
ATOM     26  C   UNL     1      -2.268  11.724  18.600  0.00  0.00    +0.000 A 
ENDBRANCH  19  21
ENDBRANCH  17  19
ENDBRANCH   3  17
TORSDOF 7
ENDMDL
MODEL 9
REMARK VINA RESULT:      -7.0      1.660      2.027
REMARK  Name = 
REMARK  8 active torsions:
REMARK  status: ('A' for Active; 'I' for Inactive)
REMARK    1  A    between atoms: C_1  and  C_2
REMARK    2  A    between atoms: C_2  and  O_3
REMARK    3  A    between atoms: O_3  and  C_4
REMARK    4  A    between atoms: C_7  and  C_8
REMARK    5  A    between atoms: N_10  and  C_11
REMARK    6  A    between atoms: C_11  and  N_13
REMARK    7  A    between atoms: N_13  and  C_14
REMARK    8  A    between atoms: C_21  and  N_22
REMARK                            x       y       z     vdW  Elec       q    Type
REMARK                         _______ _______ _______ _____ _____    ______ ____
ROOT
ATOM      1  C   UNL     1       2.891   5.595  19.278  0.00  0.00    +0.000 C 
ATOM      2  O   UNL     1       3.212   4.988  20.293  0.00  0.00    +0.000 OA
ATOM      3  N   UNL     1       3.212   5.211  17.987  0.00  0.00    +0.000 N 
ATOM      4  H   UNL     1       3.061   5.888  17.252  0.00  0.00    +0.000 HD
ENDROOT
BRANCH   1   8
ATOM      5  C   UNL     1       1.078   9.503  19.482  0.00  0.00    +0.000 A 
ATOM      6  C   UNL     1       1.687   9.027  18.319  0.00  0.00    +0.000 A 
ATOM      7  C   UNL     1       2.260   7.755  18.288  0.00  0.00    +0.000 A 
ATOM      8  C   UNL     1       2.265   6.936  19.425  0.00  0.00    +0.000 A 
ATOM      9  C   UNL     1       1.708   7.412  20.616  0.00  0.00    +0.000 A 
ATOM     10  C   UNL     1       1.136   8.698  20.625  0.00  0.00    +0.000 A 
BRANCH  10  11
ATOM     11  N   UNL     1       0.558   9.172  21.874  0.00  0.00    +0.000 N 
ATOM     12  O   UNL     1       1.275   9.842  22.625  0.00  0.00    +0.000 OA
ATOM     13  O   UNL     1      -0.600   8.795  22.122  0.00  0.00    +0.000 OA
ENDBRANCH  10  11
BRANCH   5  14
ATOM     14  O   UNL     1       0.422  10.702  19.541  0.00  0.00    +0.000 OA
BRANCH  14  16
ATOM     15  C   UNL     1      -1.098  12.112  18.336  0.00  0.00    +0.000 C 
ATOM     16  C   UNL     1      -0.865  10.734  18.915  0.00  0.00    +0.000 C 
ENDBRANCH  14  16
ENDBRANCH   5  14
ENDBRANCH   1   8
BRANCH   3  17
ATOM     17  C   UNL     1       3.793   4.030  17.545  0.00  0.00    +0.000 C 
ATOM     18  S   UNL     1       3.138   2.500  17.574  0.00  0.00    +0.000 S 
BRANCH  17  19
ATOM     19  N   UNL     1       5.026   4.217  16.954  0.00  0.00    +0.000 N 
ATOM     20  H   UNL     1       5.372   3.436  16.401  0.00  0.00    +0.000 HD
BRANCH  19  21
ATOM     21  C   UNL     1       5.976   5.191  17.326  0.00  0.00    +0.000 A 
ATOM     22  C   UNL     1       6.715   5.002  18.490  0.00  0.00    +0.000 A 
ATOM     23  C   UNL     1       7.672   5.950  18.848  0.00  0.00    +0.000 A 
ATOM     24  C   UNL     1       7.836   7.069  18.047  0.00  0.00    +0.000 A 
ATOM     25  N   UNL     1       7.113   7.303  16.934  0.00  0.00    +0.000 NA
ATOM     26  C   UNL     1       6.191   6.370  16.609  0.00  0.00    +0.000 A 
ENDBRANCH  19  21
ENDBRANCH  17  19
ENDBRANCH   3  17
TORSDOF 7
ENDMDL
