MODEL 1
REMARK VINA RESULT:      -9.6      0.000      0.000
REMARK  Name = 
REMARK  4 active torsions:
REMARK  status: ('A' for Active; 'I' for Inactive)
REMARK    1  A    between atoms: C_1  and  O_2
REMARK    2  A    between atoms: O_2  and  C_3
REMARK    3  A    between atoms: C_10  and  C_11
REMARK    4  A    between atoms: C_16  and  C_17
REMARK                            x       y       z     vdW  Elec       q    Type
REMARK                         _______ _______ _______ _____ _____    ______ ____
ROOT
ATOM      1  C   UNL     1       2.792   4.965  18.903  0.00  0.00    +0.000 A 
ATOM      2  N   UNL     1       2.806   5.943  18.017  0.00  0.00    +0.000 NA
ATOM      3  C   UNL     1       2.258   7.032  18.658  0.00  0.00    +0.000 A 
ATOM      4  C   UNL     1       2.037   8.339  18.210  0.00  0.00    +0.000 A 
ATOM      5  C   UNL     1       1.442   9.264  19.093  0.00  0.00    +0.000 A 
ATOM      6  C   UNL     1       1.055   8.921  20.406  0.00  0.00    +0.000 A 
ATOM      7  C   UNL     1       1.306   7.607  20.848  0.00  0.00    +0.000 A 
ATOM      8  C   UNL     1       1.890   6.711  19.954  0.00  0.00    +0.000 A 
ATOM      9  N   UNL     1       2.230   5.397  20.081  0.00  0.00    +0.000 N 
ATOM     10  H   UNL     1       2.105   4.837  20.913  0.00  0.00    +0.000 HD
ENDROOT
BRANCH   1  18
ATOM     11  C   UNL     1       6.661   4.889  15.406  0.00  0.00    +0.000 A 
ATOM     12  C   UNL     1       7.440   5.353  16.466  0.00  0.00    +0.000 A 
ATOM     13  C   UNL     1       7.083   5.049  17.780  0.00  0.00    +0.000 A 
ATOM     14  C   UNL     1       5.934   4.308  18.041  0.00  0.00    +0.000 A 
ATOM     15  C   UNL     1       5.087   3.933  16.994  0.00  0.00    +0.000 A 
ATOM     16  C   UNL     1       5.479   4.195  15.674  0.00  0.00    +0.000 A 
ATOM     17  C   UNL     1       3.754   3.292  17.277  0.00  0.00    +0.000 C 
ATOM     18  C   UNL     1       3.316   3.559  18.721  0.00  0.00    +0.000 C 
ATOM     19  C   UNL     1       4.512   3.257  19.630  0.00  0.00    +0.000 C 
ATOM     20  O   UNL     1       5.654   4.092  19.364  0.00  0.00    +0.000 OA
BRANCH  11  22
ATOM     21  C   UNL     1       6.488   4.080  13.195  0.00  0.00    +0.000 C 
ATOM     22  O   UNL     1       6.931   5.103  14.082  0.00  0.00    +0.000 OA
ENDBRANCH  11  22
ENDBRANCH   1  18
BRANCH   6  23
ATOM     23  C   UNL     1       0.391   9.883  21.316  0.00  0.00    +0.000 A 
ATOM     24  C   UNL     1      -0.257   9.494  22.469  0.00  0.00    +0.000 A 
ATOM     25  C   UNL     1      -0.799  10.500  23.231  0.00  0.00    +0.000 A 
ATOM     26  N   UNL     1      -0.716  11.803  22.912  0.00  0.00    +0.000 NA
ATOM     27  C   UNL     1      -0.044  12.093  21.795  0.00  0.00    +0.000 A 
ATOM     28  N   UNL     1       0.069  13.424  21.453  0.00  0.00    +0.000 N 
ATOM     29  N   UNL     1       0.496  11.192  20.974  0.00  0.00    +0.000 NA
ATOM     30  H   UNL     1      -0.684  13.946  21.877  0.00  0.00    +0.000 HD
ATOM     31  H   UNL     1       0.191  13.510  20.453  0.00  0.00    +0.000 HD
ENDBRANCH   6  23
TORSDOF 3
ENDMDL
MODEL 2
REMARK VINA RESULT:      -9.3      0.720      1.262
REMARK  Name = 
REMARK  4 active torsions:
REMARK  status: ('A' for Active; 'I' for Inactive)
REMARK    1  A    between atoms: C_1  and  O_2
REMARK    2  A    between atoms: O_2  and  C_3
REMARK    3  A    between atoms: C_10  and  C_11
REMARK    4  A    between atoms: C_16  and  C_17
REMARK                            x       y       z     vdW  Elec       q    Type
REMARK                         _______ _______ _______ _____ _____    ______ ____
ROOT
ATOM      1  C   UNL     1       2.917   5.214  18.804  0.00  0.00    +0.000 A 
ATOM      2  N   UNL     1       2.843   6.056  17.789  0.00  0.00    +0.000 NA
ATOM      3  C   UNL     1       2.362   7.233  18.319  0.00  0.00    +0.000 A 
ATOM      4  C   UNL     1       2.096   8.466  17.713  0.00  0.00    +0.000 A 
ATOM      5  C   UNL     1       1.593   9.515  18.508  0.00  0.00    +0.000 A 
ATOM      6  C   UNL     1       1.339   9.368  19.889  0.00  0.00    +0.000 A 
ATOM      7  C   UNL     1       1.633   8.128  20.487  0.00  0.00    +0.000 A 
ATOM      8  C   UNL     1       2.125   7.105  19.678  0.00  0.00    +0.000 A 
ATOM      9  N   UNL     1       2.476   5.818  19.957  0.00  0.00    +0.000 N 
ATOM     10  H   UNL     1       2.435   5.384  20.869  0.00  0.00    +0.000 HD
ENDROOT
BRANCH   1  18
ATOM     11  C   UNL     1       6.622   4.654  15.174  0.00  0.00    +0.000 A 
ATOM     12  C   UNL     1       7.452   5.234  16.133  0.00  0.00    +0.000 A 
ATOM     13  C   UNL     1       7.154   5.100  17.489  0.00  0.00    +0.000 A 
ATOM     14  C   UNL     1       6.011   4.412  17.890  0.00  0.00    +0.000 A 
ATOM     15  C   UNL     1       5.114   3.923  16.937  0.00  0.00    +0.000 A 
ATOM     16  C   UNL     1       5.447   4.015  15.579  0.00  0.00    +0.000 A 
ATOM     17  C   UNL     1       3.790   3.340  17.356  0.00  0.00    +0.000 C 
ATOM     18  C   UNL     1       3.421   3.790  18.774  0.00  0.00    +0.000 C 
ATOM     19  C   UNL     1       4.655   3.586  19.659  0.00  0.00    +0.000 C 
ATOM     20  O   UNL     1       5.790   4.365  19.242  0.00  0.00    +0.000 OA
BRANCH  11  22
ATOM     21  C   UNL     1       6.177   3.684  13.069  0.00  0.00    +0.000 C 
ATOM     22  O   UNL     1       6.832   4.699  13.823  0.00  0.00    +0.000 OA
ENDBRANCH  11  22
ENDBRANCH   1  18
BRANCH   6  23
ATOM     23  C   UNL     1       0.769  10.460  20.713  0.00  0.00    +0.000 A 
ATOM     24  C   UNL     1       1.019  11.792  20.462  0.00  0.00    +0.000 A 
ATOM     25  C   UNL     1       0.398  12.694  21.290  0.00  0.00    +0.000 A 
ATOM     26  N   UNL     1      -0.423  12.340  22.294  0.00  0.00    +0.000 NA
ATOM     27  C   UNL     1      -0.634  11.031  22.447  0.00  0.00    +0.000 A 
ATOM     28  N   UNL     1      -1.485  10.641  23.460  0.00  0.00    +0.000 N 
ATOM     29  N   UNL     1      -0.061  10.076  21.716  0.00  0.00    +0.000 NA
ATOM     30  H   UNL     1      -1.519  11.362  24.167  0.00  0.00    +0.000 HD
ATOM     31  H   UNL     1      -1.251   9.705  23.761  0.00  0.00    +0.000 HD
ENDBRANCH   6  23
TORSDOF 3
ENDMDL
MODEL 3
REMARK VINA RESULT:      -9.1      1.772      2.490
REMARK  Name = 
REMARK  4 active torsions:
REMARK  status: ('A' for Active; 'I' for Inactive)
REMARK    1  A    between atoms: C_1  and  O_2
REMARK    2  A    between atoms: O_2  and  C_3
REMARK    3  A    between atoms: C_10  and  C_11
REMARK    4  A    between atoms: C_16  and  C_17
REMARK                            x       y       z     vdW  Elec       q    Type
REMARK                         _______ _______ _______ _____ _____    ______ ____
ROOT
ATOM      1  C   UNL     1       2.507   5.111  18.999  0.00  0.00    +0.000 A 
ATOM      2  N   UNL     1       2.151   5.505  20.208  0.00  0.00    +0.000 NA
ATOM      3  C   UNL     1       1.842   6.842  20.086  0.00  0.00    +0.000 A 
ATOM      4  C   UNL     1       1.394   7.766  21.036  0.00  0.00    +0.000 A 
ATOM      5  C   UNL     1       1.160   9.095  20.628  0.00  0.00    +0.000 A 
ATOM      6  C   UNL     1       1.367   9.531  19.301  0.00  0.00    +0.000 A 
ATOM      7  C   UNL     1       1.795   8.582  18.352  0.00  0.00    +0.000 A 
ATOM      8  C   UNL     1       2.025   7.276  18.783  0.00  0.00    +0.000 A 
ATOM      9  N   UNL     1       2.453   6.165  18.119  0.00  0.00    +0.000 N 
ATOM     10  H   UNL     1       2.678   6.121  17.135  0.00  0.00    +0.000 HD
ENDROOT
BRANCH   1  18
ATOM     11  C   UNL     1       6.845   5.249  16.106  0.00  0.00    +0.000 A 
ATOM     12  C   UNL     1       7.492   5.373  17.334  0.00  0.00    +0.000 A 
ATOM     13  C   UNL     1       6.907   4.853  18.488  0.00  0.00    +0.000 A 
ATOM     14  C   UNL     1       5.661   4.234  18.424  0.00  0.00    +0.000 A 
ATOM     15  C   UNL     1       4.954   4.202  17.220  0.00  0.00    +0.000 A 
ATOM     16  C   UNL     1       5.570   4.678  16.055  0.00  0.00    +0.000 A 
ATOM     17  C   UNL     1       3.534   3.700  17.176  0.00  0.00    +0.000 C 
ATOM     18  C   UNL     1       2.907   3.717  18.574  0.00  0.00    +0.000 C 
ATOM     19  C   UNL     1       3.910   3.075  19.539  0.00  0.00    +0.000 C 
ATOM     20  O   UNL     1       5.158   3.787  19.618  0.00  0.00    +0.000 OA
BRANCH  11  22
ATOM     21  C   UNL     1       7.109   4.838  13.796  0.00  0.00    +0.000 C 
ATOM     22  O   UNL     1       7.337   5.696  14.910  0.00  0.00    +0.000 OA
ENDBRANCH  11  22
ENDBRANCH   1  18
BRANCH   6  23
ATOM     23  C   UNL     1       1.161  10.937  18.885  0.00  0.00    +0.000 A 
ATOM     24  C   UNL     1      -0.074  11.551  18.913  0.00  0.00    +0.000 A 
ATOM     25  C   UNL     1      -0.107  12.868  18.528  0.00  0.00    +0.000 A 
ATOM     26  N   UNL     1       0.980  13.561  18.148  0.00  0.00    +0.000 NA
ATOM     27  C   UNL     1       2.140  12.899  18.180  0.00  0.00    +0.000 A 
ATOM     28  N   UNL     1       3.273  13.591  17.810  0.00  0.00    +0.000 N 
ATOM     29  N   UNL     1       2.276  11.616  18.512  0.00  0.00    +0.000 NA
ATOM     30  H   UNL     1       3.016  14.364  17.212  0.00  0.00    +0.000 HD
ATOM     31  H   UNL     1       3.969  12.945  17.462  0.00  0.00    +0.000 HD
ENDBRANCH   6  23
TORSDOF 3
ENDMDL
MODEL 4
REMARK VINA RESULT:      -9.0      1.547      2.449
REMARK  Name = 
REMARK  4 active torsions:
REMARK  status: ('A' for Active; 'I' for Inactive)
REMARK    1  A    between atoms: C_1  and  O_2
REMARK    2  A    between atoms: O_2  and  C_3
REMARK    3  A    between atoms: C_10  and  C_11
REMARK    4  A    between atoms: C_16  and  C_17
REMARK                            x       y       z     vdW  Elec       q    Type
REMARK                         _______ _______ _______ _____ _____    ______ ____
ROOT
ATOM      1  C   UNL     1       2.485   5.131  18.988  0.00  0.00    +0.000 A 
ATOM      2  N   UNL     1       2.109   5.512  20.195  0.00  0.00    +0.000 NA
ATOM      3  C   UNL     1       1.826   6.856  20.088  0.00  0.00    +0.000 A 
ATOM      4  C   UNL     1       1.374   7.772  21.045  0.00  0.00    +0.000 A 
ATOM      5  C   UNL     1       1.172   9.112  20.654  0.00  0.00    +0.000 A 
ATOM      6  C   UNL     1       1.416   9.565  19.339  0.00  0.00    +0.000 A 
ATOM      7  C   UNL     1       1.849   8.625  18.385  0.00  0.00    +0.000 A 
ATOM      8  C   UNL     1       2.046   7.308  18.798  0.00  0.00    +0.000 A 
ATOM      9  N   UNL     1       2.470   6.201  18.125  0.00  0.00    +0.000 N 
ATOM     10  H   UNL     1       2.716   6.169  17.145  0.00  0.00    +0.000 HD
ENDROOT
BRANCH   1  18
ATOM     11  C   UNL     1       6.845   5.249  16.126  0.00  0.00    +0.000 A 
ATOM     12  C   UNL     1       7.486   5.350  17.361  0.00  0.00    +0.000 A 
ATOM     13  C   UNL     1       6.885   4.823  18.505  0.00  0.00    +0.000 A 
ATOM     14  C   UNL     1       5.632   4.221  18.424  0.00  0.00    +0.000 A 
ATOM     15  C   UNL     1       4.933   4.213  17.214  0.00  0.00    +0.000 A 
ATOM     16  C   UNL     1       5.564   4.696  16.059  0.00  0.00    +0.000 A 
ATOM     17  C   UNL     1       3.507   3.730  17.154  0.00  0.00    +0.000 C 
ATOM     18  C   UNL     1       2.871   3.738  18.548  0.00  0.00    +0.000 C 
ATOM     19  C   UNL     1       3.858   3.071  19.511  0.00  0.00    +0.000 C 
ATOM     20  O   UNL     1       5.115   3.765  19.608  0.00  0.00    +0.000 OA
BRANCH  11  22
ATOM     21  C   UNL     1       7.121   4.864  13.814  0.00  0.00    +0.000 C 
ATOM     22  O   UNL     1       7.352   5.705  14.940  0.00  0.00    +0.000 OA
ENDBRANCH  11  22
ENDBRANCH   1  18
BRANCH   6  23
ATOM     23  C   UNL     1       1.244  10.982  18.943  0.00  0.00    +0.000 A 
ATOM     24  C   UNL     1       2.262  11.732  18.391  0.00  0.00    +0.000 A 
ATOM     25  C   UNL     1       1.948  13.022  18.044  0.00  0.00    +0.000 A 
ATOM     26  N   UNL     1       0.726  13.561  18.206  0.00  0.00    +0.000 NA
ATOM     27  C   UNL     1      -0.208  12.755  18.718  0.00  0.00    +0.000 A 
ATOM     28  N   UNL     1      -1.473  13.278  18.880  0.00  0.00    +0.000 N 
ATOM     29  N   UNL     1       0.000  11.499  19.110  0.00  0.00    +0.000 NA
ATOM     30  H   UNL     1      -1.416  14.284  18.948  0.00  0.00    +0.000 HD
ATOM     31  H   UNL     1      -1.952  12.787  19.622  0.00  0.00    +0.000 HD
ENDBRANCH   6  23
TORSDOF 3
ENDMDL
MODEL 5
REMARK VINA RESULT:      -8.7      1.122      1.255
REMARK  Name = 
REMARK  4 active torsions:
REMARK  status: ('A' for Active; 'I' for Inactive)
REMARK    1  A    between atoms: C_1  and  O_2
REMARK    2  A    between atoms: O_2  and  C_3
REMARK    3  A    between atoms: C_10  and  C_11
REMARK    4  A    between atoms: C_16  and  C_17
REMARK                            x       y       z     vdW  Elec       q    Type
REMARK                         _______ _______ _______ _____ _____    ______ ____
ROOT
ATOM      1  C   UNL     1       2.422   5.947  18.920  0.00  0.00    +0.000 A 
ATOM      2  N   UNL     1       2.404   6.823  17.932  0.00  0.00    +0.000 NA
ATOM      3  C   UNL     1       1.975   8.006  18.494  0.00  0.00    +0.000 A 
ATOM      4  C   UNL     1       1.780   9.269  17.924  0.00  0.00    +0.000 A 
ATOM      5  C   UNL     1       1.320  10.318  18.747  0.00  0.00    +0.000 A 
ATOM      6  C   UNL     1       1.041  10.140  20.120  0.00  0.00    +0.000 A 
ATOM      7  C   UNL     1       1.265   8.868  20.681  0.00  0.00    +0.000 A 
ATOM      8  C   UNL     1       1.715   7.848  19.845  0.00  0.00    +0.000 A 
ATOM      9  N   UNL     1       1.997   6.537  20.087  0.00  0.00    +0.000 N 
ATOM     10  H   UNL     1       1.923   6.077  20.984  0.00  0.00    +0.000 HD
ENDROOT
BRANCH   1  18
ATOM     11  C   UNL     1       6.920   5.499  16.317  0.00  0.00    +0.000 A 
ATOM     12  C   UNL     1       7.495   5.915  17.518  0.00  0.00    +0.000 A 
ATOM     13  C   UNL     1       6.846   5.662  18.726  0.00  0.00    +0.000 A 
ATOM     14  C   UNL     1       5.609   5.022  18.738  0.00  0.00    +0.000 A 
ATOM     15  C   UNL     1       4.973   4.701  17.536  0.00  0.00    +0.000 A 
ATOM     16  C   UNL     1       5.654   4.909  16.328  0.00  0.00    +0.000 A 
ATOM     17  C   UNL     1       3.561   4.176  17.530  0.00  0.00    +0.000 C 
ATOM     18  C   UNL     1       2.854   4.501  18.850  0.00  0.00    +0.000 C 
ATOM     19  C   UNL     1       3.803   4.117  19.990  0.00  0.00    +0.000 C 
ATOM     20  O   UNL     1       5.040   4.850  19.972  0.00  0.00    +0.000 OA
BRANCH  11  22
ATOM     21  C   UNL     1       6.967   4.821  14.056  0.00  0.00    +0.000 C 
ATOM     22  O   UNL     1       7.479   5.669  15.079  0.00  0.00    +0.000 OA
ENDBRANCH  11  22
ENDBRANCH   1  18
BRANCH   6  23
ATOM     23  C   UNL     1       0.517  11.233  20.972  0.00  0.00    +0.000 A 
ATOM     24  C   UNL     1      -0.499  11.045  21.886  0.00  0.00    +0.000 A 
ATOM     25  C   UNL     1      -0.860  12.142  22.628  0.00  0.00    +0.000 A 
ATOM     26  N   UNL     1      -0.275  13.346  22.509  0.00  0.00    +0.000 NA
ATOM     27  C   UNL     1       0.720  13.432  21.623  0.00  0.00    +0.000 A 
ATOM     28  N   UNL     1       1.347  14.653  21.493  0.00  0.00    +0.000 N 
ATOM     29  N   UNL     1       1.129  12.437  20.837  0.00  0.00    +0.000 NA
ATOM     30  H   UNL     1       0.724  15.386  21.799  0.00  0.00    +0.000 HD
ATOM     31  H   UNL     1       1.745  14.735  20.567  0.00  0.00    +0.000 HD
ENDBRANCH   6  23
TORSDOF 3
ENDMDL
MODEL 6
REMARK VINA RESULT:      -8.5      1.304      1.730
REMARK  Name = 
REMARK  4 active torsions:
REMARK  status: ('A' for Active; 'I' for Inactive)
REMARK    1  A    between atoms: C_1  and  O_2
REMARK    2  A    between atoms: O_2  and  C_3
REMARK    3  A    between atoms: C_10  and  C_11
REMARK    4  A    between atoms: C_16  and  C_17
REMARK                            x       y       z     vdW  Elec       q    Type
REMARK                         _______ _______ _______ _____ _____    ______ ____
ROOT
ATOM      1  C   UNL     1       3.585   5.769  19.064  0.00  0.00    +0.000 A 
ATOM      2  N   UNL     1       3.464   6.470  17.951  0.00  0.00    +0.000 NA
ATOM      3  C   UNL     1       2.652   7.536  18.271  0.00  0.00    +0.000 A 
ATOM      4  C   UNL     1       2.197   8.604  17.490  0.00  0.00    +0.000 A 
ATOM      5  C   UNL     1       1.355   9.565  18.085  0.00  0.00    +0.000 A 
ATOM      6  C   UNL     1       0.947   9.488  19.434  0.00  0.00    +0.000 A 
ATOM      7  C   UNL     1       1.432   8.419  20.212  0.00  0.00    +0.000 A 
ATOM      8  C   UNL     1       2.259   7.478  19.598  0.00  0.00    +0.000 A 
ATOM      9  N   UNL     1       2.855   6.350  20.074  0.00  0.00    +0.000 N 
ATOM     10  H   UNL     1       2.786   6.004  21.021  0.00  0.00    +0.000 HD
ENDROOT
BRANCH   1  18
ATOM     11  C   UNL     1       5.734   4.224  14.569  0.00  0.00    +0.000 A 
ATOM     12  C   UNL     1       6.667   5.226  14.833  0.00  0.00    +0.000 A 
ATOM     13  C   UNL     1       6.926   5.611  16.148  0.00  0.00    +0.000 A 
ATOM     14  C   UNL     1       6.234   5.018  17.201  0.00  0.00    +0.000 A 
ATOM     15  C   UNL     1       5.219   4.093  16.943  0.00  0.00    +0.000 A 
ATOM     16  C   UNL     1       5.001   3.672  15.623  0.00  0.00    +0.000 A 
ATOM     17  C   UNL     1       4.342   3.583  18.056  0.00  0.00    +0.000 C 
ATOM     18  C   UNL     1       4.405   4.517  19.270  0.00  0.00    +0.000 C 
ATOM     19  C   UNL     1       5.882   4.821  19.544  0.00  0.00    +0.000 C 
ATOM     20  O   UNL     1       6.537   5.490  18.451  0.00  0.00    +0.000 OA
BRANCH  11  22
ATOM     21  C   UNL     1       6.511   3.667  12.411  0.00  0.00    +0.000 C 
ATOM     22  O   UNL     1       5.422   3.749  13.325  0.00  0.00    +0.000 OA
ENDBRANCH  11  22
ENDBRANCH   1  18
BRANCH   6  23
ATOM     23  C   UNL     1       0.027  10.476  20.044  0.00  0.00    +0.000 A 
ATOM     24  C   UNL     1      -0.604  11.459  19.312  0.00  0.00    +0.000 A 
ATOM     25  C   UNL     1      -1.452  12.285  20.007  0.00  0.00    +0.000 A 
ATOM     26  N   UNL     1      -1.691  12.170  21.325  0.00  0.00    +0.000 NA
ATOM     27  C   UNL     1      -1.062  11.171  21.950  0.00  0.00    +0.000 A 
ATOM     28  N   UNL     1      -1.301  11.020  23.300  0.00  0.00    +0.000 N 
ATOM     29  N   UNL     1      -0.201  10.333  21.375  0.00  0.00    +0.000 NA
ATOM     30  H   UNL     1      -1.607  11.901  23.688  0.00  0.00    +0.000 HD
ATOM     31  H   UNL     1      -0.510  10.567  23.738  0.00  0.00    +0.000 HD
ENDBRANCH   6  23
TORSDOF 3
ENDMDL
MODEL 7
REMARK VINA RESULT:      -8.4      2.110      3.034
REMARK  Name = 
REMARK  4 active torsions:
REMARK  status: ('A' for Active; 'I' for Inactive)
REMARK    1  A    between atoms: C_1  and  O_2
REMARK    2  A    between atoms: O_2  and  C_3
REMARK    3  A    between atoms: C_10  and  C_11
REMARK    4  A    between atoms: C_16  and  C_17
REMARK                            x       y       z     vdW  Elec       q    Type
REMARK                         _______ _______ _______ _____ _____    ______ ____
ROOT
ATOM      1  C   UNL     1       3.586   5.813  17.931  0.00  0.00    +0.000 A 
ATOM      2  N   UNL     1       3.003   5.081  18.863  0.00  0.00    +0.000 NA
ATOM      3  C   UNL     1       2.281   5.967  19.632  0.00  0.00    +0.000 A 
ATOM      4  C   UNL     1       1.461   5.751  20.745  0.00  0.00    +0.000 A 
ATOM      5  C   UNL     1       0.839   6.862  21.351  0.00  0.00    +0.000 A 
ATOM      6  C   UNL     1       1.018   8.183  20.883  0.00  0.00    +0.000 A 
ATOM      7  C   UNL     1       1.828   8.378  19.747  0.00  0.00    +0.000 A 
ATOM      8  C   UNL     1       2.435   7.263  19.171  0.00  0.00    +0.000 A 
ATOM      9  N   UNL     1       3.271   7.139  18.101  0.00  0.00    +0.000 N 
ATOM     10  H   UNL     1       3.592   7.899  17.517  0.00  0.00    +0.000 HD
ENDROOT
BRANCH   1  18
ATOM     11  C   UNL     1       8.221   8.202  18.055  0.00  0.00    +0.000 A 
ATOM     12  C   UNL     1       8.510   7.285  19.065  0.00  0.00    +0.000 A 
ATOM     13  C   UNL     1       7.862   6.050  19.094  0.00  0.00    +0.000 A 
ATOM     14  C   UNL     1       6.903   5.740  18.132  0.00  0.00    +0.000 A 
ATOM     15  C   UNL     1       6.526   6.692  17.182  0.00  0.00    +0.000 A 
ATOM     16  C   UNL     1       7.218   7.910  17.126  0.00  0.00    +0.000 A 
ATOM     17  C   UNL     1       5.367   6.436  16.255  0.00  0.00    +0.000 C 
ATOM     18  C   UNL     1       4.466   5.324  16.804  0.00  0.00    +0.000 C 
ATOM     19  C   UNL     1       5.371   4.163  17.228  0.00  0.00    +0.000 C 
ATOM     20  O   UNL     1       6.301   4.516  18.267  0.00  0.00    +0.000 OA
BRANCH  11  22
ATOM     21  C   UNL     1       9.160  10.082  19.130  0.00  0.00    +0.000 C 
ATOM     22  O   UNL     1       8.814   9.427  17.914  0.00  0.00    +0.000 OA
ENDBRANCH  11  22
ENDBRANCH   1  18
BRANCH   6  23
ATOM     23  C   UNL     1       0.397   9.352  21.548  0.00  0.00    +0.000 A 
ATOM     24  C   UNL     1      -0.403   9.238  22.665  0.00  0.00    +0.000 A 
ATOM     25  C   UNL     1      -0.884  10.411  23.191  0.00  0.00    +0.000 A 
ATOM     26  N   UNL     1      -0.605  11.624  22.683  0.00  0.00    +0.000 NA
ATOM     27  C   UNL     1       0.203  11.645  21.620  0.00  0.00    +0.000 A 
ATOM     28  N   UNL     1       0.517  12.878  21.089  0.00  0.00    +0.000 N 
ATOM     29  N   UNL     1       0.700  10.565  21.019  0.00  0.00    +0.000 NA
ATOM     30  H   UNL     1      -0.201  13.544  21.337  0.00  0.00    +0.000 HD
ATOM     31  H   UNL     1       0.744  12.780  20.109  0.00  0.00    +0.000 HD
ENDBRANCH   6  23
TORSDOF 3
ENDMDL
MODEL 8
REMARK VINA RESULT:      -8.3      3.932      9.770
REMARK  Name = 
REMARK  4 active torsions:
REMARK  status: ('A' for Active; 'I' for Inactive)
REMARK    1  A    between atoms: C_1  and  O_2
REMARK    2  A    between atoms: O_2  and  C_3
REMARK    3  A    between atoms: C_10  and  C_11
REMARK    4  A    between atoms: C_16  and  C_17
REMARK                            x       y       z     vdW  Elec       q    Type
REMARK                         _______ _______ _______ _____ _____    ______ ____
ROOT
ATOM      1  C   UNL     1       0.785  11.084  18.994  0.00  0.00    +0.000 A 
ATOM      2  N   UNL     1       0.658  10.455  20.148  0.00  0.00    +0.000 NA
ATOM      3  C   UNL     1       1.198   9.203  19.949  0.00  0.00    +0.000 A 
ATOM      4  C   UNL     1       1.345   8.123  20.827  0.00  0.00    +0.000 A 
ATOM      5  C   UNL     1       1.938   6.938  20.345  0.00  0.00    +0.000 A 
ATOM      6  C   UNL     1       2.380   6.797  19.011  0.00  0.00    +0.000 A 
ATOM      7  C   UNL     1       2.245   7.902  18.149  0.00  0.00    +0.000 A 
ATOM      8  C   UNL     1       1.651   9.060  18.648  0.00  0.00    +0.000 A 
ATOM      9  N   UNL     1       1.371  10.258  18.064  0.00  0.00    +0.000 N 
ATOM     10  H   UNL     1       1.577  10.506  17.106  0.00  0.00    +0.000 HD
ENDROOT
BRANCH   1  18
ATOM     11  C   UNL     1      -3.159  12.597  22.054  0.00  0.00    +0.000 A 
ATOM     12  C   UNL     1      -2.161  12.783  23.010  0.00  0.00    +0.000 A 
ATOM     13  C   UNL     1      -0.854  13.063  22.611  0.00  0.00    +0.000 A 
ATOM     14  C   UNL     1      -0.534  13.130  21.257  0.00  0.00    +0.000 A 
ATOM     15  C   UNL     1      -1.500  12.837  20.291  0.00  0.00    +0.000 A 
ATOM     16  C   UNL     1      -2.822  12.608  20.697  0.00  0.00    +0.000 A 
ATOM     17  C   UNL     1      -1.124  12.727  18.837  0.00  0.00    +0.000 C 
ATOM     18  C   UNL     1       0.384  12.507  18.680  0.00  0.00    +0.000 C 
ATOM     19  C   UNL     1       1.096  13.527  19.574  0.00  0.00    +0.000 C 
ATOM     20  O   UNL     1       0.782  13.378  20.970  0.00  0.00    +0.000 OA
BRANCH  11  22
ATOM     21  C   UNL     1      -5.389  12.651  21.283  0.00  0.00    +0.000 C 
ATOM     22  O   UNL     1      -4.475  12.346  22.331  0.00  0.00    +0.000 OA
ENDBRANCH  11  22
ENDBRANCH   1  18
BRANCH   6  23
ATOM     23  C   UNL     1       2.963   5.535  18.497  0.00  0.00    +0.000 A 
ATOM     24  C   UNL     1       2.241   4.631  17.748  0.00  0.00    +0.000 A 
ATOM     25  C   UNL     1       2.922   3.521  17.313  0.00  0.00    +0.000 A 
ATOM     26  N   UNL     1       4.222   3.295  17.572  0.00  0.00    +0.000 NA
ATOM     27  C   UNL     1       4.852   4.238  18.277  0.00  0.00    +0.000 A 
ATOM     28  N   UNL     1       6.191   4.038  18.544  0.00  0.00    +0.000 N 
ATOM     29  N   UNL     1       4.278   5.336  18.767  0.00  0.00    +0.000 NA
ATOM     30  H   UNL     1       6.399   3.051  18.501  0.00  0.00    +0.000 HD
ATOM     31  H   UNL     1       6.448   4.533  19.387  0.00  0.00    +0.000 HD
ENDBRANCH   6  23
TORSDOF 3
ENDMDL
MODEL 9
REMARK VINA RESULT:      -8.3      3.996      9.951
REMARK  Name = 
REMARK  4 active torsions:
REMARK  status: ('A' for Active; 'I' for Inactive)
REMARK    1  A    between atoms: C_1  and  O_2
REMARK    2  A    between atoms: O_2  and  C_3
REMARK    3  A    between atoms: C_10  and  C_11
REMARK    4  A    between atoms: C_16  and  C_17
REMARK                            x       y       z     vdW  Elec       q    Type
REMARK                         _______ _______ _______ _____ _____    ______ ____
ROOT
ATOM      1  C   UNL     1      -0.245  10.887  18.698  0.00  0.00    +0.000 A 
ATOM      2  N   UNL     1      -0.168  10.221  19.836  0.00  0.00    +0.000 NA
ATOM      3  C   UNL     1       0.773   9.237  19.626  0.00  0.00    +0.000 A 
ATOM      4  C   UNL     1       1.268   8.249  20.485  0.00  0.00    +0.000 A 
ATOM      5  C   UNL     1       2.241   7.354  19.994  0.00  0.00    +0.000 A 
ATOM      6  C   UNL     1       2.728   7.410  18.671  0.00  0.00    +0.000 A 
ATOM      7  C   UNL     1       2.236   8.425  17.827  0.00  0.00    +0.000 A 
ATOM      8  C   UNL     1       1.271   9.294  18.335  0.00  0.00    +0.000 A 
ATOM      9  N   UNL     1       0.605  10.339  17.767  0.00  0.00    +0.000 N 
ATOM     10  H   UNL     1       0.730  10.669  16.820  0.00  0.00    +0.000 HD
ENDROOT
BRANCH   1  18
ATOM     11  C   UNL     1      -2.650  12.530  23.026  0.00  0.00    +0.000 A 
ATOM     12  C   UNL     1      -1.419  13.117  23.318  0.00  0.00    +0.000 A 
ATOM     13  C   UNL     1      -0.556  13.480  22.285  0.00  0.00    +0.000 A 
ATOM     14  C   UNL     1      -0.905  13.232  20.959  0.00  0.00    +0.000 A 
ATOM     15  C   UNL     1      -2.084  12.544  20.661  0.00  0.00    +0.000 A 
ATOM     16  C   UNL     1      -2.971  12.230  21.699  0.00  0.00    +0.000 A 
ATOM     17  C   UNL     1      -2.383  12.109  19.250  0.00  0.00    +0.000 C 
ATOM     18  C   UNL     1      -1.106  12.093  18.403  0.00  0.00    +0.000 C 
ATOM     19  C   UNL     1      -0.370  13.414  18.651  0.00  0.00    +0.000 C 
ATOM     20  O   UNL     1       0.026  13.596  20.022  0.00  0.00    +0.000 OA
BRANCH  11  22
ATOM     21  C   UNL     1      -4.817  12.868  23.898  0.00  0.00    +0.000 C 
ATOM     22  O   UNL     1      -3.583  12.159  23.955  0.00  0.00    +0.000 OA
ENDBRANCH  11  22
ENDBRANCH   1  18
BRANCH   6  23
ATOM     23  C   UNL     1       3.719   6.442  18.146  0.00  0.00    +0.000 A 
ATOM     24  C   UNL     1       4.405   6.640  16.967  0.00  0.00    +0.000 A 
ATOM     25  C   UNL     1       5.315   5.672  16.622  0.00  0.00    +0.000 A 
ATOM     26  N   UNL     1       5.560   4.581  17.368  0.00  0.00    +0.000 NA
ATOM     27  C   UNL     1       4.874   4.484  18.510  0.00  0.00    +0.000 A 
ATOM     28  N   UNL     1       5.118   3.381  19.302  0.00  0.00    +0.000 N 
ATOM     29  N   UNL     1       3.952   5.353  18.922  0.00  0.00    +0.000 NA
ATOM     30  H   UNL     1       5.487   2.633  18.733  0.00  0.00    +0.000 HD
ATOM     31  H   UNL     1       4.305   3.181  19.867  0.00  0.00    +0.000 HD
ENDBRANCH   6  23
TORSDOF 3
ENDMDL
