MODEL 1
REMARK VINA RESULT:      -8.5      0.000      0.000
REMARK  Name = 
REMARK  9 active torsions:
REMARK  status: ('A' for Active; 'I' for Inactive)
REMARK    1  A    between atoms: C_1  and  O_2
REMARK    2  A    between atoms: O_2  and  C_3
REMARK    3  A    between atoms: C_8  and  C_9
REMARK    4  A    between atoms: C_9  and  N_10
REMARK    5  A    between atoms: C_11  and  C_13
REMARK    6  A    between atoms: C_13  and  C_14
REMARK    7  A    between atoms: C_14  and  C_15
REMARK    8  A    between atoms: C_16  and  C_17
REMARK    9  A    between atoms: C_21  and  C_22
REMARK                            x       y       z     vdW  Elec       q    Type
REMARK                         _______ _______ _______ _____ _____    ______ ____
ROOT
ATOM      1  C   UNL     1       6.138   6.179  17.150  0.00  0.00    +0.000 A 
ATOM      2  C   UNL     1       5.776   5.547  18.285  0.00  0.00    +0.000 A 
ATOM      3  C   UNL     1       6.611   5.493  19.544  0.00  0.00    +0.000 C 
ATOM      4  C   UNL     1       4.532   4.773  18.305  0.00  0.00    +0.000 A 
ATOM      5  C   UNL     1       3.920   4.403  19.506  0.00  0.00    +0.000 A 
ATOM      6  C   UNL     1       2.861   3.489  19.485  0.00  0.00    +0.000 A 
ATOM      7  C   UNL     1       2.069   2.872  20.491  0.00  0.00    +0.000 A 
ATOM      8  C   UNL     1       2.161   3.112  21.952  0.00  0.00    +0.000 C 
ATOM      9  C   UNL     1       1.235   2.006  19.813  0.00  0.00    +0.000 A 
ATOM     10  O   UNL     1       1.430   2.090  18.468  0.00  0.00    +0.000 OA
ATOM     11  C   UNL     1       2.422   3.005  18.261  0.00  0.00    +0.000 A 
ATOM     12  C   UNL     1       2.931   3.423  17.031  0.00  0.00    +0.000 A 
ATOM     13  C   UNL     1       3.983   4.348  17.100  0.00  0.00    +0.000 A 
ATOM     14  O   UNL     1       4.458   4.898  15.894  0.00  0.00    +0.000 OA
ATOM     15  C   UNL     1       5.320   5.998  15.916  0.00  0.00    +0.000 A 
ATOM     16  O   UNL     1       5.449   6.712  14.928  0.00  0.00    +0.000 OA
ENDROOT
BRANCH   1  17
ATOM     17  C   UNL     1       7.376   7.052  17.145  0.00  0.00    +0.000 C 
BRANCH  17  18
ATOM     18  C   UNL     1       7.306   8.568  17.328  0.00  0.00    +0.000 C 
BRANCH  18  20
ATOM     19  N   UNL     1       8.790  10.306  18.153  0.00  0.00    +0.000 N 
ATOM     20  C   UNL     1       8.410   8.995  18.281  0.00  0.00    +0.000 C 
ATOM     21  O   UNL     1       8.918   8.228  19.096  0.00  0.00    +0.000 OA
ATOM     22  H   UNL     1       8.255  10.925  17.560  0.00  0.00    +0.000 HD
BRANCH  19  23
ATOM     23  C   UNL     1       9.821  10.898  18.982  0.00  0.00    +0.000 C 
BRANCH  23  29
ATOM     24  C   UNL     1       9.689  13.375  18.367  0.00  0.00    +0.000 A 
ATOM     25  C   UNL     1      10.286  14.512  17.809  0.00  0.00    +0.000 A 
ATOM     26  C   UNL     1      11.551  14.438  17.221  0.00  0.00    +0.000 A 
ATOM     27  C   UNL     1      12.241  13.231  17.210  0.00  0.00    +0.000 A 
ATOM     28  C   UNL     1      11.669  12.101  17.783  0.00  0.00    +0.000 A 
ATOM     29  C   UNL     1      10.389  12.155  18.370  0.00  0.00    +0.000 A 
BRANCH  24  31
ATOM     30  C   UNL     1       8.358  14.222  20.121  0.00  0.00    +0.000 C 
ATOM     31  O   UNL     1       8.453  13.395  18.962  0.00  0.00    +0.000 OA
ENDBRANCH  24  31
ENDBRANCH  23  29
ENDBRANCH  19  23
ENDBRANCH  18  20
ENDBRANCH  17  18
ENDBRANCH   1  17
TORSDOF 6
ENDMDL
MODEL 2
REMARK VINA RESULT:      -8.4      5.377      7.688
REMARK  Name = 
REMARK  9 active torsions:
REMARK  status: ('A' for Active; 'I' for Inactive)
REMARK    1  A    between atoms: C_1  and  O_2
REMARK    2  A    between atoms: O_2  and  C_3
REMARK    3  A    between atoms: C_8  and  C_9
REMARK    4  A    between atoms: C_9  and  N_10
REMARK    5  A    between atoms: C_11  and  C_13
REMARK    6  A    between atoms: C_13  and  C_14
REMARK    7  A    between atoms: C_14  and  C_15
REMARK    8  A    between atoms: C_16  and  C_17
REMARK    9  A    between atoms: C_21  and  C_22
REMARK                            x       y       z     vdW  Elec       q    Type
REMARK                         _______ _______ _______ _____ _____    ______ ____
ROOT
ATOM      1  C   UNL     1       3.219   6.388  18.443  0.00  0.00    +0.000 A 
ATOM      2  C   UNL     1       2.386   6.618  19.478  0.00  0.00    +0.000 A 
ATOM      3  C   UNL     1       1.933   5.569  20.469  0.00  0.00    +0.000 C 
ATOM      4  C   UNL     1       1.790   7.947  19.633  0.00  0.00    +0.000 A 
ATOM      5  C   UNL     1       1.225   8.360  20.844  0.00  0.00    +0.000 A 
ATOM      6  C   UNL     1       0.481   9.544  20.886  0.00  0.00    +0.000 A 
ATOM      7  C   UNL     1      -0.254  10.211  21.904  0.00  0.00    +0.000 A 
ATOM      8  C   UNL     1      -0.379   9.787  23.320  0.00  0.00    +0.000 C 
ATOM      9  C   UNL     1      -0.825  11.302  21.279  0.00  0.00    +0.000 A 
ATOM     10  O   UNL     1      -0.450  11.371  19.972  0.00  0.00    +0.000 OA
ATOM     11  C   UNL     1       0.357  10.297  19.728  0.00  0.00    +0.000 A 
ATOM     12  C   UNL     1       0.988   9.981  18.524  0.00  0.00    +0.000 A 
ATOM     13  C   UNL     1       1.733   8.793  18.531  0.00  0.00    +0.000 A 
ATOM     14  O   UNL     1       2.489   8.482  17.384  0.00  0.00    +0.000 OA
ATOM     15  C   UNL     1       3.437   7.456  17.425  0.00  0.00    +0.000 A 
ATOM     16  O   UNL     1       4.343   7.407  16.601  0.00  0.00    +0.000 OA
ENDROOT
BRANCH   1  17
ATOM     17  C   UNL     1       3.908   5.044  18.325  0.00  0.00    +0.000 C 
BRANCH  17  18
ATOM     18  C   UNL     1       5.179   4.708  19.103  0.00  0.00    +0.000 C 
BRANCH  18  20
ATOM     19  N   UNL     1       6.047   5.198  16.886  0.00  0.00    +0.000 N 
ATOM     20  C   UNL     1       6.369   4.810  18.162  0.00  0.00    +0.000 C 
ATOM     21  O   UNL     1       7.520   4.564  18.516  0.00  0.00    +0.000 OA
ATOM     22  H   UNL     1       5.108   5.511  16.683  0.00  0.00    +0.000 HD
BRANCH  19  23
ATOM     23  C   UNL     1       7.047   5.359  15.851  0.00  0.00    +0.000 C 
BRANCH  23  29
ATOM     24  C   UNL     1       7.397   4.819  13.377  0.00  0.00    +0.000 A 
ATOM     25  C   UNL     1       6.961   4.180  12.209  0.00  0.00    +0.000 A 
ATOM     26  C   UNL     1       5.750   3.485  12.186  0.00  0.00    +0.000 A 
ATOM     27  C   UNL     1       4.976   3.399  13.338  0.00  0.00    +0.000 A 
ATOM     28  C   UNL     1       5.411   4.008  14.510  0.00  0.00    +0.000 A 
ATOM     29  C   UNL     1       6.624   4.724  14.549  0.00  0.00    +0.000 A 
BRANCH  24  31
ATOM     30  C   UNL     1       8.868   6.335  12.329  0.00  0.00    +0.000 C 
ATOM     31  O   UNL     1       8.580   5.509  13.456  0.00  0.00    +0.000 OA
ENDBRANCH  24  31
ENDBRANCH  23  29
ENDBRANCH  19  23
ENDBRANCH  18  20
ENDBRANCH  17  18
ENDBRANCH   1  17
TORSDOF 6
ENDMDL
MODEL 3
REMARK VINA RESULT:      -8.3      1.320      1.516
REMARK  Name = 
REMARK  9 active torsions:
REMARK  status: ('A' for Active; 'I' for Inactive)
REMARK    1  A    between atoms: C_1  and  O_2
REMARK    2  A    between atoms: O_2  and  C_3
REMARK    3  A    between atoms: C_8  and  C_9
REMARK    4  A    between atoms: C_9  and  N_10
REMARK    5  A    between atoms: C_11  and  C_13
REMARK    6  A    between atoms: C_13  and  C_14
REMARK    7  A    between atoms: C_14  and  C_15
REMARK    8  A    between atoms: C_16  and  C_17
REMARK    9  A    between atoms: C_21  and  C_22
REMARK                            x       y       z     vdW  Elec       q    Type
REMARK                         _______ _______ _______ _____ _____    ______ ____
ROOT
ATOM      1  C   UNL     1       6.241   5.478  17.251  0.00  0.00    +0.000 A 
ATOM      2  C   UNL     1       5.729   4.865  18.338  0.00  0.00    +0.000 A 
ATOM      3  C   UNL     1       6.504   4.561  19.600  0.00  0.00    +0.000 C 
ATOM      4  C   UNL     1       4.353   4.366  18.294  0.00  0.00    +0.000 A 
ATOM      5  C   UNL     1       3.648   4.057  19.461  0.00  0.00    +0.000 A 
ATOM      6  C   UNL     1       2.424   3.385  19.368  0.00  0.00    +0.000 A 
ATOM      7  C   UNL     1       1.498   2.885  20.323  0.00  0.00    +0.000 A 
ATOM      8  C   UNL     1       1.602   3.010  21.797  0.00  0.00    +0.000 C 
ATOM      9  C   UNL     1       0.520   2.254  19.580  0.00  0.00    +0.000 A 
ATOM     10  O   UNL     1       0.761   2.378  18.245  0.00  0.00    +0.000 OA
ATOM     11  C   UNL     1       1.925   3.079  18.110  0.00  0.00    +0.000 A 
ATOM     12  C   UNL     1       2.539   3.458  16.916  0.00  0.00    +0.000 A 
ATOM     13  C   UNL     1       3.756   4.139  17.058  0.00  0.00    +0.000 A 
ATOM     14  O   UNL     1       4.365   4.653  15.896  0.00  0.00    +0.000 OA
ATOM     15  C   UNL     1       5.434   5.547  15.999  0.00  0.00    +0.000 A 
ATOM     16  O   UNL     1       5.730   6.279  15.062  0.00  0.00    +0.000 OA
ENDROOT
BRANCH   1  17
ATOM     17  C   UNL     1       7.632   6.074  17.317  0.00  0.00    +0.000 C 
BRANCH  17  18
ATOM     18  C   UNL     1       8.054   7.038  18.425  0.00  0.00    +0.000 C 
BRANCH  18  20
ATOM     19  N   UNL     1       8.804   9.350  18.427  0.00  0.00    +0.000 N 
ATOM     20  C   UNL     1       7.889   8.463  17.920  0.00  0.00    +0.000 C 
ATOM     21  O   UNL     1       7.009   8.789  17.127  0.00  0.00    +0.000 OA
ATOM     22  H   UNL     1       9.582   9.007  18.972  0.00  0.00    +0.000 HD
BRANCH  19  23
ATOM     23  C   UNL     1       8.811  10.750  18.055  0.00  0.00    +0.000 C 
BRANCH  23  29
ATOM     24  C   UNL     1      10.247  11.661  19.964  0.00  0.00    +0.000 A 
ATOM     25  C   UNL     1      11.409  12.314  20.392  0.00  0.00    +0.000 A 
ATOM     26  C   UNL     1      12.328  12.815  19.467  0.00  0.00    +0.000 A 
ATOM     27  C   UNL     1      12.107  12.642  18.106  0.00  0.00    +0.000 A 
ATOM     28  C   UNL     1      10.969  11.973  17.669  0.00  0.00    +0.000 A 
ATOM     29  C   UNL     1      10.024  11.472  18.587  0.00  0.00    +0.000 A 
BRANCH  24  31
ATOM     30  C   UNL     1       8.946  12.015  21.900  0.00  0.00    +0.000 C 
ATOM     31  O   UNL     1       9.316  11.145  20.830  0.00  0.00    +0.000 OA
ENDBRANCH  24  31
ENDBRANCH  23  29
ENDBRANCH  19  23
ENDBRANCH  18  20
ENDBRANCH  17  18
ENDBRANCH   1  17
TORSDOF 6
ENDMDL
MODEL 4
REMARK VINA RESULT:      -8.2      7.835     10.798
REMARK  Name = 
REMARK  9 active torsions:
REMARK  status: ('A' for Active; 'I' for Inactive)
REMARK    1  A    between atoms: C_1  and  O_2
REMARK    2  A    between atoms: O_2  and  C_3
REMARK    3  A    between atoms: C_8  and  C_9
REMARK    4  A    between atoms: C_9  and  N_10
REMARK    5  A    between atoms: C_11  and  C_13
REMARK    6  A    between atoms: C_13  and  C_14
REMARK    7  A    between atoms: C_14  and  C_15
REMARK    8  A    between atoms: C_16  and  C_17
REMARK    9  A    between atoms: C_21  and  C_22
REMARK                            x       y       z     vdW  Elec       q    Type
REMARK                         _______ _______ _______ _____ _____    ______ ____
ROOT
ATOM      1  C   UNL     1       0.532  10.627  20.025  0.00  0.00    +0.000 A 
ATOM      2  C   UNL     1      -0.469  11.510  19.825  0.00  0.00    +0.000 A 
ATOM      3  C   UNL     1      -0.633  12.358  18.583  0.00  0.00    +0.000 C 
ATOM      4  C   UNL     1      -1.432  11.753  20.901  0.00  0.00    +0.000 A 
ATOM      5  C   UNL     1      -2.669  12.356  20.654  0.00  0.00    +0.000 A 
ATOM      6  C   UNL     1      -3.462  12.762  21.732  0.00  0.00    +0.000 A 
ATOM      7  C   UNL     1      -4.711  13.433  21.841  0.00  0.00    +0.000 A 
ATOM      8  C   UNL     1      -5.577  13.865  20.717  0.00  0.00    +0.000 C 
ATOM      9  C   UNL     1      -4.911  13.604  23.196  0.00  0.00    +0.000 A 
ATOM     10  O   UNL     1      -3.901  13.042  23.916  0.00  0.00    +0.000 OA
ATOM     11  C   UNL     1      -3.013  12.518  23.022  0.00  0.00    +0.000 A 
ATOM     12  C   UNL     1      -1.837  11.828  23.318  0.00  0.00    +0.000 A 
ATOM     13  C   UNL     1      -1.080  11.429  22.207  0.00  0.00    +0.000 A 
ATOM     14  O   UNL     1       0.054  10.625  22.435  0.00  0.00    +0.000 OA
ATOM     15  C   UNL     1       0.695   9.995  21.365  0.00  0.00    +0.000 A 
ATOM     16  O   UNL     1       1.421   9.026  21.553  0.00  0.00    +0.000 OA
ENDROOT
BRANCH   1  17
ATOM     17  C   UNL     1       1.480  10.305  18.888  0.00  0.00    +0.000 C 
BRANCH  17  18
ATOM     18  C   UNL     1       1.249   9.126  17.943  0.00  0.00    +0.000 C 
BRANCH  18  20
ATOM     19  N   UNL     1       2.036   7.300  19.340  0.00  0.00    +0.000 N 
ATOM     20  C   UNL     1       2.295   8.061  18.229  0.00  0.00    +0.000 C 
ATOM     21  O   UNL     1       3.288   7.898  17.524  0.00  0.00    +0.000 OA
ATOM     22  H   UNL     1       1.145   7.388  19.808  0.00  0.00    +0.000 HD
BRANCH  19  23
ATOM     23  C   UNL     1       2.914   6.229  19.766  0.00  0.00    +0.000 C 
BRANCH  23  29
ATOM     24  C   UNL     1       2.966   4.121  18.322  0.00  0.00    +0.000 A 
ATOM     25  C   UNL     1       2.451   2.855  18.018  0.00  0.00    +0.000 A 
ATOM     26  C   UNL     1       1.349   2.348  18.711  0.00  0.00    +0.000 A 
ATOM     27  C   UNL     1       0.769   3.092  19.732  0.00  0.00    +0.000 A 
ATOM     28  C   UNL     1       1.288   4.339  20.060  0.00  0.00    +0.000 A 
ATOM     29  C   UNL     1       2.391   4.872  19.363  0.00  0.00    +0.000 A 
BRANCH  24  31
ATOM     30  C   UNL     1       4.512   3.916  16.552  0.00  0.00    +0.000 C 
ATOM     31  O   UNL     1       4.049   4.663  17.677  0.00  0.00    +0.000 OA
ENDBRANCH  24  31
ENDBRANCH  23  29
ENDBRANCH  19  23
ENDBRANCH  18  20
ENDBRANCH  17  18
ENDBRANCH   1  17
TORSDOF 6
ENDMDL
MODEL 5
REMARK VINA RESULT:      -8.2      5.687      9.600
REMARK  Name = 
REMARK  9 active torsions:
REMARK  status: ('A' for Active; 'I' for Inactive)
REMARK    1  A    between atoms: C_1  and  O_2
REMARK    2  A    between atoms: O_2  and  C_3
REMARK    3  A    between atoms: C_8  and  C_9
REMARK    4  A    between atoms: C_9  and  N_10
REMARK    5  A    between atoms: C_11  and  C_13
REMARK    6  A    between atoms: C_13  and  C_14
REMARK    7  A    between atoms: C_14  and  C_15
REMARK    8  A    between atoms: C_16  and  C_17
REMARK    9  A    between atoms: C_21  and  C_22
REMARK                            x       y       z     vdW  Elec       q    Type
REMARK                         _______ _______ _______ _____ _____    ______ ____
ROOT
ATOM      1  C   UNL     1       2.170   8.083  18.772  0.00  0.00    +0.000 A 
ATOM      2  C   UNL     1       1.648   9.324  18.842  0.00  0.00    +0.000 A 
ATOM      3  C   UNL     1       1.911  10.427  17.841  0.00  0.00    +0.000 C 
ATOM      4  C   UNL     1       0.834   9.692  20.003  0.00  0.00    +0.000 A 
ATOM      5  C   UNL     1      -0.018  10.800  19.979  0.00  0.00    +0.000 A 
ATOM      6  C   UNL     1      -0.609  11.238  21.169  0.00  0.00    +0.000 A 
ATOM      7  C   UNL     1      -1.459  12.327  21.506  0.00  0.00    +0.000 A 
ATOM      8  C   UNL     1      -2.011  13.334  20.567  0.00  0.00    +0.000 C 
ATOM      9  C   UNL     1      -1.625  12.244  22.874  0.00  0.00    +0.000 A 
ATOM     10  O   UNL     1      -0.979  11.158  23.382  0.00  0.00    +0.000 OA
ATOM     11  C   UNL     1      -0.361  10.533  22.337  0.00  0.00    +0.000 A 
ATOM     12  C   UNL     1       0.397   9.363  22.393  0.00  0.00    +0.000 A 
ATOM     13  C   UNL     1       0.960   8.954  21.175  0.00  0.00    +0.000 A 
ATOM     14  O   UNL     1       1.635   7.718  21.142  0.00  0.00    +0.000 OA
ATOM     15  C   UNL     1       1.993   7.146  19.918  0.00  0.00    +0.000 A 
ATOM     16  O   UNL     1       2.230   5.947  19.834  0.00  0.00    +0.000 OA
ENDROOT
BRANCH   1  17
ATOM     17  C   UNL     1       2.939   7.666  17.535  0.00  0.00    +0.000 C 
BRANCH  17  18
ATOM     18  C   UNL     1       4.447   7.423  17.555  0.00  0.00    +0.000 C 
BRANCH  18  20
ATOM     19  N   UNL     1       3.968   5.066  17.205  0.00  0.00    +0.000 N 
ATOM     20  C   UNL     1       4.702   5.972  17.928  0.00  0.00    +0.000 C 
ATOM     21  O   UNL     1       5.498   5.640  18.804  0.00  0.00    +0.000 OA
ATOM     22  H   UNL     1       3.427   5.383  16.413  0.00  0.00    +0.000 HD
BRANCH  19  23
ATOM     23  C   UNL     1       4.081   3.637  17.412  0.00  0.00    +0.000 C 
BRANCH  23  29
ATOM     24  C   UNL     1       3.378   2.654  19.663  0.00  0.00    +0.000 A 
ATOM     25  C   UNL     1       2.363   2.213  20.523  0.00  0.00    +0.000 A 
ATOM     26  C   UNL     1       1.031   2.194  20.102  0.00  0.00    +0.000 A 
ATOM     27  C   UNL     1       0.698   2.642  18.829  0.00  0.00    +0.000 A 
ATOM     28  C   UNL     1       1.694   3.105  17.976  0.00  0.00    +0.000 A 
ATOM     29  C   UNL     1       3.045   3.119  18.378  0.00  0.00    +0.000 A 
BRANCH  24  31
ATOM     30  C   UNL     1       5.187   1.516  20.663  0.00  0.00    +0.000 C 
ATOM     31  O   UNL     1       4.700   2.698  20.028  0.00  0.00    +0.000 OA
ENDBRANCH  24  31
ENDBRANCH  23  29
ENDBRANCH  19  23
ENDBRANCH  18  20
ENDBRANCH  17  18
ENDBRANCH   1  17
TORSDOF 6
ENDMDL
MODEL 6
REMARK VINA RESULT:      -8.2      6.026      8.739
REMARK  Name = 
REMARK  9 active torsions:
REMARK  status: ('A' for Active; 'I' for Inactive)
REMARK    1  A    between atoms: C_1  and  O_2
REMARK    2  A    between atoms: O_2  and  C_3
REMARK    3  A    between atoms: C_8  and  C_9
REMARK    4  A    between atoms: C_9  and  N_10
REMARK    5  A    between atoms: C_11  and  C_13
REMARK    6  A    between atoms: C_13  and  C_14
REMARK    7  A    between atoms: C_14  and  C_15
REMARK    8  A    between atoms: C_16  and  C_17
REMARK    9  A    between atoms: C_21  and  C_22
REMARK                            x       y       z     vdW  Elec       q    Type
REMARK                         _______ _______ _______ _____ _____    ______ ____
ROOT
ATOM      1  C   UNL     1       1.862   8.180  19.415  0.00  0.00    +0.000 A 
ATOM      2  C   UNL     1       1.185   8.773  20.419  0.00  0.00    +0.000 A 
ATOM      3  C   UNL     1       1.005   8.185  21.801  0.00  0.00    +0.000 C 
ATOM      4  C   UNL     1       0.488  10.035  20.163  0.00  0.00    +0.000 A 
ATOM      5  C   UNL     1       0.083  10.873  21.206  0.00  0.00    +0.000 A 
ATOM      6  C   UNL     1      -0.763  11.953  20.931  0.00  0.00    +0.000 A 
ATOM      7  C   UNL     1      -1.391  12.944  21.734  0.00  0.00    +0.000 A 
ATOM      8  C   UNL     1      -1.246  13.108  23.200  0.00  0.00    +0.000 C 
ATOM      9  C   UNL     1      -2.163  13.681  20.858  0.00  0.00    +0.000 A 
ATOM     10  O   UNL     1      -2.010  13.240  19.578  0.00  0.00    +0.000 OA
ATOM     11  C   UNL     1      -1.145  12.184  19.617  0.00  0.00    +0.000 A 
ATOM     12  C   UNL     1      -0.685  11.440  18.531  0.00  0.00    +0.000 A 
ATOM     13  C   UNL     1       0.170  10.375  18.852  0.00  0.00    +0.000 A 
ATOM     14  O   UNL     1       0.763   9.662  17.792  0.00  0.00    +0.000 OA
ATOM     15  C   UNL     1       1.806   8.766  18.045  0.00  0.00    +0.000 A 
ATOM     16  O   UNL     1       2.569   8.426  17.149  0.00  0.00    +0.000 OA
ENDROOT
BRANCH   1  17
ATOM     17  C   UNL     1       2.658   6.921  19.693  0.00  0.00    +0.000 C 
BRANCH  17  18
ATOM     18  C   UNL     1       1.995   5.552  19.838  0.00  0.00    +0.000 C 
BRANCH  18  20
ATOM     19  N   UNL     1       3.570   4.048  18.758  0.00  0.00    +0.000 N 
ATOM     20  C   UNL     1       2.369   4.700  18.636  0.00  0.00    +0.000 C 
ATOM     21  O   UNL     1       1.656   4.606  17.640  0.00  0.00    +0.000 OA
ATOM     22  H   UNL     1       4.053   4.057  19.645  0.00  0.00    +0.000 HD
BRANCH  19  23
ATOM     23  C   UNL     1       4.090   3.183  17.720  0.00  0.00    +0.000 C 
BRANCH  23  29
ATOM     24  C   UNL     1       6.281   4.459  17.402  0.00  0.00    +0.000 A 
ATOM     25  C   UNL     1       7.211   5.065  16.547  0.00  0.00    +0.000 A 
ATOM     26  C   UNL     1       6.976   5.133  15.171  0.00  0.00    +0.000 A 
ATOM     27  C   UNL     1       5.822   4.573  14.636  0.00  0.00    +0.000 A 
ATOM     28  C   UNL     1       4.904   3.947  15.472  0.00  0.00    +0.000 A 
ATOM     29  C   UNL     1       5.118   3.879  16.863  0.00  0.00    +0.000 A 
BRANCH  24  31
ATOM     30  C   UNL     1       6.934   5.552  19.388  0.00  0.00    +0.000 C 
ATOM     31  O   UNL     1       6.466   4.360  18.757  0.00  0.00    +0.000 OA
ENDBRANCH  24  31
ENDBRANCH  23  29
ENDBRANCH  19  23
ENDBRANCH  18  20
ENDBRANCH  17  18
ENDBRANCH   1  17
TORSDOF 6
ENDMDL
MODEL 7
REMARK VINA RESULT:      -8.2      5.436      8.480
REMARK  Name = 
REMARK  9 active torsions:
REMARK  status: ('A' for Active; 'I' for Inactive)
REMARK    1  A    between atoms: C_1  and  O_2
REMARK    2  A    between atoms: O_2  and  C_3
REMARK    3  A    between atoms: C_8  and  C_9
REMARK    4  A    between atoms: C_9  and  N_10
REMARK    5  A    between atoms: C_11  and  C_13
REMARK    6  A    between atoms: C_13  and  C_14
REMARK    7  A    between atoms: C_14  and  C_15
REMARK    8  A    between atoms: C_16  and  C_17
REMARK    9  A    between atoms: C_21  and  C_22
REMARK                            x       y       z     vdW  Elec       q    Type
REMARK                         _______ _______ _______ _____ _____    ______ ____
ROOT
ATOM      1  C   UNL     1       2.270   7.277  19.526  0.00  0.00    +0.000 A 
ATOM      2  C   UNL     1       1.498   8.052  20.315  0.00  0.00    +0.000 A 
ATOM      3  C   UNL     1       0.876   7.605  21.620  0.00  0.00    +0.000 C 
ATOM      4  C   UNL     1       1.144   9.400  19.864  0.00  0.00    +0.000 A 
ATOM      5  C   UNL     1       0.670  10.369  20.754  0.00  0.00    +0.000 A 
ATOM      6  C   UNL     1       0.143  11.564  20.252  0.00  0.00    +0.000 A 
ATOM      7  C   UNL     1      -0.455  12.707  20.850  0.00  0.00    +0.000 A 
ATOM      8  C   UNL     1      -0.641  12.943  22.302  0.00  0.00    +0.000 C 
ATOM      9  C   UNL     1      -0.832  13.510  19.792  0.00  0.00    +0.000 A 
ATOM     10  O   UNL     1      -0.461  12.961  18.602  0.00  0.00    +0.000 OA
ATOM     11  C   UNL     1       0.144  11.770  18.880  0.00  0.00    +0.000 A 
ATOM     12  C   UNL     1       0.700  10.880  17.961  0.00  0.00    +0.000 A 
ATOM     13  C   UNL     1       1.226   9.701  18.509  0.00  0.00    +0.000 A 
ATOM     14  O   UNL     1       1.908   8.819  17.648  0.00  0.00    +0.000 OA
ATOM     15  C   UNL     1       2.663   7.767  18.174  0.00  0.00    +0.000 A 
ATOM     16  O   UNL     1       3.539   7.231  17.507  0.00  0.00    +0.000 OA
ENDROOT
BRANCH   1  17
ATOM     17  C   UNL     1       2.712   5.916  20.023  0.00  0.00    +0.000 C 
BRANCH  17  18
ATOM     18  C   UNL     1       1.782   4.704  20.018  0.00  0.00    +0.000 C 
BRANCH  18  20
ATOM     19  N   UNL     1       3.150   4.125  18.094  0.00  0.00    +0.000 N 
ATOM     20  C   UNL     1       2.379   3.634  19.118  0.00  0.00    +0.000 C 
ATOM     21  O   UNL     1       2.186   2.434  19.293  0.00  0.00    +0.000 OA
ATOM     22  H   UNL     1       3.381   5.108  18.072  0.00  0.00    +0.000 HD
BRANCH  19  23
ATOM     23  C   UNL     1       3.810   3.259  17.139  0.00  0.00    +0.000 C 
BRANCH  23  29
ATOM     24  C   UNL     1       6.102   4.376  17.312  0.00  0.00    +0.000 A 
ATOM     25  C   UNL     1       7.218   4.943  16.683  0.00  0.00    +0.000 A 
ATOM     26  C   UNL     1       7.258   5.084  15.294  0.00  0.00    +0.000 A 
ATOM     27  C   UNL     1       6.195   4.635  14.519  0.00  0.00    +0.000 A 
ATOM     28  C   UNL     1       5.093   4.047  15.131  0.00  0.00    +0.000 A 
ATOM     29  C   UNL     1       5.029   3.908  16.532  0.00  0.00    +0.000 A 
BRANCH  24  31
ATOM     30  C   UNL     1       6.212   5.398  19.436  0.00  0.00    +0.000 C 
ATOM     31  O   UNL     1       6.013   4.210  18.671  0.00  0.00    +0.000 OA
ENDBRANCH  24  31
ENDBRANCH  23  29
ENDBRANCH  19  23
ENDBRANCH  18  20
ENDBRANCH  17  18
ENDBRANCH   1  17
TORSDOF 6
ENDMDL
MODEL 8
REMARK VINA RESULT:      -8.1      1.139      1.977
REMARK  Name = 
REMARK  9 active torsions:
REMARK  status: ('A' for Active; 'I' for Inactive)
REMARK    1  A    between atoms: C_1  and  O_2
REMARK    2  A    between atoms: O_2  and  C_3
REMARK    3  A    between atoms: C_8  and  C_9
REMARK    4  A    between atoms: C_9  and  N_10
REMARK    5  A    between atoms: C_11  and  C_13
REMARK    6  A    between atoms: C_13  and  C_14
REMARK    7  A    between atoms: C_14  and  C_15
REMARK    8  A    between atoms: C_16  and  C_17
REMARK    9  A    between atoms: C_21  and  C_22
REMARK                            x       y       z     vdW  Elec       q    Type
REMARK                         _______ _______ _______ _____ _____    ______ ____
ROOT
ATOM      1  C   UNL     1       6.158   6.189  17.219  0.00  0.00    +0.000 A 
ATOM      2  C   UNL     1       5.767   5.543  18.337  0.00  0.00    +0.000 A 
ATOM      3  C   UNL     1       6.571   5.474  19.617  0.00  0.00    +0.000 C 
ATOM      4  C   UNL     1       4.523   4.771  18.318  0.00  0.00    +0.000 A 
ATOM      5  C   UNL     1       3.880   4.388  19.499  0.00  0.00    +0.000 A 
ATOM      6  C   UNL     1       2.821   3.476  19.440  0.00  0.00    +0.000 A 
ATOM      7  C   UNL     1       2.003   2.848  20.419  0.00  0.00    +0.000 A 
ATOM      8  C   UNL     1       2.059   3.070  21.884  0.00  0.00    +0.000 C 
ATOM      9  C   UNL     1       1.186   1.991  19.709  0.00  0.00    +0.000 A 
ATOM     10  O   UNL     1       1.414   2.090  18.370  0.00  0.00    +0.000 OA
ATOM     11  C   UNL     1       2.412   3.006  18.200  0.00  0.00    +0.000 A 
ATOM     12  C   UNL     1       2.952   3.438  16.988  0.00  0.00    +0.000 A 
ATOM     13  C   UNL     1       4.003   4.361  17.095  0.00  0.00    +0.000 A 
ATOM     14  O   UNL     1       4.509   4.925  15.907  0.00  0.00    +0.000 OA
ATOM     15  C   UNL     1       5.371   6.023  15.963  0.00  0.00    +0.000 A 
ATOM     16  O   UNL     1       5.525   6.749  14.988  0.00  0.00    +0.000 OA
ENDROOT
BRANCH   1  17
ATOM     17  C   UNL     1       7.397   7.060  17.256  0.00  0.00    +0.000 C 
BRANCH  17  18
ATOM     18  C   UNL     1       7.320   8.582  17.377  0.00  0.00    +0.000 C 
BRANCH  18  20
ATOM     19  N   UNL     1       8.841  10.349  18.064  0.00  0.00    +0.000 N 
ATOM     20  C   UNL     1       8.443   9.055  18.286  0.00  0.00    +0.000 C 
ATOM     21  O   UNL     1       8.951   8.337  19.144  0.00  0.00    +0.000 OA
ATOM     22  H   UNL     1       8.307  10.934  17.438  0.00  0.00    +0.000 HD
BRANCH  19  23
ATOM     23  C   UNL     1       9.891  10.979  18.838  0.00  0.00    +0.000 C 
BRANCH  23  29
ATOM     24  C   UNL     1       8.989  13.199  19.727  0.00  0.00    +0.000 A 
ATOM     25  C   UNL     1       8.455  13.946  20.784  0.00  0.00    +0.000 A 
ATOM     26  C   UNL     1       8.304  13.381  22.053  0.00  0.00    +0.000 A 
ATOM     27  C   UNL     1       8.661  12.055  22.269  0.00  0.00    +0.000 A 
ATOM     28  C   UNL     1       9.169  11.296  21.221  0.00  0.00    +0.000 A 
ATOM     29  C   UNL     1       9.340  11.852  19.937  0.00  0.00    +0.000 A 
BRANCH  24  31
ATOM     30  C   UNL     1       8.464  14.927  18.210  0.00  0.00    +0.000 C 
ATOM     31  O   UNL     1       9.152  13.703  18.462  0.00  0.00    +0.000 OA
ENDBRANCH  24  31
ENDBRANCH  23  29
ENDBRANCH  19  23
ENDBRANCH  18  20
ENDBRANCH  17  18
ENDBRANCH   1  17
TORSDOF 6
ENDMDL
MODEL 9
REMARK VINA RESULT:      -8.0      8.040     10.211
REMARK  Name = 
REMARK  9 active torsions:
REMARK  status: ('A' for Active; 'I' for Inactive)
REMARK    1  A    between atoms: C_1  and  O_2
REMARK    2  A    between atoms: O_2  and  C_3
REMARK    3  A    between atoms: C_8  and  C_9
REMARK    4  A    between atoms: C_9  and  N_10
REMARK    5  A    between atoms: C_11  and  C_13
REMARK    6  A    between atoms: C_13  and  C_14
REMARK    7  A    between atoms: C_14  and  C_15
REMARK    8  A    between atoms: C_16  and  C_17
REMARK    9  A    between atoms: C_21  and  C_22
REMARK                            x       y       z     vdW  Elec       q    Type
REMARK                         _______ _______ _______ _____ _____    ______ ____
ROOT
ATOM      1  C   UNL     1       1.470   8.992  19.345  0.00  0.00    +0.000 A 
ATOM      2  C   UNL     1       1.456   7.967  20.221  0.00  0.00    +0.000 A 
ATOM      3  C   UNL     1       0.876   8.035  21.616  0.00  0.00    +0.000 C 
ATOM      4  C   UNL     1       2.121   6.713  19.862  0.00  0.00    +0.000 A 
ATOM      5  C   UNL     1       1.848   5.520  20.538  0.00  0.00    +0.000 A 
ATOM      6  C   UNL     1       2.655   4.400  20.310  0.00  0.00    +0.000 A 
ATOM      7  C   UNL     1       2.693   3.084  20.848  0.00  0.00    +0.000 A 
ATOM      8  C   UNL     1       1.759   2.518  21.851  0.00  0.00    +0.000 C 
ATOM      9  C   UNL     1       3.784   2.483  20.252  0.00  0.00    +0.000 A 
ATOM     10  O   UNL     1       4.379   3.321  19.358  0.00  0.00    +0.000 OA
ATOM     11  C   UNL     1       3.684   4.496  19.384  0.00  0.00    +0.000 A 
ATOM     12  C   UNL     1       3.930   5.630  18.610  0.00  0.00    +0.000 A 
ATOM     13  C   UNL     1       3.090   6.724  18.864  0.00  0.00    +0.000 A 
ATOM     14  O   UNL     1       3.210   7.856  18.034  0.00  0.00    +0.000 OA
ATOM     15  C   UNL     1       2.242   8.863  18.076  0.00  0.00    +0.000 A 
ATOM     16  O   UNL     1       2.112   9.645  17.141  0.00  0.00    +0.000 OA
ENDROOT
BRANCH   1  17
ATOM     17  C   UNL     1       0.711  10.262  19.671  0.00  0.00    +0.000 C 
BRANCH  17  18
ATOM     18  C   UNL     1      -0.736  10.483  19.233  0.00  0.00    +0.000 C 
BRANCH  18  20
ATOM     19  N   UNL     1      -2.576  12.017  19.645  0.00  0.00    +0.000 N 
ATOM     20  C   UNL     1      -1.316  11.639  20.033  0.00  0.00    +0.000 C 
ATOM     21  O   UNL     1      -0.706  12.186  20.948  0.00  0.00    +0.000 OA
ATOM     22  H   UNL     1      -3.082  11.453  18.976  0.00  0.00    +0.000 HD
BRANCH  19  23
ATOM     23  C   UNL     1      -3.296  13.093  20.294  0.00  0.00    +0.000 C 
BRANCH  23  29
ATOM     24  C   UNL     1      -5.585  12.153  19.653  0.00  0.00    +0.000 A 
ATOM     25  C   UNL     1      -6.887  11.794  20.021  0.00  0.00    +0.000 A 
ATOM     26  C   UNL     1      -7.349  12.022  21.320  0.00  0.00    +0.000 A 
ATOM     27  C   UNL     1      -6.504  12.586  22.268  0.00  0.00    +0.000 A 
ATOM     28  C   UNL     1      -5.200  12.923  21.920  0.00  0.00    +0.000 A 
ATOM     29  C   UNL     1      -4.721  12.712  20.612  0.00  0.00    +0.000 A 
BRANCH  24  31
ATOM     30  C   UNL     1      -5.860  12.501  17.336  0.00  0.00    +0.000 C 
ATOM     31  O   UNL     1      -5.079  11.946  18.394  0.00  0.00    +0.000 OA
ENDBRANCH  24  31
ENDBRANCH  23  29
ENDBRANCH  19  23
ENDBRANCH  18  20
ENDBRANCH  17  18
ENDBRANCH   1  17
TORSDOF 6
ENDMDL
