MODEL 1
REMARK VINA RESULT:      -7.0      0.000      0.000
REMARK  Name = 
REMARK  7 active torsions:
REMARK  status: ('A' for Active; 'I' for Inactive)
REMARK    1  A    between atoms: C_2  and  C_3
REMARK    2  A    between atoms: C_3  and  O_4
REMARK    3  A    between atoms: O_4  and  C_5
REMARK    4  A    between atoms: C_10  and  P_11
REMARK    5  A    between atoms: P_11  and  O_13
REMARK    6  A    between atoms: P_11  and  O_14
REMARK    7  A    between atoms: N_15  and  C_16
REMARK                            x       y       z     vdW  Elec       q    Type
REMARK                         _______ _______ _______ _____ _____    ______ ____
ROOT
ATOM      1  C   UNL     1       6.972   5.476  18.531  0.00  0.00    +0.000 C 
ENDROOT
BRANCH   1   3
ATOM      2  O   UNL     1       8.243   4.031  17.095  0.00  0.00    +0.000 OA
ATOM      3  C   UNL     1       7.516   5.019  17.169  0.00  0.00    +0.000 C 
ATOM      4  N   UNL     1       7.036   5.731  16.084  0.00  0.00    +0.000 N 
ATOM      5  H   UNL     1       6.748   6.694  16.235  0.00  0.00    +0.000 HD
BRANCH   4   6
ATOM      6  C   UNL     1       7.067   5.292  14.730  0.00  0.00    +0.000 A 
ATOM      7  C   UNL     1       8.073   5.710  13.845  0.00  0.00    +0.000 A 
ATOM      8  C   UNL     1       8.120   5.236  12.532  0.00  0.00    +0.000 A 
ATOM      9  C   UNL     1       7.171   4.320  12.088  0.00  0.00    +0.000 A 
ATOM     10  C   UNL     1       6.168   3.882  12.955  0.00  0.00    +0.000 A 
ATOM     11 CL   UNL     1       5.035   2.733  12.333  0.00  0.00    +0.000 Cl
ATOM     12  C   UNL     1       6.108   4.365  14.273  0.00  0.00    +0.000 A 
ATOM     13 CL   UNL     1       4.829   3.878  15.346  0.00  0.00    +0.000 Cl
ENDBRANCH   4   6
ENDBRANCH   1   3
BRANCH   1  14
ATOM     14  O   UNL     1       5.940   4.732  19.184  0.00  0.00    +0.000 OA
BRANCH  14  15
ATOM     15  C   UNL     1       4.665   5.107  18.779  0.00  0.00    +0.000 A 
ATOM     16  C   UNL     1       4.390   6.384  18.247  0.00  0.00    +0.000 A 
ATOM     17  C   UNL     1       3.096   6.787  17.931  0.00  0.00    +0.000 A 
ATOM     18  C   UNL     1       2.045   5.910  18.109  0.00  0.00    +0.000 A 
ATOM     19  C   UNL     1       2.304   4.616  18.565  0.00  0.00    +0.000 A 
ATOM     20  C   UNL     1       3.612   4.182  18.885  0.00  0.00    +0.000 A 
BRANCH  20  21
ATOM     21  P   UNL     1       3.765   2.491  19.358  0.00  0.00    +0.000 P 
ATOM     22  O   UNL     1       3.469   1.432  18.344  0.00  0.00    +0.000 OA
BRANCH  21  23
ATOM     23  O   UNL     1       5.208   2.272  20.015  0.00  0.00    +0.000 OA
ATOM     24  H   UNL     1       5.390   1.324  20.202  0.00  0.00    +0.000 HD
ENDBRANCH  21  23
BRANCH  21  25
ATOM     25  O   UNL     1       2.863   2.280  20.673  0.00  0.00    +0.000 OA
ATOM     26  H   UNL     1       2.366   1.444  20.579  0.00  0.00    +0.000 HD
ENDBRANCH  21  25
ENDBRANCH  20  21
ENDBRANCH  14  15
ENDBRANCH   1  14
TORSDOF 7
ENDMDL
MODEL 2
REMARK VINA RESULT:      -7.0      3.333      6.564
REMARK  Name = 
REMARK  7 active torsions:
REMARK  status: ('A' for Active; 'I' for Inactive)
REMARK    1  A    between atoms: C_2  and  C_3
REMARK    2  A    between atoms: C_3  and  O_4
REMARK    3  A    between atoms: O_4  and  C_5
REMARK    4  A    between atoms: C_10  and  P_11
REMARK    5  A    between atoms: P_11  and  O_13
REMARK    6  A    between atoms: P_11  and  O_14
REMARK    7  A    between atoms: N_15  and  C_16
REMARK                            x       y       z     vdW  Elec       q    Type
REMARK                         _______ _______ _______ _____ _____    ______ ____
ROOT
ATOM      1  C   UNL     1       3.446   3.540  17.871  0.00  0.00    +0.000 C 
ENDROOT
BRANCH   1   3
ATOM      2  O   UNL     1       1.385   4.725  17.531  0.00  0.00    +0.000 OA
ATOM      3  C   UNL     1       2.580   4.806  17.807  0.00  0.00    +0.000 C 
ATOM      4  N   UNL     1       3.227   5.971  18.182  0.00  0.00    +0.000 N 
ATOM      5  H   UNL     1       4.234   6.019  18.055  0.00  0.00    +0.000 HD
BRANCH   4   6
ATOM      6  C   UNL     1       2.587   7.180  18.575  0.00  0.00    +0.000 A 
ATOM      7  C   UNL     1       2.496   8.279  17.706  0.00  0.00    +0.000 A 
ATOM      8  C   UNL     1       1.825   9.443  18.087  0.00  0.00    +0.000 A 
ATOM      9  C   UNL     1       1.217   9.521  19.336  0.00  0.00    +0.000 A 
ATOM     10  C   UNL     1       1.286   8.435  20.212  0.00  0.00    +0.000 A 
ATOM     11 CL   UNL     1       0.494   8.604  21.740  0.00  0.00    +0.000 Cl
ATOM     12  C   UNL     1       1.971   7.266  19.840  0.00  0.00    +0.000 A 
ATOM     13 CL   UNL     1       2.119   5.929  20.942  0.00  0.00    +0.000 Cl
ENDBRANCH   4   6
ENDBRANCH   1   3
BRANCH   1  14
ATOM     14  O   UNL     1       4.862   3.640  18.047  0.00  0.00    +0.000 OA
BRANCH  14  15
ATOM     15  C   UNL     1       5.518   4.077  16.902  0.00  0.00    +0.000 A 
ATOM     16  C   UNL     1       5.068   3.751  15.606  0.00  0.00    +0.000 A 
ATOM     17  C   UNL     1       5.780   4.111  14.466  0.00  0.00    +0.000 A 
ATOM     18  C   UNL     1       6.948   4.835  14.592  0.00  0.00    +0.000 A 
ATOM     19  C   UNL     1       7.375   5.231  15.861  0.00  0.00    +0.000 A 
ATOM     20  C   UNL     1       6.662   4.883  17.033  0.00  0.00    +0.000 A 
BRANCH  20  21
ATOM     21  P   UNL     1       7.295   5.544  18.540  0.00  0.00    +0.000 P 
ATOM     22  O   UNL     1       8.418   4.828  19.222  0.00  0.00    +0.000 OA
BRANCH  21  23
ATOM     23  O   UNL     1       7.649   7.088  18.313  0.00  0.00    +0.000 OA
ATOM     24  H   UNL     1       7.972   7.263  17.401  0.00  0.00    +0.000 HD
ENDBRANCH  21  23
BRANCH  21  25
ATOM     25  O   UNL     1       6.049   5.724  19.542  0.00  0.00    +0.000 OA
ATOM     26  H   UNL     1       6.334   5.470  20.442  0.00  0.00    +0.000 HD
ENDBRANCH  21  25
ENDBRANCH  20  21
ENDBRANCH  14  15
ENDBRANCH   1  14
TORSDOF 7
ENDMDL
MODEL 3
REMARK VINA RESULT:      -6.9      2.949      6.184
REMARK  Name = 
REMARK  7 active torsions:
REMARK  status: ('A' for Active; 'I' for Inactive)
REMARK    1  A    between atoms: C_2  and  C_3
REMARK    2  A    between atoms: C_3  and  O_4
REMARK    3  A    between atoms: O_4  and  C_5
REMARK    4  A    between atoms: C_10  and  P_11
REMARK    5  A    between atoms: P_11  and  O_13
REMARK    6  A    between atoms: P_11  and  O_14
REMARK    7  A    between atoms: N_15  and  C_16
REMARK                            x       y       z     vdW  Elec       q    Type
REMARK                         _______ _______ _______ _____ _____    ______ ____
ROOT
ATOM      1  C   UNL     1       3.983   7.578  17.362  0.00  0.00    +0.000 C 
ENDROOT
BRANCH   1   3
ATOM      2  O   UNL     1       2.197   7.427  18.959  0.00  0.00    +0.000 OA
ATOM      3  C   UNL     1       3.192   6.887  18.482  0.00  0.00    +0.000 C 
ATOM      4  N   UNL     1       3.630   5.614  18.801  0.00  0.00    +0.000 N 
ATOM      5  H   UNL     1       4.608   5.390  18.637  0.00  0.00    +0.000 HD
BRANCH   4   6
ATOM      6  C   UNL     1       2.873   4.632  19.500  0.00  0.00    +0.000 A 
ATOM      7  C   UNL     1       2.704   4.688  20.892  0.00  0.00    +0.000 A 
ATOM      8  C   UNL     1       1.920   3.745  21.561  0.00  0.00    +0.000 A 
ATOM      9  C   UNL     1       1.275   2.741  20.846  0.00  0.00    +0.000 A 
ATOM     10  C   UNL     1       1.420   2.673  19.459  0.00  0.00    +0.000 A 
ATOM     11 CL   UNL     1       0.576   1.405  18.639  0.00  0.00    +0.000 Cl
ATOM     12  C   UNL     1       2.218   3.611  18.781  0.00  0.00    +0.000 A 
ATOM     13 CL   UNL     1       2.459   3.504  17.062  0.00  0.00    +0.000 Cl
ENDBRANCH   4   6
ENDBRANCH   1   3
BRANCH   1  14
ATOM     14  O   UNL     1       5.400   7.405  17.265  0.00  0.00    +0.000 OA
BRANCH  14  15
ATOM     15  C   UNL     1       5.757   6.296  16.507  0.00  0.00    +0.000 A 
ATOM     16  C   UNL     1       5.248   6.076  15.210  0.00  0.00    +0.000 A 
ATOM     17  C   UNL     1       5.534   4.918  14.493  0.00  0.00    +0.000 A 
ATOM     18  C   UNL     1       6.365   3.963  15.042  0.00  0.00    +0.000 A 
ATOM     19  C   UNL     1       6.939   4.194  16.294  0.00  0.00    +0.000 A 
ATOM     20  C   UNL     1       6.668   5.367  17.037  0.00  0.00    +0.000 A 
BRANCH  20  21
ATOM     21  P   UNL     1       7.549   5.534  18.555  0.00  0.00    +0.000 P 
ATOM     22  O   UNL     1       8.609   4.531  18.884  0.00  0.00    +0.000 OA
BRANCH  21  23
ATOM     23  O   UNL     1       8.118   7.027  18.655  0.00  0.00    +0.000 OA
ATOM     24  H   UNL     1       7.783   7.498  19.451  0.00  0.00    +0.000 HD
ENDBRANCH  21  23
BRANCH  21  25
ATOM     25  O   UNL     1       6.458   5.609  19.734  0.00  0.00    +0.000 OA
ATOM     26  H   UNL     1       6.642   4.893  20.374  0.00  0.00    +0.000 HD
ENDBRANCH  21  25
ENDBRANCH  20  21
ENDBRANCH  14  15
ENDBRANCH   1  14
TORSDOF 7
ENDMDL
MODEL 4
REMARK VINA RESULT:      -6.8      0.501      1.095
REMARK  Name = 
REMARK  7 active torsions:
REMARK  status: ('A' for Active; 'I' for Inactive)
REMARK    1  A    between atoms: C_2  and  C_3
REMARK    2  A    between atoms: C_3  and  O_4
REMARK    3  A    between atoms: O_4  and  C_5
REMARK    4  A    between atoms: C_10  and  P_11
REMARK    5  A    between atoms: P_11  and  O_13
REMARK    6  A    between atoms: P_11  and  O_14
REMARK    7  A    between atoms: N_15  and  C_16
REMARK                            x       y       z     vdW  Elec       q    Type
REMARK                         _______ _______ _______ _____ _____    ______ ____
ROOT
ATOM      1  C   UNL     1       6.768   5.342  18.505  0.00  0.00    +0.000 C 
ENDROOT
BRANCH   1   3
ATOM      2  O   UNL     1       8.255   4.118  17.070  0.00  0.00    +0.000 OA
ATOM      3  C   UNL     1       7.389   4.986  17.146  0.00  0.00    +0.000 C 
ATOM      4  N   UNL     1       6.821   5.633  16.063  0.00  0.00    +0.000 N 
ATOM      5  H   UNL     1       6.392   6.542  16.220  0.00  0.00    +0.000 HD
BRANCH   4   6
ATOM      6  C   UNL     1       6.932   5.222  14.704  0.00  0.00    +0.000 A 
ATOM      7  C   UNL     1       7.964   5.689  13.877  0.00  0.00    +0.000 A 
ATOM      8  C   UNL     1       8.089   5.241  12.560  0.00  0.00    +0.000 A 
ATOM      9  C   UNL     1       7.195   4.303  12.055  0.00  0.00    +0.000 A 
ATOM     10  C   UNL     1       6.167   3.816  12.864  0.00  0.00    +0.000 A 
ATOM     11 CL   UNL     1       5.104   2.642  12.169  0.00  0.00    +0.000 Cl
ATOM     12  C   UNL     1       6.027   4.272  14.186  0.00  0.00    +0.000 A 
ATOM     13 CL   UNL     1       4.716   3.723  15.188  0.00  0.00    +0.000 Cl
ENDBRANCH   4   6
ENDBRANCH   1   3
BRANCH   1  14
ATOM     14  O   UNL     1       5.754   4.510  19.076  0.00  0.00    +0.000 OA
BRANCH  14  15
ATOM     15  C   UNL     1       4.471   4.889  18.700  0.00  0.00    +0.000 A 
ATOM     16  C   UNL     1       4.169   6.197  18.267  0.00  0.00    +0.000 A 
ATOM     17  C   UNL     1       2.867   6.597  17.981  0.00  0.00    +0.000 A 
ATOM     18  C   UNL     1       1.835   5.688  18.092  0.00  0.00    +0.000 A 
ATOM     19  C   UNL     1       2.120   4.368  18.449  0.00  0.00    +0.000 A 
ATOM     20  C   UNL     1       3.437   3.938  18.735  0.00  0.00    +0.000 A 
BRANCH  20  21
ATOM     21  P   UNL     1       3.625   2.219  19.079  0.00  0.00    +0.000 P 
ATOM     22  O   UNL     1       4.381   1.810  20.303  0.00  0.00    +0.000 OA
BRANCH  21  23
ATOM     23  O   UNL     1       2.181   1.528  19.036  0.00  0.00    +0.000 OA
ATOM     24  H   UNL     1       2.221   0.573  19.268  0.00  0.00    +0.000 HD
ENDBRANCH  21  23
BRANCH  21  25
ATOM     25  O   UNL     1       4.261   1.537  17.769  0.00  0.00    +0.000 OA
ATOM     26  H   UNL     1       5.161   1.895  17.638  0.00  0.00    +0.000 HD
ENDBRANCH  21  25
ENDBRANCH  20  21
ENDBRANCH  14  15
ENDBRANCH   1  14
TORSDOF 7
ENDMDL
MODEL 5
REMARK VINA RESULT:      -6.8      5.718      7.460
REMARK  Name = 
REMARK  7 active torsions:
REMARK  status: ('A' for Active; 'I' for Inactive)
REMARK    1  A    between atoms: C_2  and  C_3
REMARK    2  A    between atoms: C_3  and  O_4
REMARK    3  A    between atoms: O_4  and  C_5
REMARK    4  A    between atoms: C_10  and  P_11
REMARK    5  A    between atoms: P_11  and  O_13
REMARK    6  A    between atoms: P_11  and  O_14
REMARK    7  A    between atoms: N_15  and  C_16
REMARK                            x       y       z     vdW  Elec       q    Type
REMARK                         _______ _______ _______ _____ _____    ______ ____
ROOT
ATOM      1  C   UNL     1       7.779   7.883  17.881  0.00  0.00    +0.000 C 
ENDROOT
BRANCH   1   3
ATOM      2  O   UNL     1       7.732  10.254  17.505  0.00  0.00    +0.000 OA
ATOM      3  C   UNL     1       8.249   9.325  18.122  0.00  0.00    +0.000 C 
ATOM      4  N   UNL     1       9.184   9.470  19.130  0.00  0.00    +0.000 N 
ATOM      5  H   UNL     1       9.793   8.681  19.333  0.00  0.00    +0.000 HD
BRANCH   4   6
ATOM      6  C   UNL     1       9.492  10.686  19.802  0.00  0.00    +0.000 A 
ATOM      7  C   UNL     1       8.996  10.963  21.085  0.00  0.00    +0.000 A 
ATOM      8  C   UNL     1       9.343  12.140  21.753  0.00  0.00    +0.000 A 
ATOM      9  C   UNL     1      10.210  13.050  21.156  0.00  0.00    +0.000 A 
ATOM     10  C   UNL     1      10.725  12.789  19.885  0.00  0.00    +0.000 A 
ATOM     11 CL   UNL     1      11.807  13.962  19.216  0.00  0.00    +0.000 Cl
ATOM     12  C   UNL     1      10.369  11.613  19.202  0.00  0.00    +0.000 A 
ATOM     13 CL   UNL     1      10.951  11.303  17.593  0.00  0.00    +0.000 Cl
ENDBRANCH   4   6
ENDBRANCH   1   3
BRANCH   1  14
ATOM     14  O   UNL     1       7.025   7.554  16.710  0.00  0.00    +0.000 OA
BRANCH  14  15
ATOM     15  C   UNL     1       5.827   6.913  17.002  0.00  0.00    +0.000 A 
ATOM     16  C   UNL     1       4.738   7.587  17.595  0.00  0.00    +0.000 A 
ATOM     17  C   UNL     1       3.576   6.920  17.971  0.00  0.00    +0.000 A 
ATOM     18  C   UNL     1       3.460   5.565  17.736  0.00  0.00    +0.000 A 
ATOM     19  C   UNL     1       4.496   4.892  17.084  0.00  0.00    +0.000 A 
ATOM     20  C   UNL     1       5.683   5.552  16.686  0.00  0.00    +0.000 A 
BRANCH  20  21
ATOM     21  P   UNL     1       6.845   4.568  15.796  0.00  0.00    +0.000 P 
ATOM     22  O   UNL     1       6.341   3.405  15.002  0.00  0.00    +0.000 OA
BRANCH  21  23
ATOM     23  O   UNL     1       7.748   5.534  14.894  0.00  0.00    +0.000 OA
ATOM     24  H   UNL     1       7.252   6.327  14.590  0.00  0.00    +0.000 HD
ENDBRANCH  21  23
BRANCH  21  25
ATOM     25  O   UNL     1       7.968   4.092  16.844  0.00  0.00    +0.000 OA
ATOM     26  H   UNL     1       7.697   3.233  17.222  0.00  0.00    +0.000 HD
ENDBRANCH  21  25
ENDBRANCH  20  21
ENDBRANCH  14  15
ENDBRANCH   1  14
TORSDOF 7
ENDMDL
MODEL 6
REMARK VINA RESULT:      -6.7      3.253      6.739
REMARK  Name = 
REMARK  7 active torsions:
REMARK  status: ('A' for Active; 'I' for Inactive)
REMARK    1  A    between atoms: C_2  and  C_3
REMARK    2  A    between atoms: C_3  and  O_4
REMARK    3  A    between atoms: O_4  and  C_5
REMARK    4  A    between atoms: C_10  and  P_11
REMARK    5  A    between atoms: P_11  and  O_13
REMARK    6  A    between atoms: P_11  and  O_14
REMARK    7  A    between atoms: N_15  and  C_16
REMARK                            x       y       z     vdW  Elec       q    Type
REMARK                         _______ _______ _______ _____ _____    ______ ____
ROOT
ATOM      1  C   UNL     1       3.477   3.496  17.989  0.00  0.00    +0.000 C 
ENDROOT
BRANCH   1   3
ATOM      2  O   UNL     1       1.446   4.719  17.607  0.00  0.00    +0.000 OA
ATOM      3  C   UNL     1       2.567   4.727  18.112  0.00  0.00    +0.000 C 
ATOM      4  N   UNL     1       3.072   5.745  18.901  0.00  0.00    +0.000 N 
ATOM      5  H   UNL     1       4.082   5.831  18.980  0.00  0.00    +0.000 HD
BRANCH   4   6
ATOM      6  C   UNL     1       2.307   6.796  19.481  0.00  0.00    +0.000 A 
ATOM      7  C   UNL     1       1.709   6.659  20.743  0.00  0.00    +0.000 A 
ATOM      8  C   UNL     1       1.000   7.715  21.322  0.00  0.00    +0.000 A 
ATOM      9  C   UNL     1       0.896   8.932  20.656  0.00  0.00    +0.000 A 
ATOM     10  C   UNL     1       1.493   9.094  19.404  0.00  0.00    +0.000 A 
ATOM     11 CL   UNL     1       1.330  10.640  18.646  0.00  0.00    +0.000 Cl
ATOM     12  C   UNL     1       2.195   8.031  18.810  0.00  0.00    +0.000 A 
ATOM     13 CL   UNL     1       2.892   8.196  17.225  0.00  0.00    +0.000 Cl
ENDBRANCH   4   6
ENDBRANCH   1   3
BRANCH   1  14
ATOM     14  O   UNL     1       4.894   3.628  18.129  0.00  0.00    +0.000 OA
BRANCH  14  15
ATOM     15  C   UNL     1       5.512   4.080  16.969  0.00  0.00    +0.000 A 
ATOM     16  C   UNL     1       5.020   3.767  15.684  0.00  0.00    +0.000 A 
ATOM     17  C   UNL     1       5.694   4.143  14.526  0.00  0.00    +0.000 A 
ATOM     18  C   UNL     1       6.863   4.869  14.622  0.00  0.00    +0.000 A 
ATOM     19  C   UNL     1       7.330   5.252  15.881  0.00  0.00    +0.000 A 
ATOM     20  C   UNL     1       6.657   4.888  17.072  0.00  0.00    +0.000 A 
BRANCH  20  21
ATOM     21  P   UNL     1       7.336   5.534  18.565  0.00  0.00    +0.000 P 
ATOM     22  O   UNL     1       8.469   4.803  19.213  0.00  0.00    +0.000 OA
BRANCH  21  23
ATOM     23  O   UNL     1       7.700   7.076  18.336  0.00  0.00    +0.000 OA
ATOM     24  H   UNL     1       7.242   7.663  18.978  0.00  0.00    +0.000 HD
ENDBRANCH  21  23
BRANCH  21  25
ATOM     25  O   UNL     1       6.120   5.721  19.600  0.00  0.00    +0.000 OA
ATOM     26  H   UNL     1       5.288   5.465  19.154  0.00  0.00    +0.000 HD
ENDBRANCH  21  25
ENDBRANCH  20  21
ENDBRANCH  14  15
ENDBRANCH   1  14
TORSDOF 7
ENDMDL
MODEL 7
REMARK VINA RESULT:      -6.6      5.174      7.886
REMARK  Name = 
REMARK  7 active torsions:
REMARK  status: ('A' for Active; 'I' for Inactive)
REMARK    1  A    between atoms: C_2  and  C_3
REMARK    2  A    between atoms: C_3  and  O_4
REMARK    3  A    between atoms: O_4  and  C_5
REMARK    4  A    between atoms: C_10  and  P_11
REMARK    5  A    between atoms: P_11  and  O_13
REMARK    6  A    between atoms: P_11  and  O_14
REMARK    7  A    between atoms: N_15  and  C_16
REMARK                            x       y       z     vdW  Elec       q    Type
REMARK                         _______ _______ _______ _____ _____    ______ ____
ROOT
ATOM      1  C   UNL     1       2.567   7.335  18.870  0.00  0.00    +0.000 C 
ENDROOT
BRANCH   1   3
ATOM      2  O   UNL     1       2.323   9.018  17.174  0.00  0.00    +0.000 OA
ATOM      3  C   UNL     1       1.996   8.641  18.298  0.00  0.00    +0.000 C 
ATOM      4  N   UNL     1       1.043   9.255  19.091  0.00  0.00    +0.000 N 
ATOM      5  H   UNL     1       1.086   9.099  20.095  0.00  0.00    +0.000 HD
BRANCH   4   6
ATOM      6  C   UNL     1       0.104  10.229  18.649  0.00  0.00    +0.000 A 
ATOM      7  C   UNL     1      -1.031   9.871  17.905  0.00  0.00    +0.000 A 
ATOM      8  C   UNL     1      -1.970  10.830  17.517  0.00  0.00    +0.000 A 
ATOM      9  C   UNL     1      -1.798  12.161  17.884  0.00  0.00    +0.000 A 
ATOM     10  C   UNL     1      -0.683  12.537  18.634  0.00  0.00    +0.000 A 
ATOM     11 CL   UNL     1      -0.548  14.208  19.063  0.00  0.00    +0.000 Cl
ATOM     12  C   UNL     1       0.273  11.580  19.016  0.00  0.00    +0.000 A 
ATOM     13 CL   UNL     1       1.699  12.042  19.896  0.00  0.00    +0.000 Cl
ENDBRANCH   4   6
ENDBRANCH   1   3
BRANCH   1  14
ATOM     14  O   UNL     1       3.567   6.607  18.151  0.00  0.00    +0.000 OA
BRANCH  14  15
ATOM     15  C   UNL     1       3.225   5.275  17.952  0.00  0.00    +0.000 A 
ATOM     16  C   UNL     1       1.894   4.817  18.050  0.00  0.00    +0.000 A 
ATOM     17  C   UNL     1       1.570   3.468  17.943  0.00  0.00    +0.000 A 
ATOM     18  C   UNL     1       2.567   2.544  17.702  0.00  0.00    +0.000 A 
ATOM     19  C   UNL     1       3.881   2.983  17.529  0.00  0.00    +0.000 A 
ATOM     20  C   UNL     1       4.232   4.350  17.626  0.00  0.00    +0.000 A 
BRANCH  20  21
ATOM     21  P   UNL     1       5.919   4.735  17.289  0.00  0.00    +0.000 P 
ATOM     22  O   UNL     1       6.504   4.310  15.980  0.00  0.00    +0.000 OA
BRANCH  21  23
ATOM     23  O   UNL     1       6.148   6.299  17.543  0.00  0.00    +0.000 OA
ATOM     24  H   UNL     1       6.939   6.638  17.067  0.00  0.00    +0.000 HD
ENDBRANCH  21  23
BRANCH  21  25
ATOM     25  O   UNL     1       6.792   4.159  18.511  0.00  0.00    +0.000 OA
ATOM     26  H   UNL     1       6.347   4.393  19.350  0.00  0.00    +0.000 HD
ENDBRANCH  21  25
ENDBRANCH  20  21
ENDBRANCH  14  15
ENDBRANCH   1  14
TORSDOF 7
ENDMDL
MODEL 8
REMARK VINA RESULT:      -6.6      4.919      7.970
REMARK  Name = 
REMARK  7 active torsions:
REMARK  status: ('A' for Active; 'I' for Inactive)
REMARK    1  A    between atoms: C_2  and  C_3
REMARK    2  A    between atoms: C_3  and  O_4
REMARK    3  A    between atoms: O_4  and  C_5
REMARK    4  A    between atoms: C_10  and  P_11
REMARK    5  A    between atoms: P_11  and  O_13
REMARK    6  A    between atoms: P_11  and  O_14
REMARK    7  A    between atoms: N_15  and  C_16
REMARK                            x       y       z     vdW  Elec       q    Type
REMARK                         _______ _______ _______ _____ _____    ______ ____
ROOT
ATOM      1  C   UNL     1       3.064   7.119  18.644  0.00  0.00    +0.000 C 
ENDROOT
BRANCH   1   3
ATOM      2  O   UNL     1       1.696   6.500  20.518  0.00  0.00    +0.000 OA
ATOM      3  C   UNL     1       1.973   7.370  19.695  0.00  0.00    +0.000 C 
ATOM      4  N   UNL     1       1.442   8.648  19.687  0.00  0.00    +0.000 N 
ATOM      5  H   UNL     1       1.453   9.164  18.811  0.00  0.00    +0.000 HD
BRANCH   4   6
ATOM      6  C   UNL     1       0.724   9.250  20.758  0.00  0.00    +0.000 A 
ATOM      7  C   UNL     1       0.946   8.877  22.093  0.00  0.00    +0.000 A 
ATOM      8  C   UNL     1       0.268   9.508  23.139  0.00  0.00    +0.000 A 
ATOM      9  C   UNL     1      -0.629  10.537  22.867  0.00  0.00    +0.000 A 
ATOM     10  C   UNL     1      -0.856  10.932  21.548  0.00  0.00    +0.000 A 
ATOM     11 CL   UNL     1      -1.975  12.227  21.293  0.00  0.00    +0.000 Cl
ATOM     12  C   UNL     1      -0.188  10.292  20.490  0.00  0.00    +0.000 A 
ATOM     13 CL   UNL     1      -0.506  10.729  18.837  0.00  0.00    +0.000 Cl
ENDBRANCH   4   6
ENDBRANCH   1   3
BRANCH   1  14
ATOM     14  O   UNL     1       4.069   6.126  18.869  0.00  0.00    +0.000 OA
BRANCH  14  15
ATOM     15  C   UNL     1       4.549   5.568  17.690  0.00  0.00    +0.000 A 
ATOM     16  C   UNL     1       5.129   6.350  16.668  0.00  0.00    +0.000 A 
ATOM     17  C   UNL     1       5.521   5.798  15.453  0.00  0.00    +0.000 A 
ATOM     18  C   UNL     1       5.374   4.443  15.238  0.00  0.00    +0.000 A 
ATOM     19  C   UNL     1       4.870   3.639  16.263  0.00  0.00    +0.000 A 
ATOM     20  C   UNL     1       4.472   4.176  17.510  0.00  0.00    +0.000 A 
BRANCH  20  21
ATOM     21  P   UNL     1       3.946   3.005  18.717  0.00  0.00    +0.000 P 
ATOM     22  O   UNL     1       3.294   1.740  18.254  0.00  0.00    +0.000 OA
BRANCH  21  23
ATOM     23  O   UNL     1       5.172   2.695  19.698  0.00  0.00    +0.000 OA
ATOM     24  H   UNL     1       6.007   2.531  19.206  0.00  0.00    +0.000 HD
ENDBRANCH  21  23
BRANCH  21  25
ATOM     25  O   UNL     1       2.994   3.783  19.754  0.00  0.00    +0.000 OA
ATOM     26  H   UNL     1       2.336   4.298  19.247  0.00  0.00    +0.000 HD
ENDBRANCH  21  25
ENDBRANCH  20  21
ENDBRANCH  14  15
ENDBRANCH   1  14
TORSDOF 7
ENDMDL
MODEL 9
REMARK VINA RESULT:      -6.6      5.398      6.860
REMARK  Name = 
REMARK  7 active torsions:
REMARK  status: ('A' for Active; 'I' for Inactive)
REMARK    1  A    between atoms: C_2  and  C_3
REMARK    2  A    between atoms: C_3  and  O_4
REMARK    3  A    between atoms: O_4  and  C_5
REMARK    4  A    between atoms: C_10  and  P_11
REMARK    5  A    between atoms: P_11  and  O_13
REMARK    6  A    between atoms: P_11  and  O_14
REMARK    7  A    between atoms: N_15  and  C_16
REMARK                            x       y       z     vdW  Elec       q    Type
REMARK                         _______ _______ _______ _____ _____    ______ ____
ROOT
ATOM      1  C   UNL     1       7.571   7.725  17.315  0.00  0.00    +0.000 C 
ENDROOT
BRANCH   1   3
ATOM      2  O   UNL     1       8.882   8.333  19.232  0.00  0.00    +0.000 OA
ATOM      3  C   UNL     1       8.286   8.727  18.233  0.00  0.00    +0.000 C 
ATOM      4  N   UNL     1       8.281  10.034  17.780  0.00  0.00    +0.000 N 
ATOM      5  H   UNL     1       7.514  10.329  17.181  0.00  0.00    +0.000 HD
BRANCH   4   6
ATOM      6  C   UNL     1       9.164  11.062  18.215  0.00  0.00    +0.000 A 
ATOM      7  C   UNL     1      10.343  10.769  18.917  0.00  0.00    +0.000 A 
ATOM      8  C   UNL     1      11.226  11.783  19.297  0.00  0.00    +0.000 A 
ATOM      9  C   UNL     1      10.952  13.106  18.964  0.00  0.00    +0.000 A 
ATOM     10  C   UNL     1       9.790  13.419  18.256  0.00  0.00    +0.000 A 
ATOM     11 CL   UNL     1       9.528  15.084  17.868  0.00  0.00    +0.000 Cl
ATOM     12  C   UNL     1       8.892  12.405  17.882  0.00  0.00    +0.000 A 
ATOM     13 CL   UNL     1       7.410  12.784  17.055  0.00  0.00    +0.000 Cl
ENDBRANCH   4   6
ENDBRANCH   1   3
BRANCH   1  14
ATOM     14  O   UNL     1       7.789   6.319  17.471  0.00  0.00    +0.000 OA
BRANCH  14  15
ATOM     15  C   UNL     1       6.958   5.551  16.665  0.00  0.00    +0.000 A 
ATOM     16  C   UNL     1       7.192   5.387  15.283  0.00  0.00    +0.000 A 
ATOM     17  C   UNL     1       6.306   4.695  14.463  0.00  0.00    +0.000 A 
ATOM     18  C   UNL     1       5.176   4.123  15.009  0.00  0.00    +0.000 A 
ATOM     19  C   UNL     1       4.961   4.211  16.386  0.00  0.00    +0.000 A 
ATOM     20  C   UNL     1       5.852   4.902  17.241  0.00  0.00    +0.000 A 
BRANCH  20  21
ATOM     21  P   UNL     1       5.473   4.835  18.961  0.00  0.00    +0.000 P 
ATOM     22  O   UNL     1       4.282   5.586  19.463  0.00  0.00    +0.000 OA
BRANCH  21  23
ATOM     23  O   UNL     1       5.419   3.300  19.414  0.00  0.00    +0.000 OA
ATOM     24  H   UNL     1       4.769   3.150  20.136  0.00  0.00    +0.000 HD
ENDBRANCH  21  23
BRANCH  21  25
ATOM     25  O   UNL     1       6.798   5.278  19.759  0.00  0.00    +0.000 OA
ATOM     26  H   UNL     1       7.298   4.475  20.003  0.00  0.00    +0.000 HD
ENDBRANCH  21  25
ENDBRANCH  20  21
ENDBRANCH  14  15
ENDBRANCH   1  14
TORSDOF 7
ENDMDL
