MODEL 1
REMARK VINA RESULT:      -6.8      0.000      0.000
REMARK  Name = 
REMARK  12 active torsions:
REMARK  status: ('A' for Active; 'I' for Inactive)
REMARK    1  A    between atoms: C_1  and  C_2
REMARK    2  A    between atoms: C_2  and  C_3
REMARK    3  A    between atoms: C_5  and  C_6
REMARK    4  A    between atoms: C_10  and  N_11
REMARK    5  A    between atoms: C_13  and  O_14
REMARK    6  A    between atoms: O_14  and  C_15
REMARK    7  A    between atoms: C_17  and  O_18
REMARK    8  A    between atoms: O_18  and  C_19
REMARK    9  A    between atoms: C_19  and  C_20
REMARK   10  A    between atoms: C_20  and  N_21
REMARK   11  A    between atoms: N_21  and  C_22
REMARK   12  A    between atoms: N_21  and  C_23
REMARK                            x       y       z     vdW  Elec       q    Type
REMARK                         _______ _______ _______ _____ _____    ______ ____
ROOT
ATOM      1  C   UNL     1       6.065   5.342  17.057  0.00  0.00    +0.000 A 
ATOM      2  C   UNL     1       4.997   4.602  17.614  0.00  0.00    +0.000 A 
ATOM      3  C   UNL     1       3.873   5.196  18.231  0.00  0.00    +0.000 A 
ATOM      4  C   UNL     1       3.808   6.601  18.229  0.00  0.00    +0.000 A 
ATOM      5  C   UNL     1       4.851   7.340  17.666  0.00  0.00    +0.000 A 
ATOM      6  C   UNL     1       6.009   6.738  17.132  0.00  0.00    +0.000 A 
ENDROOT
BRANCH   3   7
ATOM      7  C   UNL     1       2.805   4.334  18.790  0.00  0.00    +0.000 A 
ATOM      8  C   UNL     1       1.778   3.780  18.026  0.00  0.00    +0.000 A 
ATOM      9  C   UNL     1       0.865   2.923  18.625  0.00  0.00    +0.000 A 
ATOM     10  C   UNL     1       0.974   2.666  19.986  0.00  0.00    +0.000 A 
ATOM     11  C   UNL     1       1.990   3.286  20.696  0.00  0.00    +0.000 A 
ATOM     12  N   UNL     1       2.892   4.101  20.129  0.00  0.00    +0.000 NA
BRANCH  11  13
ATOM     13  N   UNL     1       2.104   3.103  22.071  0.00  0.00    +0.000 N 
ATOM     14  H   UNL     1       1.598   3.815  22.582  0.00  0.00    +0.000 HD
ATOM     15  H   UNL     1       1.742   2.170  22.265  0.00  0.00    +0.000 HD
ENDBRANCH  11  13
ENDBRANCH   3   7
BRANCH   1  17
ATOM     16  C   UNL     1       6.908   4.393  14.834  0.00  0.00    +0.000 C 
ATOM     17  C   UNL     1       7.154   4.584  16.330  0.00  0.00    +0.000 C 
ENDBRANCH   1  17
BRANCH   4  18
ATOM     18  O   UNL     1       2.686   7.187  18.762  0.00  0.00    +0.000 OA
ATOM     19  C   UNL     1       2.134   8.323  18.105  0.00  0.00    +0.000 C 
ENDBRANCH   4  18
BRANCH   6  20
ATOM     20  O   UNL     1       7.084   7.488  16.681  0.00  0.00    +0.000 OA
BRANCH  20  21
ATOM     21  C   UNL     1       7.805   8.123  17.754  0.00  0.00    +0.000 C 
BRANCH  21  22
ATOM     22  C   UNL     1       7.788   9.657  17.714  0.00  0.00    +0.000 C 
BRANCH  22  23
ATOM     23  N   UNL     1       9.067  10.239  18.196  0.00  0.00    +0.000 NA
ATOM     24  C   UNL     1       9.177  11.676  17.920  0.00  0.00    +0.000 C 
ATOM     25  C   UNL     1       9.225  10.009  19.634  0.00  0.00    +0.000 C 
ENDBRANCH  22  23
ENDBRANCH  21  22
ENDBRANCH  20  21
ENDBRANCH   6  20
TORSDOF 8
ENDMDL
MODEL 2
REMARK VINA RESULT:      -6.6      2.612      7.293
REMARK  Name = 
REMARK  12 active torsions:
REMARK  status: ('A' for Active; 'I' for Inactive)
REMARK    1  A    between atoms: C_1  and  C_2
REMARK    2  A    between atoms: C_2  and  C_3
REMARK    3  A    between atoms: C_5  and  C_6
REMARK    4  A    between atoms: C_10  and  N_11
REMARK    5  A    between atoms: C_13  and  O_14
REMARK    6  A    between atoms: O_14  and  C_15
REMARK    7  A    between atoms: C_17  and  O_18
REMARK    8  A    between atoms: O_18  and  C_19
REMARK    9  A    between atoms: C_19  and  C_20
REMARK   10  A    between atoms: C_20  and  N_21
REMARK   11  A    between atoms: N_21  and  C_22
REMARK   12  A    between atoms: N_21  and  C_23
REMARK                            x       y       z     vdW  Elec       q    Type
REMARK                         _______ _______ _______ _____ _____    ______ ____
ROOT
ATOM      1  C   UNL     1       4.259   3.634  17.540  0.00  0.00    +0.000 A 
ATOM      2  C   UNL     1       4.834   3.654  16.249  0.00  0.00    +0.000 A 
ATOM      3  C   UNL     1       5.877   4.529  15.872  0.00  0.00    +0.000 A 
ATOM      4  C   UNL     1       6.394   5.378  16.867  0.00  0.00    +0.000 A 
ATOM      5  C   UNL     1       5.843   5.353  18.150  0.00  0.00    +0.000 A 
ATOM      6  C   UNL     1       4.744   4.538  18.491  0.00  0.00    +0.000 A 
ENDROOT
BRANCH   3   7
ATOM      7  C   UNL     1       6.412   4.477  14.490  0.00  0.00    +0.000 A 
ATOM      8  C   UNL     1       5.917   3.627  13.500  0.00  0.00    +0.000 A 
ATOM      9  C   UNL     1       6.431   3.702  12.214  0.00  0.00    +0.000 A 
ATOM     10  C   UNL     1       7.459   4.600  11.950  0.00  0.00    +0.000 A 
ATOM     11  C   UNL     1       7.937   5.382  12.990  0.00  0.00    +0.000 A 
ATOM     12  N   UNL     1       7.436   5.336  14.234  0.00  0.00    +0.000 NA
BRANCH  11  13
ATOM     13  N   UNL     1       9.002   6.254  12.785  0.00  0.00    +0.000 N 
ATOM     14  H   UNL     1       9.640   6.249  13.571  0.00  0.00    +0.000 HD
ATOM     15  H   UNL     1       9.457   5.950  11.926  0.00  0.00    +0.000 HD
ENDBRANCH  11  13
ENDBRANCH   3   7
BRANCH   1  17
ATOM     16  C   UNL     1       3.762   1.349  18.581  0.00  0.00    +0.000 C 
ATOM     17  C   UNL     1       3.224   2.572  17.842  0.00  0.00    +0.000 C 
ENDBRANCH   1  17
BRANCH   4  18
ATOM     18  O   UNL     1       7.455   6.181  16.530  0.00  0.00    +0.000 OA
ATOM     19  C   UNL     1       7.704   7.345  17.311  0.00  0.00    +0.000 C 
ENDBRANCH   4  18
BRANCH   6  20
ATOM     20  O   UNL     1       4.137   4.609  19.735  0.00  0.00    +0.000 OA
BRANCH  20  21
ATOM     21  C   UNL     1       2.942   5.412  19.725  0.00  0.00    +0.000 C 
BRANCH  21  22
ATOM     22  C   UNL     1       1.852   4.948  20.700  0.00  0.00    +0.000 C 
BRANCH  22  23
ATOM     23  N   UNL     1       1.587   3.490  20.583  0.00  0.00    +0.000 NA
ATOM     24  C   UNL     1       1.459   2.830  21.887  0.00  0.00    +0.000 C 
ATOM     25  C   UNL     1       0.374   3.252  19.797  0.00  0.00    +0.000 C 
ENDBRANCH  22  23
ENDBRANCH  21  22
ENDBRANCH  20  21
ENDBRANCH   6  20
TORSDOF 8
ENDMDL
MODEL 3
REMARK VINA RESULT:      -6.6      3.114      5.678
REMARK  Name = 
REMARK  12 active torsions:
REMARK  status: ('A' for Active; 'I' for Inactive)
REMARK    1  A    between atoms: C_1  and  C_2
REMARK    2  A    between atoms: C_2  and  C_3
REMARK    3  A    between atoms: C_5  and  C_6
REMARK    4  A    between atoms: C_10  and  N_11
REMARK    5  A    between atoms: C_13  and  O_14
REMARK    6  A    between atoms: O_14  and  C_15
REMARK    7  A    between atoms: C_17  and  O_18
REMARK    8  A    between atoms: O_18  and  C_19
REMARK    9  A    between atoms: C_19  and  C_20
REMARK   10  A    between atoms: C_20  and  N_21
REMARK   11  A    between atoms: N_21  and  C_22
REMARK   12  A    between atoms: N_21  and  C_23
REMARK                            x       y       z     vdW  Elec       q    Type
REMARK                         _______ _______ _______ _____ _____    ______ ____
ROOT
ATOM      1  C   UNL     1       5.725   5.664  17.134  0.00  0.00    +0.000 A 
ATOM      2  C   UNL     1       4.823   6.533  17.789  0.00  0.00    +0.000 A 
ATOM      3  C   UNL     1       3.467   6.213  18.030  0.00  0.00    +0.000 A 
ATOM      4  C   UNL     1       3.030   4.935  17.640  0.00  0.00    +0.000 A 
ATOM      5  C   UNL     1       3.920   4.064  17.006  0.00  0.00    +0.000 A 
ATOM      6  C   UNL     1       5.246   4.426  16.692  0.00  0.00    +0.000 A 
ENDROOT
BRANCH   3   7
ATOM      7  C   UNL     1       2.597   7.194  18.722  0.00  0.00    +0.000 A 
ATOM      8  C   UNL     1       2.221   7.086  20.061  0.00  0.00    +0.000 A 
ATOM      9  C   UNL     1       1.464   8.093  20.643  0.00  0.00    +0.000 A 
ATOM     10  C   UNL     1       1.066   9.173  19.864  0.00  0.00    +0.000 A 
ATOM     11  C   UNL     1       1.434   9.195  18.528  0.00  0.00    +0.000 A 
ATOM     12  N   UNL     1       2.182   8.240  17.955  0.00  0.00    +0.000 NA
BRANCH  11  13
ATOM     13  N   UNL     1       1.010  10.227  17.696  0.00  0.00    +0.000 N 
ATOM     14  H   UNL     1       1.385  10.126  16.761  0.00  0.00    +0.000 HD
ATOM     15  H   UNL     1      -0.009  10.195  17.700  0.00  0.00    +0.000 HD
ENDBRANCH  11  13
ENDBRANCH   3   7
BRANCH   1  17
ATOM     16  C   UNL     1       7.744   6.709  18.311  0.00  0.00    +0.000 C 
ATOM     17  C   UNL     1       7.176   6.085  17.038  0.00  0.00    +0.000 C 
ENDBRANCH   1  17
BRANCH   4  18
ATOM     18  O   UNL     1       1.734   4.588  17.934  0.00  0.00    +0.000 OA
ATOM     19  C   UNL     1       1.466   3.257  18.362  0.00  0.00    +0.000 C 
ENDBRANCH   4  18
BRANCH   6  20
ATOM     20  O   UNL     1       6.080   3.593  15.963  0.00  0.00    +0.000 OA
BRANCH  20  21
ATOM     21  C   UNL     1       6.484   4.173  14.708  0.00  0.00    +0.000 C 
BRANCH  21  22
ATOM     22  C   UNL     1       5.398   4.169  13.624  0.00  0.00    +0.000 C 
BRANCH  22  23
ATOM     23  N   UNL     1       5.741   3.260  12.500  0.00  0.00    +0.000 NA
ATOM     24  C   UNL     1       4.645   3.112  11.534  0.00  0.00    +0.000 C 
ATOM     25  C   UNL     1       6.939   3.735  11.804  0.00  0.00    +0.000 C 
ENDBRANCH  22  23
ENDBRANCH  21  22
ENDBRANCH  20  21
ENDBRANCH   6  20
TORSDOF 8
ENDMDL
MODEL 4
REMARK VINA RESULT:      -6.6      2.883      5.342
REMARK  Name = 
REMARK  12 active torsions:
REMARK  status: ('A' for Active; 'I' for Inactive)
REMARK    1  A    between atoms: C_1  and  C_2
REMARK    2  A    between atoms: C_2  and  C_3
REMARK    3  A    between atoms: C_5  and  C_6
REMARK    4  A    between atoms: C_10  and  N_11
REMARK    5  A    between atoms: C_13  and  O_14
REMARK    6  A    between atoms: O_14  and  C_15
REMARK    7  A    between atoms: C_17  and  O_18
REMARK    8  A    between atoms: O_18  and  C_19
REMARK    9  A    between atoms: C_19  and  C_20
REMARK   10  A    between atoms: C_20  and  N_21
REMARK   11  A    between atoms: N_21  and  C_22
REMARK   12  A    between atoms: N_21  and  C_23
REMARK                            x       y       z     vdW  Elec       q    Type
REMARK                         _______ _______ _______ _____ _____    ______ ____
ROOT
ATOM      1  C   UNL     1       5.695   6.135  17.311  0.00  0.00    +0.000 A 
ATOM      2  C   UNL     1       4.736   7.047  17.806  0.00  0.00    +0.000 A 
ATOM      3  C   UNL     1       3.380   6.712  18.023  0.00  0.00    +0.000 A 
ATOM      4  C   UNL     1       3.001   5.379  17.782  0.00  0.00    +0.000 A 
ATOM      5  C   UNL     1       3.948   4.468  17.309  0.00  0.00    +0.000 A 
ATOM      6  C   UNL     1       5.276   4.834  17.012  0.00  0.00    +0.000 A 
ENDROOT
BRANCH   3   7
ATOM      7  C   UNL     1       2.447   7.741  18.541  0.00  0.00    +0.000 A 
ATOM      8  C   UNL     1       1.801   8.677  17.733  0.00  0.00    +0.000 A 
ATOM      9  C   UNL     1       0.887   9.554  18.299  0.00  0.00    +0.000 A 
ATOM     10  C   UNL     1       0.663   9.504  19.670  0.00  0.00    +0.000 A 
ATOM     11  C   UNL     1       1.373   8.582  20.422  0.00  0.00    +0.000 A 
ATOM     12  N   UNL     1       2.245   7.713  19.888  0.00  0.00    +0.000 NA
BRANCH  11  13
ATOM     13  N   UNL     1       1.224   8.534  21.805  0.00  0.00    +0.000 N 
ATOM     14  H   UNL     1       1.996   8.988  22.275  0.00  0.00    +0.000 HD
ATOM     15  H   UNL     1       0.336   8.988  22.011  0.00  0.00    +0.000 HD
ENDBRANCH  11  13
ENDBRANCH   3   7
BRANCH   1  17
ATOM     16  C   UNL     1       7.903   6.526  18.548  0.00  0.00    +0.000 C 
ATOM     17  C   UNL     1       7.136   6.593  17.228  0.00  0.00    +0.000 C 
ENDBRANCH   1  17
BRANCH   4  18
ATOM     18  O   UNL     1       1.704   5.026  18.058  0.00  0.00    +0.000 OA
ATOM     19  C   UNL     1       1.466   3.853  18.830  0.00  0.00    +0.000 C 
ENDBRANCH   4  18
BRANCH   6  20
ATOM     20  O   UNL     1       6.171   3.946  16.436  0.00  0.00    +0.000 OA
BRANCH  20  21
ATOM     21  C   UNL     1       5.818   3.602  15.082  0.00  0.00    +0.000 C 
BRANCH  21  22
ATOM     22  C   UNL     1       6.536   4.428  14.007  0.00  0.00    +0.000 C 
BRANCH  22  23
ATOM     23  N   UNL     1       6.618   3.702  12.713  0.00  0.00    +0.000 NA
ATOM     24  C   UNL     1       5.301   3.326  12.187  0.00  0.00    +0.000 C 
ATOM     25  C   UNL     1       7.326   4.510  11.717  0.00  0.00    +0.000 C 
ENDBRANCH  22  23
ENDBRANCH  21  22
ENDBRANCH  20  21
ENDBRANCH   6  20
TORSDOF 8
ENDMDL
MODEL 5
REMARK VINA RESULT:      -6.5      2.783      6.548
REMARK  Name = 
REMARK  12 active torsions:
REMARK  status: ('A' for Active; 'I' for Inactive)
REMARK    1  A    between atoms: C_1  and  C_2
REMARK    2  A    between atoms: C_2  and  C_3
REMARK    3  A    between atoms: C_5  and  C_6
REMARK    4  A    between atoms: C_10  and  N_11
REMARK    5  A    between atoms: C_13  and  O_14
REMARK    6  A    between atoms: O_14  and  C_15
REMARK    7  A    between atoms: C_17  and  O_18
REMARK    8  A    between atoms: O_18  and  C_19
REMARK    9  A    between atoms: C_19  and  C_20
REMARK   10  A    between atoms: C_20  and  N_21
REMARK   11  A    between atoms: N_21  and  C_22
REMARK   12  A    between atoms: N_21  and  C_23
REMARK                            x       y       z     vdW  Elec       q    Type
REMARK                         _______ _______ _______ _____ _____    ______ ____
ROOT
ATOM      1  C   UNL     1       3.637   4.268  17.630  0.00  0.00    +0.000 A 
ATOM      2  C   UNL     1       4.337   4.091  16.415  0.00  0.00    +0.000 A 
ATOM      3  C   UNL     1       5.382   4.940  15.985  0.00  0.00    +0.000 A 
ATOM      4  C   UNL     1       5.768   5.975  16.855  0.00  0.00    +0.000 A 
ATOM      5  C   UNL     1       5.093   6.146  18.066  0.00  0.00    +0.000 A 
ATOM      6  C   UNL     1       3.994   5.349  18.445  0.00  0.00    +0.000 A 
ENDROOT
BRANCH   3   7
ATOM      7  C   UNL     1       6.053   4.674  14.690  0.00  0.00    +0.000 A 
ATOM      8  C   UNL     1       5.586   3.755  13.750  0.00  0.00    +0.000 A 
ATOM      9  C   UNL     1       6.239   3.628  12.533  0.00  0.00    +0.000 A 
ATOM     10  C   UNL     1       7.372   4.397  12.292  0.00  0.00    +0.000 A 
ATOM     11  C   UNL     1       7.810   5.257  13.287  0.00  0.00    +0.000 A 
ATOM     12  N   UNL     1       7.178   5.406  14.461  0.00  0.00    +0.000 NA
BRANCH  11  13
ATOM     13  N   UNL     1       8.971   6.005  13.112  0.00  0.00    +0.000 N 
ATOM     14  H   UNL     1       9.566   5.602  12.400  0.00  0.00    +0.000 HD
ATOM     15  H   UNL     1       8.669   6.946  12.865  0.00  0.00    +0.000 HD
ENDBRANCH  11  13
ENDBRANCH   3   7
BRANCH   1  17
ATOM     16  C   UNL     1       3.177   1.816  18.200  0.00  0.00    +0.000 C 
ATOM     17  C   UNL     1       2.614   3.224  18.021  0.00  0.00    +0.000 C 
ENDBRANCH   1  17
BRANCH   4  18
ATOM     18  O   UNL     1       6.830   6.760  16.479  0.00  0.00    +0.000 OA
ATOM     19  C   UNL     1       7.521   7.497  17.482  0.00  0.00    +0.000 C 
ENDBRANCH   4  18
BRANCH   6  20
ATOM     20  O   UNL     1       3.264   5.605  19.595  0.00  0.00    +0.000 OA
BRANCH  20  21
ATOM     21  C   UNL     1       2.451   6.788  19.484  0.00  0.00    +0.000 C 
BRANCH  21  22
ATOM     22  C   UNL     1       1.731   7.192  20.778  0.00  0.00    +0.000 C 
BRANCH  22  23
ATOM     23  N   UNL     1       0.980   8.464  20.621  0.00  0.00    +0.000 NA
ATOM     24  C   UNL     1       1.143   9.365  21.769  0.00  0.00    +0.000 C 
ATOM     25  C   UNL     1       1.395   9.157  19.399  0.00  0.00    +0.000 C 
ENDBRANCH  22  23
ENDBRANCH  21  22
ENDBRANCH  20  21
ENDBRANCH   6  20
TORSDOF 8
ENDMDL
MODEL 6
REMARK VINA RESULT:      -6.4      2.962      7.168
REMARK  Name = 
REMARK  12 active torsions:
REMARK  status: ('A' for Active; 'I' for Inactive)
REMARK    1  A    between atoms: C_1  and  C_2
REMARK    2  A    between atoms: C_2  and  C_3
REMARK    3  A    between atoms: C_5  and  C_6
REMARK    4  A    between atoms: C_10  and  N_11
REMARK    5  A    between atoms: C_13  and  O_14
REMARK    6  A    between atoms: O_14  and  C_15
REMARK    7  A    between atoms: C_17  and  O_18
REMARK    8  A    between atoms: O_18  and  C_19
REMARK    9  A    between atoms: C_19  and  C_20
REMARK   10  A    between atoms: C_20  and  N_21
REMARK   11  A    between atoms: N_21  and  C_22
REMARK   12  A    between atoms: N_21  and  C_23
REMARK                            x       y       z     vdW  Elec       q    Type
REMARK                         _______ _______ _______ _____ _____    ______ ____
ROOT
ATOM      1  C   UNL     1       4.246   3.652  17.503  0.00  0.00    +0.000 A 
ATOM      2  C   UNL     1       4.832   3.680  16.217  0.00  0.00    +0.000 A 
ATOM      3  C   UNL     1       5.858   4.579  15.845  0.00  0.00    +0.000 A 
ATOM      4  C   UNL     1       6.345   5.444  16.842  0.00  0.00    +0.000 A 
ATOM      5  C   UNL     1       5.782   5.411  18.120  0.00  0.00    +0.000 A 
ATOM      6  C   UNL     1       4.701   4.572  18.454  0.00  0.00    +0.000 A 
ENDROOT
BRANCH   3   7
ATOM      7  C   UNL     1       6.406   4.534  14.469  0.00  0.00    +0.000 A 
ATOM      8  C   UNL     1       7.367   5.423  13.989  0.00  0.00    +0.000 A 
ATOM      9  C   UNL     1       7.876   5.257  12.709  0.00  0.00    +0.000 A 
ATOM     10  C   UNL     1       7.385   4.225  11.917  0.00  0.00    +0.000 A 
ATOM     11  C   UNL     1       6.396   3.406  12.438  0.00  0.00    +0.000 A 
ATOM     12  N   UNL     1       5.909   3.541  13.681  0.00  0.00    +0.000 NA
BRANCH  11  13
ATOM     13  N   UNL     1       5.835   2.395  11.663  0.00  0.00    +0.000 N 
ATOM     14  H   UNL     1       6.547   1.788  11.277  0.00  0.00    +0.000 HD
ATOM     15  H   UNL     1       5.197   1.889  12.274  0.00  0.00    +0.000 HD
ENDBRANCH  11  13
ENDBRANCH   3   7
BRANCH   1  17
ATOM     16  C   UNL     1       3.803   1.345  18.520  0.00  0.00    +0.000 C 
ATOM     17  C   UNL     1       3.235   2.567  17.801  0.00  0.00    +0.000 C 
ENDBRANCH   1  17
BRANCH   4  18
ATOM     18  O   UNL     1       7.389   6.271  16.511  0.00  0.00    +0.000 OA
ATOM     19  C   UNL     1       7.635   7.416  17.322  0.00  0.00    +0.000 C 
ENDBRANCH   4  18
BRANCH   6  20
ATOM     20  O   UNL     1       4.081   4.634  19.692  0.00  0.00    +0.000 OA
BRANCH  20  21
ATOM     21  C   UNL     1       2.801   5.292  19.640  0.00  0.00    +0.000 C 
BRANCH  21  22
ATOM     22  C   UNL     1       1.975   5.186  20.929  0.00  0.00    +0.000 C 
BRANCH  22  23
ATOM     23  N   UNL     1       1.240   3.897  21.011  0.00  0.00    +0.000 NA
ATOM     24  C   UNL     1       0.742   3.443  19.708  0.00  0.00    +0.000 C 
ATOM     25  C   UNL     1       2.092   2.858  21.594  0.00  0.00    +0.000 C 
ENDBRANCH  22  23
ENDBRANCH  21  22
ENDBRANCH  20  21
ENDBRANCH   6  20
TORSDOF 8
ENDMDL
MODEL 7
REMARK VINA RESULT:      -6.4      3.465      6.545
REMARK  Name = 
REMARK  12 active torsions:
REMARK  status: ('A' for Active; 'I' for Inactive)
REMARK    1  A    between atoms: C_1  and  C_2
REMARK    2  A    between atoms: C_2  and  C_3
REMARK    3  A    between atoms: C_5  and  C_6
REMARK    4  A    between atoms: C_10  and  N_11
REMARK    5  A    between atoms: C_13  and  O_14
REMARK    6  A    between atoms: O_14  and  C_15
REMARK    7  A    between atoms: C_17  and  O_18
REMARK    8  A    between atoms: O_18  and  C_19
REMARK    9  A    between atoms: C_19  and  C_20
REMARK   10  A    between atoms: C_20  and  N_21
REMARK   11  A    between atoms: N_21  and  C_22
REMARK   12  A    between atoms: N_21  and  C_23
REMARK                            x       y       z     vdW  Elec       q    Type
REMARK                         _______ _______ _______ _____ _____    ______ ____
ROOT
ATOM      1  C   UNL     1       2.191   8.178  18.447  0.00  0.00    +0.000 A 
ATOM      2  C   UNL     1       3.213   7.543  17.704  0.00  0.00    +0.000 A 
ATOM      3  C   UNL     1       3.860   6.357  18.121  0.00  0.00    +0.000 A 
ATOM      4  C   UNL     1       3.406   5.764  19.312  0.00  0.00    +0.000 A 
ATOM      5  C   UNL     1       2.385   6.375  20.043  0.00  0.00    +0.000 A 
ATOM      6  C   UNL     1       1.808   7.604  19.664  0.00  0.00    +0.000 A 
ENDROOT
BRANCH   3   7
ATOM      7  C   UNL     1       4.925   5.770  17.274  0.00  0.00    +0.000 A 
ATOM      8  C   UNL     1       4.854   5.691  15.883  0.00  0.00    +0.000 A 
ATOM      9  C   UNL     1       5.934   5.192  15.169  0.00  0.00    +0.000 A 
ATOM     10  C   UNL     1       7.052   4.745  15.863  0.00  0.00    +0.000 A 
ATOM     11  C   UNL     1       7.039   4.807  17.247  0.00  0.00    +0.000 A 
ATOM     12  N   UNL     1       6.011   5.305  17.951  0.00  0.00    +0.000 NA
BRANCH  11  13
ATOM     13  N   UNL     1       8.113   4.318  17.986  0.00  0.00    +0.000 N 
ATOM     14  H   UNL     1       8.982   4.754  17.706  0.00  0.00    +0.000 HD
ATOM     15  H   UNL     1       7.894   4.505  18.963  0.00  0.00    +0.000 HD
ENDBRANCH  11  13
ENDBRANCH   3   7
BRANCH   1  17
ATOM     16  C   UNL     1       2.132  10.725  18.202  0.00  0.00    +0.000 C 
ATOM     17  C   UNL     1       1.508   9.381  17.833  0.00  0.00    +0.000 C 
ENDBRANCH   1  17
BRANCH   4  18
ATOM     18  O   UNL     1       3.978   4.573  19.688  0.00  0.00    +0.000 OA
ATOM     19  C   UNL     1       3.218   3.378  19.548  0.00  0.00    +0.000 C 
ENDBRANCH   4  18
BRANCH   6  20
ATOM     20  O   UNL     1       0.877   8.253  20.460  0.00  0.00    +0.000 OA
BRANCH  20  21
ATOM     21  C   UNL     1       1.483   8.957  21.560  0.00  0.00    +0.000 C 
BRANCH  21  22
ATOM     22  C   UNL     1       0.520   9.303  22.704  0.00  0.00    +0.000 C 
BRANCH  22  23
ATOM     23  N   UNL     1       0.109  10.731  22.671  0.00  0.00    +0.000 NA
ATOM     24  C   UNL     1       0.256  11.333  21.340  0.00  0.00    +0.000 C 
ATOM     25  C   UNL     1      -1.278  10.875  23.117  0.00  0.00    +0.000 C 
ENDBRANCH  22  23
ENDBRANCH  21  22
ENDBRANCH  20  21
ENDBRANCH   6  20
TORSDOF 8
ENDMDL
MODEL 8
REMARK VINA RESULT:      -6.4      1.526      2.031
REMARK  Name = 
REMARK  12 active torsions:
REMARK  status: ('A' for Active; 'I' for Inactive)
REMARK    1  A    between atoms: C_1  and  C_2
REMARK    2  A    between atoms: C_2  and  C_3
REMARK    3  A    between atoms: C_5  and  C_6
REMARK    4  A    between atoms: C_10  and  N_11
REMARK    5  A    between atoms: C_13  and  O_14
REMARK    6  A    between atoms: O_14  and  C_15
REMARK    7  A    between atoms: C_17  and  O_18
REMARK    8  A    between atoms: O_18  and  C_19
REMARK    9  A    between atoms: C_19  and  C_20
REMARK   10  A    between atoms: C_20  and  N_21
REMARK   11  A    between atoms: N_21  and  C_22
REMARK   12  A    between atoms: N_21  and  C_23
REMARK                            x       y       z     vdW  Elec       q    Type
REMARK                         _______ _______ _______ _____ _____    ______ ____
ROOT
ATOM      1  C   UNL     1       6.661   5.765  18.336  0.00  0.00    +0.000 A 
ATOM      2  C   UNL     1       5.510   5.128  18.853  0.00  0.00    +0.000 A 
ATOM      3  C   UNL     1       4.192   5.558  18.582  0.00  0.00    +0.000 A 
ATOM      4  C   UNL     1       4.039   6.645  17.702  0.00  0.00    +0.000 A 
ATOM      5  C   UNL     1       5.171   7.269  17.173  0.00  0.00    +0.000 A 
ATOM      6  C   UNL     1       6.483   6.888  17.519  0.00  0.00    +0.000 A 
ENDROOT
BRANCH   3   7
ATOM      7  C   UNL     1       3.048   4.827  19.176  0.00  0.00    +0.000 A 
ATOM      8  C   UNL     1       2.254   5.335  20.205  0.00  0.00    +0.000 A 
ATOM      9  C   UNL     1       1.158   4.607  20.646  0.00  0.00    +0.000 A 
ATOM     10  C   UNL     1       0.897   3.367  20.077  0.00  0.00    +0.000 A 
ATOM     11  C   UNL     1       1.753   2.900  19.092  0.00  0.00    +0.000 A 
ATOM     12  N   UNL     1       2.805   3.599  18.639  0.00  0.00    +0.000 NA
BRANCH  11  13
ATOM     13  N   UNL     1       1.565   1.639  18.533  0.00  0.00    +0.000 N 
ATOM     14  H   UNL     1       1.969   0.914  19.112  0.00  0.00    +0.000 HD
ATOM     15  H   UNL     1       0.558   1.522  18.428  0.00  0.00    +0.000 HD
ENDBRANCH  11  13
ENDBRANCH   3   7
BRANCH   1  17
ATOM     16  C   UNL     1       8.533   5.356  20.033  0.00  0.00    +0.000 C 
ATOM     17  C   UNL     1       8.009   5.137  18.616  0.00  0.00    +0.000 C 
ENDBRANCH   1  17
BRANCH   4  18
ATOM     18  O   UNL     1       2.761   7.025  17.376  0.00  0.00    +0.000 OA
ATOM     19  C   UNL     1       2.306   8.310  17.787  0.00  0.00    +0.000 C 
ENDBRANCH   4  18
BRANCH   6  20
ATOM     20  O   UNL     1       7.592   7.590  17.075  0.00  0.00    +0.000 OA
BRANCH  20  21
ATOM     21  C   UNL     1       7.650   8.929  17.604  0.00  0.00    +0.000 C 
BRANCH  21  22
ATOM     22  C   UNL     1       8.756   9.158  18.642  0.00  0.00    +0.000 C 
BRANCH  22  23
ATOM     23  N   UNL     1       8.982  10.603  18.901  0.00  0.00    +0.000 NA
ATOM     24  C   UNL     1       9.448  10.869  20.268  0.00  0.00    +0.000 C 
ATOM     25  C   UNL     1       9.947  11.150  17.945  0.00  0.00    +0.000 C 
ENDBRANCH  22  23
ENDBRANCH  21  22
ENDBRANCH  20  21
ENDBRANCH   6  20
TORSDOF 8
ENDMDL
MODEL 9
REMARK VINA RESULT:      -6.4      2.421      7.104
REMARK  Name = 
REMARK  12 active torsions:
REMARK  status: ('A' for Active; 'I' for Inactive)
REMARK    1  A    between atoms: C_1  and  C_2
REMARK    2  A    between atoms: C_2  and  C_3
REMARK    3  A    between atoms: C_5  and  C_6
REMARK    4  A    between atoms: C_10  and  N_11
REMARK    5  A    between atoms: C_13  and  O_14
REMARK    6  A    between atoms: O_14  and  C_15
REMARK    7  A    between atoms: C_17  and  O_18
REMARK    8  A    between atoms: O_18  and  C_19
REMARK    9  A    between atoms: C_19  and  C_20
REMARK   10  A    between atoms: C_20  and  N_21
REMARK   11  A    between atoms: N_21  and  C_22
REMARK   12  A    between atoms: N_21  and  C_23
REMARK                            x       y       z     vdW  Elec       q    Type
REMARK                         _______ _______ _______ _____ _____    ______ ____
ROOT
ATOM      1  C   UNL     1       3.397   4.543  17.275  0.00  0.00    +0.000 A 
ATOM      2  C   UNL     1       4.174   4.308  16.118  0.00  0.00    +0.000 A 
ATOM      3  C   UNL     1       5.321   5.063  15.781  0.00  0.00    +0.000 A 
ATOM      4  C   UNL     1       5.723   6.059  16.689  0.00  0.00    +0.000 A 
ATOM      5  C   UNL     1       4.970   6.286  17.843  0.00  0.00    +0.000 A 
ATOM      6  C   UNL     1       3.779   5.587  18.126  0.00  0.00    +0.000 A 
ENDROOT
BRANCH   3   7
ATOM      7  C   UNL     1       6.068   4.743  14.542  0.00  0.00    +0.000 A 
ATOM      8  C   UNL     1       5.654   3.788  13.613  0.00  0.00    +0.000 A 
ATOM      9  C   UNL     1       6.380   3.610  12.444  0.00  0.00    +0.000 A 
ATOM     10  C   UNL     1       7.530   4.364  12.243  0.00  0.00    +0.000 A 
ATOM     11  C   UNL     1       7.912   5.261  13.228  0.00  0.00    +0.000 A 
ATOM     12  N   UNL     1       7.210   5.460  14.353  0.00  0.00    +0.000 NA
BRANCH  11  13
ATOM     13  N   UNL     1       9.086   5.997  13.095  0.00  0.00    +0.000 N 
ATOM     14  H   UNL     1       9.874   5.511  13.504  0.00  0.00    +0.000 HD
ATOM     15  H   UNL     1       9.214   6.151  12.096  0.00  0.00    +0.000 HD
ENDBRANCH  11  13
ENDBRANCH   3   7
BRANCH   1  17
ATOM     16  C   UNL     1       2.650   2.115  17.591  0.00  0.00    +0.000 C 
ATOM     17  C   UNL     1       2.259   3.592  17.574  0.00  0.00    +0.000 C 
ENDBRANCH   1  17
BRANCH   4  18
ATOM     18  O   UNL     1       6.876   6.749  16.406  0.00  0.00    +0.000 OA
ATOM     19  C   UNL     1       7.484   7.513  17.443  0.00  0.00    +0.000 C 
ENDBRANCH   4  18
BRANCH   6  20
ATOM     20  O   UNL     1       2.984   5.903  19.216  0.00  0.00    +0.000 OA
BRANCH  20  21
ATOM     21  C   UNL     1       3.323   5.141  20.390  0.00  0.00    +0.000 C 
BRANCH  21  22
ATOM     22  C   UNL     1       2.118   4.602  21.172  0.00  0.00    +0.000 C 
BRANCH  22  23
ATOM     23  N   UNL     1       2.392   3.267  21.762  0.00  0.00    +0.000 NA
ATOM     24  C   UNL     1       1.201   2.409  21.804  0.00  0.00    +0.000 C 
ATOM     25  C   UNL     1       3.454   2.586  21.017  0.00  0.00    +0.000 C 
ENDBRANCH  22  23
ENDBRANCH  21  22
ENDBRANCH  20  21
ENDBRANCH   6  20
TORSDOF 8
ENDMDL
