MODEL 1
REMARK VINA RESULT:      -8.6      0.000      0.000
REMARK  Name = 
REMARK  5 active torsions:
REMARK  status: ('A' for Active; 'I' for Inactive)
REMARK    1  A    between atoms: C_1  and  O_2
REMARK    2  A    between atoms: O_2  and  C_3
REMARK    3  A    between atoms: C_6  and  N_7
REMARK    4  A    between atoms: C_22  and  C_23
REMARK    5  A    between atoms: C_23  and  O_25
REMARK                            x       y       z     vdW  Elec       q    Type
REMARK                         _______ _______ _______ _____ _____    ______ ____
ROOT
ATOM      1  N   UNL     1       2.213   7.709  18.884  0.00  0.00    +0.000 N 
ATOM      2  C   UNL     1       2.381   8.614  17.863  0.00  0.00    +0.000 C 
ATOM      3  O   UNL     1       3.000   8.419  16.819  0.00  0.00    +0.000 OA
ATOM      4  N   UNL     1       1.742   9.821  18.013  0.00  0.00    +0.000 N 
ATOM      5  C   UNL     1       1.070  10.196  19.139  0.00  0.00    +0.000 A 
ATOM      6  N   UNL     1       1.098   9.574  20.287  0.00  0.00    +0.000 NA
ATOM      7  C   UNL     1       0.224  10.180  21.158  0.00  0.00    +0.000 A 
ATOM      8  C   UNL     1      -0.013   9.770  22.481  0.00  0.00    +0.000 A 
ATOM      9  C   UNL     1      -0.989  10.422  23.234  0.00  0.00    +0.000 A 
ATOM     10  C   UNL     1      -1.718  11.471  22.678  0.00  0.00    +0.000 A 
ATOM     11 CL   UNL     1      -2.954  12.221  23.612  0.00  0.00    +0.000 Cl
ATOM     12  C   UNL     1      -1.477  11.923  21.376  0.00  0.00    +0.000 A 
ATOM     13  C   UNL     1      -0.486  11.261  20.629  0.00  0.00    +0.000 A 
ATOM     14  S   UNL     1       0.071  11.563  19.019  0.00  0.00    +0.000 S 
ATOM     15  H   UNL     1       1.706   8.066  19.692  0.00  0.00    +0.000 HD
ATOM     16  H   UNL     1       1.745  10.431  17.211  0.00  0.00    +0.000 HD
ENDROOT
BRANCH   1  20
ATOM     17  C   UNL     1       3.542   3.737  19.349  0.00  0.00    +0.000 A 
ATOM     18  C   UNL     1       4.108   4.553  18.363  0.00  0.00    +0.000 A 
ATOM     19  C   UNL     1       3.677   5.867  18.187  0.00  0.00    +0.000 A 
ATOM     20  C   UNL     1       2.666   6.387  18.982  0.00  0.00    +0.000 A 
ATOM     21  C   UNL     1       2.054   5.559  19.933  0.00  0.00    +0.000 A 
ATOM     22  C   UNL     1       2.478   4.230  20.123  0.00  0.00    +0.000 A 
BRANCH  17  24
ATOM     23  C   UNL     1       3.575   1.518  18.538  0.00  0.00    +0.000 C 
ATOM     24  O   UNL     1       3.965   2.445  19.556  0.00  0.00    +0.000 OA
ENDBRANCH  17  24
BRANCH  22  25
ATOM     25  C   UNL     1       1.757   3.448  21.176  0.00  0.00    +0.000 C 
ATOM     26  O   UNL     1       2.228   3.262  22.289  0.00  0.00    +0.000 OA
BRANCH  25  27
ATOM     27  O   UNL     1       0.555   2.950  20.823  0.00  0.00    +0.000 OA
ATOM     28  H   UNL     1       0.368   2.076  21.226  0.00  0.00    +0.000 HD
ENDBRANCH  25  27
ENDBRANCH  22  25
ENDBRANCH   1  20
TORSDOF 4
ENDMDL
MODEL 2
REMARK VINA RESULT:      -8.5      1.164      2.182
REMARK  Name = 
REMARK  5 active torsions:
REMARK  status: ('A' for Active; 'I' for Inactive)
REMARK    1  A    between atoms: C_1  and  O_2
REMARK    2  A    between atoms: O_2  and  C_3
REMARK    3  A    between atoms: C_6  and  N_7
REMARK    4  A    between atoms: C_22  and  C_23
REMARK    5  A    between atoms: C_23  and  O_25
REMARK                            x       y       z     vdW  Elec       q    Type
REMARK                         _______ _______ _______ _____ _____    ______ ____
ROOT
ATOM      1  N   UNL     1       2.121   7.657  19.097  0.00  0.00    +0.000 N 
ATOM      2  C   UNL     1       2.281   8.499  18.021  0.00  0.00    +0.000 C 
ATOM      3  O   UNL     1       2.900   8.244  16.990  0.00  0.00    +0.000 OA
ATOM      4  N   UNL     1       1.635   9.708  18.098  0.00  0.00    +0.000 N 
ATOM      5  C   UNL     1       0.962  10.148  19.200  0.00  0.00    +0.000 A 
ATOM      6  N   UNL     1       0.996   9.598  20.384  0.00  0.00    +0.000 NA
ATOM      7  C   UNL     1       0.120  10.251  21.218  0.00  0.00    +0.000 A 
ATOM      8  C   UNL     1      -0.113   9.922  22.564  0.00  0.00    +0.000 A 
ATOM      9  C   UNL     1      -1.092  10.613  23.278  0.00  0.00    +0.000 A 
ATOM     10  C   UNL     1      -1.828  11.620  22.660  0.00  0.00    +0.000 A 
ATOM     11 CL   UNL     1      -3.068  12.418  23.548  0.00  0.00    +0.000 Cl
ATOM     12  C   UNL     1      -1.593  11.992  21.332  0.00  0.00    +0.000 A 
ATOM     13  C   UNL     1      -0.598  11.292  20.625  0.00  0.00    +0.000 A 
ATOM     14  S   UNL     1      -0.046  11.497  18.998  0.00  0.00    +0.000 S 
ATOM     15  H   UNL     1       1.614   8.060  19.882  0.00  0.00    +0.000 HD
ATOM     16  H   UNL     1       1.633  10.268  17.260  0.00  0.00    +0.000 HD
ENDROOT
BRANCH   1  20
ATOM     17  C   UNL     1       3.637   3.747  19.517  0.00  0.00    +0.000 A 
ATOM     18  C   UNL     1       2.270   3.991  19.695  0.00  0.00    +0.000 A 
ATOM     19  C   UNL     1       1.750   5.278  19.569  0.00  0.00    +0.000 A 
ATOM     20  C   UNL     1       2.583   6.347  19.275  0.00  0.00    +0.000 A 
ATOM     21  C   UNL     1       3.961   6.121  19.151  0.00  0.00    +0.000 A 
ATOM     22  C   UNL     1       4.502   4.828  19.276  0.00  0.00    +0.000 A 
BRANCH  17  24
ATOM     23  C   UNL     1       3.673   1.549  18.650  0.00  0.00    +0.000 C 
ATOM     24  O   UNL     1       4.170   2.484  19.614  0.00  0.00    +0.000 OA
ENDBRANCH  17  24
BRANCH  22  25
ATOM     25  C   UNL     1       5.985   4.710  19.110  0.00  0.00    +0.000 C 
ATOM     26  O   UNL     1       6.772   5.327  19.813  0.00  0.00    +0.000 OA
BRANCH  25  27
ATOM     27  O   UNL     1       6.407   3.887  18.128  0.00  0.00    +0.000 OA
ATOM     28  H   UNL     1       6.434   4.321  17.250  0.00  0.00    +0.000 HD
ENDBRANCH  25  27
ENDBRANCH  22  25
ENDBRANCH   1  20
TORSDOF 4
ENDMDL
MODEL 3
REMARK VINA RESULT:      -8.3      2.847      4.375
REMARK  Name = 
REMARK  5 active torsions:
REMARK  status: ('A' for Active; 'I' for Inactive)
REMARK    1  A    between atoms: C_1  and  O_2
REMARK    2  A    between atoms: O_2  and  C_3
REMARK    3  A    between atoms: C_6  and  N_7
REMARK    4  A    between atoms: C_22  and  C_23
REMARK    5  A    between atoms: C_23  and  O_25
REMARK                            x       y       z     vdW  Elec       q    Type
REMARK                         _______ _______ _______ _____ _____    ______ ____
ROOT
ATOM      1  N   UNL     1       2.837   6.081  19.338  0.00  0.00    +0.000 N 
ATOM      2  C   UNL     1       2.257   5.648  20.507  0.00  0.00    +0.000 C 
ATOM      3  O   UNL     1       2.342   4.516  20.978  0.00  0.00    +0.000 OA
ATOM      4  N   UNL     1       1.577   6.595  21.232  0.00  0.00    +0.000 N 
ATOM      5  C   UNL     1       1.354   7.871  20.806  0.00  0.00    +0.000 A 
ATOM      6  N   UNL     1       1.569   8.320  19.599  0.00  0.00    +0.000 NA
ATOM      7  C   UNL     1       1.327   9.673  19.563  0.00  0.00    +0.000 A 
ATOM      8  C   UNL     1       1.466  10.490  18.428  0.00  0.00    +0.000 A 
ATOM      9  C   UNL     1       1.269  11.865  18.547  0.00  0.00    +0.000 A 
ATOM     10  C   UNL     1       0.936  12.420  19.780  0.00  0.00    +0.000 A 
ATOM     11 CL   UNL     1       0.753  14.127  19.909  0.00  0.00    +0.000 Cl
ATOM     12  C   UNL     1       0.755  11.627  20.918  0.00  0.00    +0.000 A 
ATOM     13  C   UNL     1       0.950  10.240  20.783  0.00  0.00    +0.000 A 
ATOM     14  S   UNL     1       0.800   8.983  21.962  0.00  0.00    +0.000 S 
ATOM     15  H   UNL     1       2.619   7.043  19.084  0.00  0.00    +0.000 HD
ATOM     16  H   UNL     1       1.272   6.320  22.152  0.00  0.00    +0.000 HD
ENDROOT
BRANCH   1  20
ATOM     17  C   UNL     1       5.395   4.105  16.634  0.00  0.00    +0.000 A 
ATOM     18  C   UNL     1       4.011   3.912  16.556  0.00  0.00    +0.000 A 
ATOM     19  C   UNL     1       3.147   4.550  17.446  0.00  0.00    +0.000 A 
ATOM     20  C   UNL     1       3.649   5.381  18.437  0.00  0.00    +0.000 A 
ATOM     21  C   UNL     1       5.036   5.535  18.558  0.00  0.00    +0.000 A 
ATOM     22  C   UNL     1       5.921   4.898  17.667  0.00  0.00    +0.000 A 
BRANCH  17  24
ATOM     23  C   UNL     1       6.239   4.044  14.428  0.00  0.00    +0.000 C 
ATOM     24  O   UNL     1       6.264   3.505  15.754  0.00  0.00    +0.000 OA
ENDBRANCH  17  24
BRANCH  22  25
ATOM     25  C   UNL     1       7.380   5.148  17.890  0.00  0.00    +0.000 C 
ATOM     26  O   UNL     1       7.812   6.242  18.221  0.00  0.00    +0.000 OA
BRANCH  25  27
ATOM     27  O   UNL     1       8.197   4.093  17.692  0.00  0.00    +0.000 OA
ATOM     28  H   UNL     1       7.946   3.553  16.914  0.00  0.00    +0.000 HD
ENDBRANCH  25  27
ENDBRANCH  22  25
ENDBRANCH   1  20
TORSDOF 4
ENDMDL
MODEL 4
REMARK VINA RESULT:      -8.2      1.201      1.432
REMARK  Name = 
REMARK  5 active torsions:
REMARK  status: ('A' for Active; 'I' for Inactive)
REMARK    1  A    between atoms: C_1  and  O_2
REMARK    2  A    between atoms: O_2  and  C_3
REMARK    3  A    between atoms: C_6  and  N_7
REMARK    4  A    between atoms: C_22  and  C_23
REMARK    5  A    between atoms: C_23  and  O_25
REMARK                            x       y       z     vdW  Elec       q    Type
REMARK                         _______ _______ _______ _____ _____    ______ ____
ROOT
ATOM      1  N   UNL     1       2.425   7.368  18.825  0.00  0.00    +0.000 N 
ATOM      2  C   UNL     1       2.537   8.245  17.772  0.00  0.00    +0.000 C 
ATOM      3  O   UNL     1       3.125   8.032  16.714  0.00  0.00    +0.000 OA
ATOM      4  N   UNL     1       1.874   9.440  17.908  0.00  0.00    +0.000 N 
ATOM      5  C   UNL     1       1.231   9.835  19.043  0.00  0.00    +0.000 A 
ATOM      6  N   UNL     1       1.312   9.249  20.208  0.00  0.00    +0.000 NA
ATOM      7  C   UNL     1       0.453   9.861  21.090  0.00  0.00    +0.000 A 
ATOM      8  C   UNL     1       0.271   9.487  22.432  0.00  0.00    +0.000 A 
ATOM      9  C   UNL     1      -0.695  10.139  23.198  0.00  0.00    +0.000 A 
ATOM     10  C   UNL     1      -1.468  11.152  22.636  0.00  0.00    +0.000 A 
ATOM     11 CL   UNL     1      -2.690  11.902  23.588  0.00  0.00    +0.000 Cl
ATOM     12  C   UNL     1      -1.282  11.569  21.314  0.00  0.00    +0.000 A 
ATOM     13  C   UNL     1      -0.300  10.908  20.553  0.00  0.00    +0.000 A 
ATOM     14  S   UNL     1       0.195  11.172  18.917  0.00  0.00    +0.000 S 
ATOM     15  H   UNL     1       1.937   7.738  19.639  0.00  0.00    +0.000 HD
ATOM     16  H   UNL     1       1.835  10.025  17.088  0.00  0.00    +0.000 HD
ENDROOT
BRANCH   1  20
ATOM     17  C   UNL     1       3.737   3.385  19.246  0.00  0.00    +0.000 A 
ATOM     18  C   UNL     1       4.631   4.442  19.453  0.00  0.00    +0.000 A 
ATOM     19  C   UNL     1       4.220   5.766  19.311  0.00  0.00    +0.000 A 
ATOM     20  C   UNL     1       2.914   6.061  18.948  0.00  0.00    +0.000 A 
ATOM     21  C   UNL     1       2.027   5.008  18.683  0.00  0.00    +0.000 A 
ATOM     22  C   UNL     1       2.427   3.666  18.822  0.00  0.00    +0.000 A 
BRANCH  17  24
ATOM     23  C   UNL     1       4.704   1.766  20.670  0.00  0.00    +0.000 C 
ATOM     24  O   UNL     1       4.114   2.072  19.402  0.00  0.00    +0.000 OA
ENDBRANCH  17  24
BRANCH  22  25
ATOM     25  C   UNL     1       1.389   2.630  18.523  0.00  0.00    +0.000 C 
ATOM     26  O   UNL     1       0.293   2.629  19.064  0.00  0.00    +0.000 OA
BRANCH  25  27
ATOM     27  O   UNL     1       1.738   1.686  17.625  0.00  0.00    +0.000 OA
ATOM     28  H   UNL     1       2.662   1.777  17.312  0.00  0.00    +0.000 HD
ENDBRANCH  25  27
ENDBRANCH  22  25
ENDBRANCH   1  20
TORSDOF 4
ENDMDL
MODEL 5
REMARK VINA RESULT:      -8.2      2.947      4.350
REMARK  Name = 
REMARK  5 active torsions:
REMARK  status: ('A' for Active; 'I' for Inactive)
REMARK    1  A    between atoms: C_1  and  O_2
REMARK    2  A    between atoms: O_2  and  C_3
REMARK    3  A    between atoms: C_6  and  N_7
REMARK    4  A    between atoms: C_22  and  C_23
REMARK    5  A    between atoms: C_23  and  O_25
REMARK                            x       y       z     vdW  Elec       q    Type
REMARK                         _______ _______ _______ _____ _____    ______ ____
ROOT
ATOM      1  N   UNL     1       3.255   6.822  18.955  0.00  0.00    +0.000 N 
ATOM      2  C   UNL     1       2.685   6.069  19.955  0.00  0.00    +0.000 C 
ATOM      3  O   UNL     1       2.952   4.898  20.218  0.00  0.00    +0.000 OA
ATOM      4  N   UNL     1       1.783   6.718  20.761  0.00  0.00    +0.000 N 
ATOM      5  C   UNL     1       1.350   7.994  20.554  0.00  0.00    +0.000 A 
ATOM      6  N   UNL     1       1.563   8.706  19.479  0.00  0.00    +0.000 NA
ATOM      7  C   UNL     1       1.067   9.975  19.665  0.00  0.00    +0.000 A 
ATOM      8  C   UNL     1       1.129  11.014  18.720  0.00  0.00    +0.000 A 
ATOM      9  C   UNL     1       0.662  12.281  19.066  0.00  0.00    +0.000 A 
ATOM     10  C   UNL     1       0.137  12.511  20.335  0.00  0.00    +0.000 A 
ATOM     11 CL   UNL     1      -0.381  14.099  20.753  0.00  0.00    +0.000 Cl
ATOM     12  C   UNL     1       0.029  11.487  21.282  0.00  0.00    +0.000 A 
ATOM     13  C   UNL     1       0.498  10.212  20.919  0.00  0.00    +0.000 A 
ATOM     14  S   UNL     1       0.507   8.737  21.825  0.00  0.00    +0.000 S 
ATOM     15  H   UNL     1       2.874   7.761  18.859  0.00  0.00    +0.000 HD
ATOM     16  H   UNL     1       1.470   6.215  21.576  0.00  0.00    +0.000 HD
ENDROOT
BRANCH   1  20
ATOM     17  C   UNL     1       6.373   5.798  16.311  0.00  0.00    +0.000 A 
ATOM     18  C   UNL     1       5.179   6.329  15.812  0.00  0.00    +0.000 A 
ATOM     19  C   UNL     1       4.132   6.667  16.668  0.00  0.00    +0.000 A 
ATOM     20  C   UNL     1       4.251   6.469  18.036  0.00  0.00    +0.000 A 
ATOM     21  C   UNL     1       5.421   5.884  18.539  0.00  0.00    +0.000 A 
ATOM     22  C   UNL     1       6.488   5.538  17.688  0.00  0.00    +0.000 A 
BRANCH  17  24
ATOM     23  C   UNL     1       7.061   4.792  14.287  0.00  0.00    +0.000 C 
ATOM     24  O   UNL     1       7.427   5.478  15.489  0.00  0.00    +0.000 OA
ENDBRANCH  17  24
BRANCH  22  25
ATOM     25  C   UNL     1       7.689   4.932  18.343  0.00  0.00    +0.000 C 
ATOM     26  O   UNL     1       8.079   5.284  19.446  0.00  0.00    +0.000 OA
BRANCH  25  27
ATOM     27  O   UNL     1       8.328   3.976  17.636  0.00  0.00    +0.000 OA
ATOM     28  H   UNL     1       9.000   4.338  17.022  0.00  0.00    +0.000 HD
ENDBRANCH  25  27
ENDBRANCH  22  25
ENDBRANCH   1  20
TORSDOF 4
ENDMDL
MODEL 6
REMARK VINA RESULT:      -7.9      4.575      8.632
REMARK  Name = 
REMARK  5 active torsions:
REMARK  status: ('A' for Active; 'I' for Inactive)
REMARK    1  A    between atoms: C_1  and  O_2
REMARK    2  A    between atoms: O_2  and  C_3
REMARK    3  A    between atoms: C_6  and  N_7
REMARK    4  A    between atoms: C_22  and  C_23
REMARK    5  A    between atoms: C_23  and  O_25
REMARK                            x       y       z     vdW  Elec       q    Type
REMARK                         _______ _______ _______ _____ _____    ______ ____
ROOT
ATOM      1  N   UNL     1       1.432   8.791  19.679  0.00  0.00    +0.000 N 
ATOM      2  C   UNL     1       1.255   7.950  20.753  0.00  0.00    +0.000 C 
ATOM      3  O   UNL     1       0.562   8.179  21.743  0.00  0.00    +0.000 OA
ATOM      4  N   UNL     1       1.868   6.724  20.669  0.00  0.00    +0.000 N 
ATOM      5  C   UNL     1       2.710   6.357  19.662  0.00  0.00    +0.000 A 
ATOM      6  N   UNL     1       3.210   7.155  18.756  0.00  0.00    +0.000 NA
ATOM      7  C   UNL     1       3.933   6.420  17.846  0.00  0.00    +0.000 A 
ATOM      8  C   UNL     1       4.602   6.949  16.730  0.00  0.00    +0.000 A 
ATOM      9  C   UNL     1       5.231   6.083  15.836  0.00  0.00    +0.000 A 
ATOM     10  C   UNL     1       5.196   4.708  16.053  0.00  0.00    +0.000 A 
ATOM     11 CL   UNL     1       5.934   3.659  14.905  0.00  0.00    +0.000 Cl
ATOM     12  C   UNL     1       4.569   4.157  17.175  0.00  0.00    +0.000 A 
ATOM     13  C   UNL     1       3.943   5.042  18.072  0.00  0.00    +0.000 A 
ATOM     14  S   UNL     1       3.099   4.709  19.546  0.00  0.00    +0.000 S 
ATOM     15  H   UNL     1       2.080   8.449  18.972  0.00  0.00    +0.000 HD
ATOM     16  H   UNL     1       1.629   6.055  21.383  0.00  0.00    +0.000 HD
ENDROOT
BRANCH   1  20
ATOM     17  C   UNL     1      -0.295  12.535  18.807  0.00  0.00    +0.000 A 
ATOM     18  C   UNL     1       0.859  12.463  19.597  0.00  0.00    +0.000 A 
ATOM     19  C   UNL     1       1.441  11.234  19.904  0.00  0.00    +0.000 A 
ATOM     20  C   UNL     1       0.878  10.054  19.440  0.00  0.00    +0.000 A 
ATOM     21  C   UNL     1      -0.309  10.113  18.697  0.00  0.00    +0.000 A 
ATOM     22  C   UNL     1      -0.910  11.346  18.379  0.00  0.00    +0.000 A 
BRANCH  17  24
ATOM     23  C   UNL     1      -0.115  14.891  18.846  0.00  0.00    +0.000 C 
ATOM     24  O   UNL     1      -0.874  13.736  18.473  0.00  0.00    +0.000 OA
ENDBRANCH  17  24
BRANCH  22  25
ATOM     25  C   UNL     1      -2.167  11.282  17.570  0.00  0.00    +0.000 C 
ATOM     26  O   UNL     1      -3.192  10.768  17.994  0.00  0.00    +0.000 OA
BRANCH  25  27
ATOM     27  O   UNL     1      -2.102  11.818  16.333  0.00  0.00    +0.000 OA
ATOM     28  H   UNL     1      -1.268  11.604  15.866  0.00  0.00    +0.000 HD
ENDBRANCH  25  27
ENDBRANCH  22  25
ENDBRANCH   1  20
TORSDOF 4
ENDMDL
MODEL 7
REMARK VINA RESULT:      -7.8      1.259      2.381
REMARK  Name = 
REMARK  5 active torsions:
REMARK  status: ('A' for Active; 'I' for Inactive)
REMARK    1  A    between atoms: C_1  and  O_2
REMARK    2  A    between atoms: O_2  and  C_3
REMARK    3  A    between atoms: C_6  and  N_7
REMARK    4  A    between atoms: C_22  and  C_23
REMARK    5  A    between atoms: C_23  and  O_25
REMARK                            x       y       z     vdW  Elec       q    Type
REMARK                         _______ _______ _______ _____ _____    ______ ____
ROOT
ATOM      1  N   UNL     1       1.872   8.111  19.231  0.00  0.00    +0.000 N 
ATOM      2  C   UNL     1       2.045   8.884  18.107  0.00  0.00    +0.000 C 
ATOM      3  O   UNL     1       2.691   8.572  17.109  0.00  0.00    +0.000 OA
ATOM      4  N   UNL     1       1.379  10.085  18.091  0.00  0.00    +0.000 N 
ATOM      5  C   UNL     1       0.675  10.585  19.147  0.00  0.00    +0.000 A 
ATOM      6  N   UNL     1       0.690  10.113  20.365  0.00  0.00    +0.000 NA
ATOM      7  C   UNL     1      -0.215  10.804  21.135  0.00  0.00    +0.000 A 
ATOM      8  C   UNL     1      -0.473  10.559  22.494  0.00  0.00    +0.000 A 
ATOM      9  C   UNL     1      -1.478  11.279  23.140  0.00  0.00    +0.000 A 
ATOM     10  C   UNL     1      -2.215  12.232  22.441  0.00  0.00    +0.000 A 
ATOM     11 CL   UNL     1      -3.486  13.067  23.248  0.00  0.00    +0.000 Cl
ATOM     12  C   UNL     1      -1.955  12.522  21.097  0.00  0.00    +0.000 A 
ATOM     13  C   UNL     1      -0.934  11.793  20.460  0.00  0.00    +0.000 A 
ATOM     14  S   UNL     1      -0.348  11.902  18.835  0.00  0.00    +0.000 S 
ATOM     15  H   UNL     1       1.341   8.555  19.978  0.00  0.00    +0.000 HD
ATOM     16  H   UNL     1       1.388  10.589  17.219  0.00  0.00    +0.000 HD
ENDROOT
BRANCH   1  20
ATOM     17  C   UNL     1       3.342   4.216  19.885  0.00  0.00    +0.000 A 
ATOM     18  C   UNL     1       2.328   4.727  20.702  0.00  0.00    +0.000 A 
ATOM     19  C   UNL     1       1.833   6.016  20.508  0.00  0.00    +0.000 A 
ATOM     20  C   UNL     1       2.349   6.823  19.505  0.00  0.00    +0.000 A 
ATOM     21  C   UNL     1       3.404   6.340  18.719  0.00  0.00    +0.000 A 
ATOM     22  C   UNL     1       3.915   5.041  18.902  0.00  0.00    +0.000 A 
BRANCH  17  24
ATOM     23  C   UNL     1       3.274   2.219  21.147  0.00  0.00    +0.000 C 
ATOM     24  O   UNL     1       3.831   2.940  20.043  0.00  0.00    +0.000 OA
ENDBRANCH  17  24
BRANCH  22  25
ATOM     25  C   UNL     1       5.033   4.634  17.994  0.00  0.00    +0.000 C 
ATOM     26  O   UNL     1       5.006   4.843  16.790  0.00  0.00    +0.000 OA
BRANCH  25  27
ATOM     27  O   UNL     1       6.074   4.010  18.583  0.00  0.00    +0.000 OA
ATOM     28  H   UNL     1       6.616   4.608  19.139  0.00  0.00    +0.000 HD
ENDBRANCH  25  27
ENDBRANCH  22  25
ENDBRANCH   1  20
TORSDOF 4
ENDMDL
MODEL 8
REMARK VINA RESULT:      -7.8      4.899      8.389
REMARK  Name = 
REMARK  5 active torsions:
REMARK  status: ('A' for Active; 'I' for Inactive)
REMARK    1  A    between atoms: C_1  and  O_2
REMARK    2  A    between atoms: O_2  and  C_3
REMARK    3  A    between atoms: C_6  and  N_7
REMARK    4  A    between atoms: C_22  and  C_23
REMARK    5  A    between atoms: C_23  and  O_25
REMARK                            x       y       z     vdW  Elec       q    Type
REMARK                         _______ _______ _______ _____ _____    ______ ____
ROOT
ATOM      1  N   UNL     1       2.326   6.692  19.547  0.00  0.00    +0.000 N 
ATOM      2  C   UNL     1       2.218   5.502  20.228  0.00  0.00    +0.000 C 
ATOM      3  O   UNL     1       1.569   5.314  21.254  0.00  0.00    +0.000 OA
ATOM      4  N   UNL     1       2.852   4.423  19.662  0.00  0.00    +0.000 N 
ATOM      5  C   UNL     1       3.652   4.495  18.561  0.00  0.00    +0.000 A 
ATOM      6  N   UNL     1       4.091   5.595  18.008  0.00  0.00    +0.000 NA
ATOM      7  C   UNL     1       4.785   5.286  16.862  0.00  0.00    +0.000 A 
ATOM      8  C   UNL     1       5.389   6.223  16.006  0.00  0.00    +0.000 A 
ATOM      9  C   UNL     1       5.992   5.783  14.828  0.00  0.00    +0.000 A 
ATOM     10  C   UNL     1       5.996   4.427  14.508  0.00  0.00    +0.000 A 
ATOM     11 CL   UNL     1       6.700   3.919  13.022  0.00  0.00    +0.000 Cl
ATOM     12  C   UNL     1       5.435   3.470  15.360  0.00  0.00    +0.000 A 
ATOM     13  C   UNL     1       4.835   3.926  16.548  0.00  0.00    +0.000 A 
ATOM     14  S   UNL     1       4.070   3.030  17.815  0.00  0.00    +0.000 S 
ATOM     15  H   UNL     1       2.946   6.668  18.740  0.00  0.00    +0.000 HD
ATOM     16  H   UNL     1       2.661   3.525  20.078  0.00  0.00    +0.000 HD
ENDROOT
BRANCH   1  20
ATOM     17  C   UNL     1       0.446  10.341  20.506  0.00  0.00    +0.000 A 
ATOM     18  C   UNL     1       0.910  10.113  19.205  0.00  0.00    +0.000 A 
ATOM     19  C   UNL     1       1.541   8.916  18.869  0.00  0.00    +0.000 A 
ATOM     20  C   UNL     1       1.734   7.930  19.826  0.00  0.00    +0.000 A 
ATOM     21  C   UNL     1       1.325   8.173  21.144  0.00  0.00    +0.000 A 
ATOM     22  C   UNL     1       0.686   9.377  21.500  0.00  0.00    +0.000 A 
BRANCH  17  24
ATOM     23  C   UNL     1      -1.341  11.818  20.050  0.00  0.00    +0.000 C 
ATOM     24  O   UNL     1      -0.199  11.503  20.855  0.00  0.00    +0.000 OA
ENDBRANCH  17  24
BRANCH  22  25
ATOM     25  C   UNL     1       0.284   9.515  22.934  0.00  0.00    +0.000 C 
ATOM     26  O   UNL     1       1.100   9.520  23.844  0.00  0.00    +0.000 OA
BRANCH  25  27
ATOM     27  O   UNL     1      -1.041   9.625  23.169  0.00  0.00    +0.000 OA
ATOM     28  H   UNL     1      -1.271  10.410  23.709  0.00  0.00    +0.000 HD
ENDBRANCH  25  27
ENDBRANCH  22  25
ENDBRANCH   1  20
TORSDOF 4
ENDMDL
MODEL 9
REMARK VINA RESULT:      -7.7      0.999      1.138
REMARK  Name = 
REMARK  5 active torsions:
REMARK  status: ('A' for Active; 'I' for Inactive)
REMARK    1  A    between atoms: C_1  and  O_2
REMARK    2  A    between atoms: O_2  and  C_3
REMARK    3  A    between atoms: C_6  and  N_7
REMARK    4  A    between atoms: C_22  and  C_23
REMARK    5  A    between atoms: C_23  and  O_25
REMARK                            x       y       z     vdW  Elec       q    Type
REMARK                         _______ _______ _______ _____ _____    ______ ____
ROOT
ATOM      1  N   UNL     1       2.031   7.128  18.801  0.00  0.00    +0.000 N 
ATOM      2  C   UNL     1       2.534   8.067  17.931  0.00  0.00    +0.000 C 
ATOM      3  O   UNL     1       3.211   7.835  16.931  0.00  0.00    +0.000 OA
ATOM      4  N   UNL     1       2.190   9.372  18.183  0.00  0.00    +0.000 N 
ATOM      5  C   UNL     1       1.496   9.782  19.283  0.00  0.00    +0.000 A 
ATOM      6  N   UNL     1       1.233   9.053  20.334  0.00  0.00    +0.000 NA
ATOM      7  C   UNL     1       0.431   9.763  21.195  0.00  0.00    +0.000 A 
ATOM      8  C   UNL     1      -0.057   9.286  22.424  0.00  0.00    +0.000 A 
ATOM      9  C   UNL     1      -0.933  10.079  23.166  0.00  0.00    +0.000 A 
ATOM     10  C   UNL     1      -1.315  11.331  22.691  0.00  0.00    +0.000 A 
ATOM     11 CL   UNL     1      -2.440  12.264  23.601  0.00  0.00    +0.000 Cl
ATOM     12  C   UNL     1      -0.816  11.845  21.490  0.00  0.00    +0.000 A 
ATOM     13  C   UNL     1       0.071  11.038  20.754  0.00  0.00    +0.000 A 
ATOM     14  S   UNL     1       0.876  11.361  19.257  0.00  0.00    +0.000 S 
ATOM     15  H   UNL     1       1.531   7.513  19.600  0.00  0.00    +0.000 HD
ATOM     16  H   UNL     1       2.437  10.044  17.474  0.00  0.00    +0.000 HD
ENDROOT
BRANCH   1  20
ATOM     17  C   UNL     1       2.463   2.936  18.818  0.00  0.00    +0.000 A 
ATOM     18  C   UNL     1       2.237   3.612  17.613  0.00  0.00    +0.000 A 
ATOM     19  C   UNL     1       2.083   4.997  17.586  0.00  0.00    +0.000 A 
ATOM     20  C   UNL     1       2.139   5.733  18.761  0.00  0.00    +0.000 A 
ATOM     21  C   UNL     1       2.307   5.059  19.978  0.00  0.00    +0.000 A 
ATOM     22  C   UNL     1       2.464   3.660  20.022  0.00  0.00    +0.000 A 
BRANCH  17  24
ATOM     23  C   UNL     1       3.871   1.110  18.303  0.00  0.00    +0.000 C 
ATOM     24  O   UNL     1       2.639   1.574  18.866  0.00  0.00    +0.000 OA
ENDBRANCH  17  24
BRANCH  22  25
ATOM     25  C   UNL     1       2.649   3.056  21.379  0.00  0.00    +0.000 C 
ATOM     26  O   UNL     1       1.879   3.275  22.302  0.00  0.00    +0.000 OA
BRANCH  25  27
ATOM     27  O   UNL     1       3.727   2.258  21.528  0.00  0.00    +0.000 OA
ATOM     28  H   UNL     1       3.528   1.432  22.015  0.00  0.00    +0.000 HD
ENDBRANCH  25  27
ENDBRANCH  22  25
ENDBRANCH   1  20
TORSDOF 4
ENDMDL
