MODEL 1
REMARK VINA RESULT:      -8.0      0.000      0.000
REMARK  Name = 
REMARK  4 active torsions:
REMARK  status: ('A' for Active; 'I' for Inactive)
REMARK    1  A    between atoms: N_6  and  C_7
REMARK    2  A    between atoms: C_7  and  C_8
REMARK    3  A    between atoms: C_8  and  C_10
REMARK    4  A    between atoms: C_13  and  N_14
REMARK                            x       y       z     vdW  Elec       q    Type
REMARK                         _______ _______ _______ _____ _____    ______ ____
ROOT
ATOM      1  N   UNL     1       7.621   5.577  15.377  0.00  0.00    +0.000 NA
ATOM      2  C   UNL     1       6.508   5.350  15.971  0.00  0.00    +0.000 A 
ATOM      3  S   UNL     1       5.687   3.886  15.884  0.00  0.00    +0.000 S 
ATOM      4  C   UNL     1       4.419   4.447  16.827  0.00  0.00    +0.000 A 
ATOM      5  C   UNL     1       4.684   5.755  17.233  0.00  0.00    +0.000 A 
ATOM      6  N   UNL     1       5.858   6.276  16.732  0.00  0.00    +0.000 N 
ATOM      7  C   UNL     1       3.706   6.500  18.115  0.00  0.00    +0.000 C 
ATOM      8  C   UNL     1       2.698   5.558  18.839  0.00  0.00    +0.000 C 
ATOM      9  C   UNL     1       3.318   4.864  20.073  0.00  0.00    +0.000 C 
ATOM     10  C   UNL     1       2.255   4.016  20.792  0.00  0.00    +0.000 C 
ATOM     11  C   UNL     1       1.700   2.941  19.850  0.00  0.00    +0.000 C 
ATOM     12  C   UNL     1       1.078   3.610  18.605  0.00  0.00    +0.000 C 
ATOM     13  C   UNL     1       2.105   4.506  17.864  0.00  0.00    +0.000 C 
ATOM     14  C   UNL     1       3.199   3.648  17.172  0.00  0.00    +0.000 C 
ATOM     15  H   UNL     1       8.075   4.846  14.807  0.00  0.00    +0.000 HD
ENDROOT
BRANCH   6  16
ATOM     16  C   UNL     1       6.346   7.662  16.917  0.00  0.00    +0.000 C 
BRANCH  16  17
ATOM     17  C   UNL     1       7.552   7.775  17.844  0.00  0.00    +0.000 C 
ATOM     18  O   UNL     1       8.028   6.763  18.337  0.00  0.00    +0.000 OA
BRANCH  17  19
ATOM     19  C   UNL     1       8.183   9.103  18.145  0.00  0.00    +0.000 A 
ATOM     20  C   UNL     1       9.085   9.264  19.221  0.00  0.00    +0.000 A 
ATOM     21  C   UNL     1       9.649  10.508  19.507  0.00  0.00    +0.000 A 
ATOM     22  C   UNL     1       9.329  11.641  18.738  0.00  0.00    +0.000 A 
ATOM     23  C   UNL     1       8.431  11.493  17.667  0.00  0.00    +0.000 A 
ATOM     24  C   UNL     1       7.867  10.243  17.377  0.00  0.00    +0.000 A 
BRANCH  22  25
ATOM     25  N   UNL     1       9.902  12.917  19.039  0.00  0.00    +0.000 N 
ATOM     26  O   UNL     1      10.880  13.297  18.470  0.00  0.00    +0.000 OA
ATOM     27  O   UNL     1       9.358  13.688  19.950  0.00  0.00    +0.000 OA
ENDBRANCH  22  25
ENDBRANCH  17  19
ENDBRANCH  16  17
ENDBRANCH   6  16
TORSDOF 4
ENDMDL
MODEL 2
REMARK VINA RESULT:      -8.0      0.226      1.106
REMARK  Name = 
REMARK  4 active torsions:
REMARK  status: ('A' for Active; 'I' for Inactive)
REMARK    1  A    between atoms: N_6  and  C_7
REMARK    2  A    between atoms: C_7  and  C_8
REMARK    3  A    between atoms: C_8  and  C_10
REMARK    4  A    between atoms: C_13  and  N_14
REMARK                            x       y       z     vdW  Elec       q    Type
REMARK                         _______ _______ _______ _____ _____    ______ ____
ROOT
ATOM      1  N   UNL     1       7.605   5.584  15.395  0.00  0.00    +0.000 NA
ATOM      2  C   UNL     1       6.492   5.343  15.982  0.00  0.00    +0.000 A 
ATOM      3  S   UNL     1       5.685   3.871  15.883  0.00  0.00    +0.000 S 
ATOM      4  C   UNL     1       4.407   4.415  16.822  0.00  0.00    +0.000 A 
ATOM      5  C   UNL     1       4.656   5.724  17.236  0.00  0.00    +0.000 A 
ATOM      6  N   UNL     1       5.827   6.259  16.744  0.00  0.00    +0.000 N 
ATOM      7  C   UNL     1       3.666   6.455  18.115  0.00  0.00    +0.000 C 
ATOM      8  C   UNL     1       2.663   5.499  18.829  0.00  0.00    +0.000 C 
ATOM      9  C   UNL     1       3.282   4.806  20.063  0.00  0.00    +0.000 C 
ATOM     10  C   UNL     1       2.225   3.944  20.772  0.00  0.00    +0.000 C 
ATOM     11  C   UNL     1       1.685   2.869  19.822  0.00  0.00    +0.000 C 
ATOM     12  C   UNL     1       1.063   3.537  18.576  0.00  0.00    +0.000 C 
ATOM     13  C   UNL     1       2.086   4.446  17.846  0.00  0.00    +0.000 C 
ATOM     14  C   UNL     1       3.192   3.603  17.156  0.00  0.00    +0.000 C 
ATOM     15  H   UNL     1       8.070   4.860  14.825  0.00  0.00    +0.000 HD
ENDROOT
BRANCH   6  16
ATOM     16  C   UNL     1       6.301   7.649  16.938  0.00  0.00    +0.000 C 
BRANCH  16  17
ATOM     17  C   UNL     1       7.515   7.767  17.854  0.00  0.00    +0.000 C 
ATOM     18  O   UNL     1       8.000   6.756  18.341  0.00  0.00    +0.000 OA
BRANCH  17  19
ATOM     19  C   UNL     1       8.142   9.098  18.150  0.00  0.00    +0.000 A 
ATOM     20  C   UNL     1       7.858  10.238  17.366  0.00  0.00    +0.000 A 
ATOM     21  C   UNL     1       8.464  11.466  17.637  0.00  0.00    +0.000 A 
ATOM     22  C   UNL     1       9.382  11.602  18.692  0.00  0.00    +0.000 A 
ATOM     23  C   UNL     1       9.675  10.473  19.477  0.00  0.00    +0.000 A 
ATOM     24  C   UNL     1       9.065   9.241  19.208  0.00  0.00    +0.000 A 
BRANCH  22  25
ATOM     25  N   UNL     1      10.009  12.860  18.961  0.00  0.00    +0.000 N 
ATOM     26  O   UNL     1      10.109  13.265  20.079  0.00  0.00    +0.000 OA
ATOM     27  O   UNL     1      10.482  13.588  17.978  0.00  0.00    +0.000 OA
ENDBRANCH  22  25
ENDBRANCH  17  19
ENDBRANCH  16  17
ENDBRANCH   6  16
TORSDOF 4
ENDMDL
MODEL 3
REMARK VINA RESULT:      -7.9      4.124      6.181
REMARK  Name = 
REMARK  4 active torsions:
REMARK  status: ('A' for Active; 'I' for Inactive)
REMARK    1  A    between atoms: N_6  and  C_7
REMARK    2  A    between atoms: C_7  and  C_8
REMARK    3  A    between atoms: C_8  and  C_10
REMARK    4  A    between atoms: C_13  and  N_14
REMARK                            x       y       z     vdW  Elec       q    Type
REMARK                         _______ _______ _______ _____ _____    ______ ____
ROOT
ATOM      1  N   UNL     1       6.003   7.931  16.839  0.00  0.00    +0.000 NA
ATOM      2  C   UNL     1       5.221   7.133  17.466  0.00  0.00    +0.000 A 
ATOM      3  S   UNL     1       3.545   7.258  17.440  0.00  0.00    +0.000 S 
ATOM      4  C   UNL     1       3.350   5.960  18.485  0.00  0.00    +0.000 A 
ATOM      5  C   UNL     1       4.599   5.422  18.798  0.00  0.00    +0.000 A 
ATOM      6  N   UNL     1       5.662   6.098  18.238  0.00  0.00    +0.000 N 
ATOM      7  C   UNL     1       4.712   4.224  19.713  0.00  0.00    +0.000 C 
ATOM      8  C   UNL     1       3.373   3.443  19.865  0.00  0.00    +0.000 C 
ATOM      9  C   UNL     1       3.085   2.522  18.657  0.00  0.00    +0.000 C 
ATOM     10  C   UNL     1       1.797   1.718  18.900  0.00  0.00    +0.000 C 
ATOM     11  C   UNL     1       0.605   2.660  19.096  0.00  0.00    +0.000 C 
ATOM     12  C   UNL     1       0.869   3.595  20.296  0.00  0.00    +0.000 C 
ATOM     13  C   UNL     1       2.180   4.405  20.112  0.00  0.00    +0.000 C 
ATOM     14  C   UNL     1       2.027   5.468  18.990  0.00  0.00    +0.000 C 
ATOM     15  H   UNL     1       5.624   8.704  16.269  0.00  0.00    +0.000 HD
ENDROOT
BRANCH   6  16
ATOM     16  C   UNL     1       7.096   5.813  18.471  0.00  0.00    +0.000 C 
BRANCH  16  17
ATOM     17  C   UNL     1       7.657   4.701  17.590  0.00  0.00    +0.000 C 
ATOM     18  O   UNL     1       8.575   4.009  18.007  0.00  0.00    +0.000 OA
BRANCH  17  19
ATOM     19  C   UNL     1       7.090   4.423  16.229  0.00  0.00    +0.000 A 
ATOM     20  C   UNL     1       6.022   3.516  16.046  0.00  0.00    +0.000 A 
ATOM     21  C   UNL     1       5.517   3.248  14.773  0.00  0.00    +0.000 A 
ATOM     22  C   UNL     1       6.060   3.865  13.634  0.00  0.00    +0.000 A 
ATOM     23  C   UNL     1       7.124   4.768  13.804  0.00  0.00    +0.000 A 
ATOM     24  C   UNL     1       7.631   5.041  15.082  0.00  0.00    +0.000 A 
BRANCH  22  25
ATOM     25  N   UNL     1       5.546   3.581  12.329  0.00  0.00    +0.000 N 
ATOM     26  O   UNL     1       6.282   3.321  11.427  0.00  0.00    +0.000 OA
ATOM     27  O   UNL     1       4.254   3.606  12.108  0.00  0.00    +0.000 OA
ENDBRANCH  22  25
ENDBRANCH  17  19
ENDBRANCH  16  17
ENDBRANCH   6  16
TORSDOF 4
ENDMDL
MODEL 4
REMARK VINA RESULT:      -7.5      5.278      7.393
REMARK  Name = 
REMARK  4 active torsions:
REMARK  status: ('A' for Active; 'I' for Inactive)
REMARK    1  A    between atoms: N_6  and  C_7
REMARK    2  A    between atoms: C_7  and  C_8
REMARK    3  A    between atoms: C_8  and  C_10
REMARK    4  A    between atoms: C_13  and  N_14
REMARK                            x       y       z     vdW  Elec       q    Type
REMARK                         _______ _______ _______ _____ _____    ______ ____
ROOT
ATOM      1  N   UNL     1       0.497   4.168  20.347  0.00  0.00    +0.000 NA
ATOM      2  C   UNL     1       1.561   4.243  19.636  0.00  0.00    +0.000 A 
ATOM      3  S   UNL     1       2.020   3.073  18.520  0.00  0.00    +0.000 S 
ATOM      4  C   UNL     1       3.435   3.884  18.130  0.00  0.00    +0.000 A 
ATOM      5  C   UNL     1       3.500   5.080  18.846  0.00  0.00    +0.000 A 
ATOM      6  N   UNL     1       2.449   5.275  19.716  0.00  0.00    +0.000 N 
ATOM      7  C   UNL     1       4.671   6.019  18.669  0.00  0.00    +0.000 C 
ATOM      8  C   UNL     1       5.479   5.749  17.364  0.00  0.00    +0.000 C 
ATOM      9  C   UNL     1       4.791   6.335  16.110  0.00  0.00    +0.000 C 
ATOM     10  C   UNL     1       5.671   6.110  14.870  0.00  0.00    +0.000 C 
ATOM     11  C   UNL     1       5.912   4.613  14.646  0.00  0.00    +0.000 C 
ATOM     12  C   UNL     1       6.596   4.002  15.889  0.00  0.00    +0.000 C 
ATOM     13  C   UNL     1       5.759   4.234  17.174  0.00  0.00    +0.000 C 
ATOM     14  C   UNL     1       4.460   3.384  17.156  0.00  0.00    +0.000 C 
ATOM     15  H   UNL     1      -0.145   3.365  20.256  0.00  0.00    +0.000 HD
ENDROOT
BRANCH   6  16
ATOM     16  C   UNL     1       2.301   6.401  20.667  0.00  0.00    +0.000 C 
BRANCH  16  17
ATOM     17  C   UNL     1       1.841   7.703  20.017  0.00  0.00    +0.000 C 
ATOM     18  O   UNL     1       2.105   7.914  18.843  0.00  0.00    +0.000 OA
BRANCH  17  19
ATOM     19  C   UNL     1       1.049   8.720  20.785  0.00  0.00    +0.000 A 
ATOM     20  C   UNL     1       0.244   9.678  20.128  0.00  0.00    +0.000 A 
ATOM     21  C   UNL     1      -0.471  10.634  20.851  0.00  0.00    +0.000 A 
ATOM     22  C   UNL     1      -0.405  10.678  22.254  0.00  0.00    +0.000 A 
ATOM     23  C   UNL     1       0.394   9.731  22.919  0.00  0.00    +0.000 A 
ATOM     24  C   UNL     1       1.110   8.769  22.194  0.00  0.00    +0.000 A 
BRANCH  22  25
ATOM     25  N   UNL     1      -1.132  11.666  22.992  0.00  0.00    +0.000 N 
ATOM     26  O   UNL     1      -2.261  11.469  23.326  0.00  0.00    +0.000 OA
ATOM     27  O   UNL     1      -0.565  12.804  23.310  0.00  0.00    +0.000 OA
ENDBRANCH  22  25
ENDBRANCH  17  19
ENDBRANCH  16  17
ENDBRANCH   6  16
TORSDOF 4
ENDMDL
MODEL 5
REMARK VINA RESULT:      -7.4      7.592      9.798
REMARK  Name = 
REMARK  4 active torsions:
REMARK  status: ('A' for Active; 'I' for Inactive)
REMARK    1  A    between atoms: N_6  and  C_7
REMARK    2  A    between atoms: C_7  and  C_8
REMARK    3  A    between atoms: C_8  and  C_10
REMARK    4  A    between atoms: C_13  and  N_14
REMARK                            x       y       z     vdW  Elec       q    Type
REMARK                         _______ _______ _______ _____ _____    ______ ____
ROOT
ATOM      1  N   UNL     1      -0.687  10.015  17.589  0.00  0.00    +0.000 NA
ATOM      2  C   UNL     1      -1.138  10.768  18.522  0.00  0.00    +0.000 A 
ATOM      3  S   UNL     1      -2.628  11.544  18.454  0.00  0.00    +0.000 S 
ATOM      4  C   UNL     1      -2.397  12.293  19.937  0.00  0.00    +0.000 A 
ATOM      5  C   UNL     1      -1.179  11.885  20.481  0.00  0.00    +0.000 A 
ATOM      6  N   UNL     1      -0.454  11.036  19.671  0.00  0.00    +0.000 N 
ATOM      7  C   UNL     1      -0.729  12.397  21.831  0.00  0.00    +0.000 C 
ATOM      8  C   UNL     1      -1.893  13.000  22.673  0.00  0.00    +0.000 C 
ATOM      9  C   UNL     1      -2.758  11.913  23.350  0.00  0.00    +0.000 C 
ATOM     10  C   UNL     1      -3.835  12.566  24.231  0.00  0.00    +0.000 C 
ATOM     11  C   UNL     1      -4.745  13.466  23.388  0.00  0.00    +0.000 C 
ATOM     12  C   UNL     1      -3.903  14.561  22.697  0.00  0.00    +0.000 C 
ATOM     13  C   UNL     1      -2.778  13.948  21.821  0.00  0.00    +0.000 C 
ATOM     14  C   UNL     1      -3.366  13.249  20.565  0.00  0.00    +0.000 C 
ATOM     15  H   UNL     1      -1.239   9.843  16.734  0.00  0.00    +0.000 HD
ENDROOT
BRANCH   6  16
ATOM     16  C   UNL     1       0.907  10.520  19.946  0.00  0.00    +0.000 C 
BRANCH  16  17
ATOM     17  C   UNL     1       0.925   9.155  20.626  0.00  0.00    +0.000 C 
ATOM     18  O   UNL     1       0.339   9.006  21.689  0.00  0.00    +0.000 OA
BRANCH  17  19
ATOM     19  C   UNL     1       1.629   7.984  20.006  0.00  0.00    +0.000 A 
ATOM     20  C   UNL     1       2.234   8.076  18.733  0.00  0.00    +0.000 A 
ATOM     21  C   UNL     1       2.866   6.974  18.156  0.00  0.00    +0.000 A 
ATOM     22  C   UNL     1       2.912   5.736  18.820  0.00  0.00    +0.000 A 
ATOM     23  C   UNL     1       2.312   5.632  20.087  0.00  0.00    +0.000 A 
ATOM     24  C   UNL     1       1.679   6.739  20.669  0.00  0.00    +0.000 A 
BRANCH  22  25
ATOM     25  N   UNL     1       3.554   4.606  18.222  0.00  0.00    +0.000 N 
ATOM     26  O   UNL     1       4.595   4.202  18.642  0.00  0.00    +0.000 OA
ATOM     27  O   UNL     1       3.003   3.998  17.199  0.00  0.00    +0.000 OA
ENDBRANCH  22  25
ENDBRANCH  17  19
ENDBRANCH  16  17
ENDBRANCH   6  16
TORSDOF 4
ENDMDL
MODEL 6
REMARK VINA RESULT:      -7.3      7.611      9.620
REMARK  Name = 
REMARK  4 active torsions:
REMARK  status: ('A' for Active; 'I' for Inactive)
REMARK    1  A    between atoms: N_6  and  C_7
REMARK    2  A    between atoms: C_7  and  C_8
REMARK    3  A    between atoms: C_8  and  C_10
REMARK    4  A    between atoms: C_13  and  N_14
REMARK                            x       y       z     vdW  Elec       q    Type
REMARK                         _______ _______ _______ _____ _____    ______ ____
ROOT
ATOM      1  N   UNL     1      -0.837  10.122  17.550  0.00  0.00    +0.000 NA
ATOM      2  C   UNL     1      -1.292  10.857  18.496  0.00  0.00    +0.000 A 
ATOM      3  S   UNL     1      -2.814  11.569  18.474  0.00  0.00    +0.000 S 
ATOM      4  C   UNL     1      -2.570  12.330  19.949  0.00  0.00    +0.000 A 
ATOM      5  C   UNL     1      -1.319  11.974  20.455  0.00  0.00    +0.000 A 
ATOM      6  N   UNL     1      -0.585  11.156  19.624  0.00  0.00    +0.000 N 
ATOM      7  C   UNL     1      -0.850  12.508  21.790  0.00  0.00    +0.000 C 
ATOM      8  C   UNL     1      -2.011  13.062  22.668  0.00  0.00    +0.000 C 
ATOM      9  C   UNL     1      -2.809  11.940  23.372  0.00  0.00    +0.000 C 
ATOM     10  C   UNL     1      -3.884  12.549  24.286  0.00  0.00    +0.000 C 
ATOM     11  C   UNL     1      -4.858  13.408  23.471  0.00  0.00    +0.000 C 
ATOM     12  C   UNL     1      -4.084  14.536  22.754  0.00  0.00    +0.000 C 
ATOM     13  C   UNL     1      -2.962  13.971  21.843  0.00  0.00    +0.000 C 
ATOM     14  C   UNL     1      -3.558  13.245  20.607  0.00  0.00    +0.000 C 
ATOM     15  H   UNL     1      -1.408   9.925  16.713  0.00  0.00    +0.000 HD
ENDROOT
BRANCH   6  16
ATOM     16  C   UNL     1       0.805  10.699  19.856  0.00  0.00    +0.000 C 
BRANCH  16  17
ATOM     17  C   UNL     1       0.908   9.259  20.349  0.00  0.00    +0.000 C 
ATOM     18  O   UNL     1       0.295   8.922  21.352  0.00  0.00    +0.000 OA
BRANCH  17  19
ATOM     19  C   UNL     1       1.728   8.239  19.615  0.00  0.00    +0.000 A 
ATOM     20  C   UNL     1       2.019   6.978  20.183  0.00  0.00    +0.000 A 
ATOM     21  C   UNL     1       2.801   6.046  19.500  0.00  0.00    +0.000 A 
ATOM     22  C   UNL     1       3.332   6.336  18.232  0.00  0.00    +0.000 A 
ATOM     23  C   UNL     1       3.051   7.589  17.658  0.00  0.00    +0.000 A 
ATOM     24  C   UNL     1       2.262   8.525  18.340  0.00  0.00    +0.000 A 
BRANCH  22  25
ATOM     25  N   UNL     1       4.142   5.382  17.538  0.00  0.00    +0.000 N 
ATOM     26  O   UNL     1       3.723   4.291  17.292  0.00  0.00    +0.000 OA
ATOM     27  O   UNL     1       5.359   5.694  17.166  0.00  0.00    +0.000 OA
ENDBRANCH  22  25
ENDBRANCH  17  19
ENDBRANCH  16  17
ENDBRANCH   6  16
TORSDOF 4
ENDMDL
MODEL 7
REMARK VINA RESULT:      -7.2      6.560      8.912
REMARK  Name = 
REMARK  4 active torsions:
REMARK  status: ('A' for Active; 'I' for Inactive)
REMARK    1  A    between atoms: N_6  and  C_7
REMARK    2  A    between atoms: C_7  and  C_8
REMARK    3  A    between atoms: C_8  and  C_10
REMARK    4  A    between atoms: C_13  and  N_14
REMARK                            x       y       z     vdW  Elec       q    Type
REMARK                         _______ _______ _______ _____ _____    ______ ____
ROOT
ATOM      1  N   UNL     1       2.085  12.577  19.828  0.00  0.00    +0.000 NA
ATOM      2  C   UNL     1       0.919  12.216  19.438  0.00  0.00    +0.000 A 
ATOM      3  S   UNL     1      -0.464  13.149  19.647  0.00  0.00    +0.000 S 
ATOM      4  C   UNL     1      -1.452  11.985  18.953  0.00  0.00    +0.000 A 
ATOM      5  C   UNL     1      -0.675  10.907  18.527  0.00  0.00    +0.000 A 
ATOM      6  N   UNL     1       0.667  11.027  18.819  0.00  0.00    +0.000 N 
ATOM      7  C   UNL     1      -1.316   9.719  17.845  0.00  0.00    +0.000 C 
ATOM      8  C   UNL     1      -2.742  10.026  17.297  0.00  0.00    +0.000 C 
ATOM      9  C   UNL     1      -2.709  10.804  15.962  0.00  0.00    +0.000 C 
ATOM     10  C   UNL     1      -4.138  11.004  15.431  0.00  0.00    +0.000 C 
ATOM     11  C   UNL     1      -4.980  11.793  16.439  0.00  0.00    +0.000 C 
ATOM     12  C   UNL     1      -5.025  11.038  17.786  0.00  0.00    +0.000 C 
ATOM     13  C   UNL     1      -3.602  10.782  18.346  0.00  0.00    +0.000 C 
ATOM     14  C   UNL     1      -2.940  12.105  18.819  0.00  0.00    +0.000 C 
ATOM     15  H   UNL     1       2.228  13.486  20.297  0.00  0.00    +0.000 HD
ENDROOT
BRANCH   6  16
ATOM     16  C   UNL     1       1.708  10.004  18.571  0.00  0.00    +0.000 C 
BRANCH  16  17
ATOM     17  C   UNL     1       1.627   8.800  19.505  0.00  0.00    +0.000 C 
ATOM     18  O   UNL     1       0.949   8.872  20.520  0.00  0.00    +0.000 OA
BRANCH  17  19
ATOM     19  C   UNL     1       2.344   7.520  19.192  0.00  0.00    +0.000 A 
ATOM     20  C   UNL     1       2.283   6.408  20.063  0.00  0.00    +0.000 A 
ATOM     21  C   UNL     1       2.973   5.230  19.774  0.00  0.00    +0.000 A 
ATOM     22  C   UNL     1       3.755   5.116  18.612  0.00  0.00    +0.000 A 
ATOM     23  C   UNL     1       3.825   6.217  17.739  0.00  0.00    +0.000 A 
ATOM     24  C   UNL     1       3.131   7.400  18.027  0.00  0.00    +0.000 A 
BRANCH  22  25
ATOM     25  N   UNL     1       4.469   3.910  18.323  0.00  0.00    +0.000 N 
ATOM     26  O   UNL     1       4.357   3.375  17.261  0.00  0.00    +0.000 OA
ATOM     27  O   UNL     1       5.255   3.374  19.224  0.00  0.00    +0.000 OA
ENDBRANCH  22  25
ENDBRANCH  17  19
ENDBRANCH  16  17
ENDBRANCH   6  16
TORSDOF 4
ENDMDL
MODEL 8
REMARK VINA RESULT:      -7.2      8.004      9.989
REMARK  Name = 
REMARK  4 active torsions:
REMARK  status: ('A' for Active; 'I' for Inactive)
REMARK    1  A    between atoms: N_6  and  C_7
REMARK    2  A    between atoms: C_7  and  C_8
REMARK    3  A    between atoms: C_8  and  C_10
REMARK    4  A    between atoms: C_13  and  N_14
REMARK                            x       y       z     vdW  Elec       q    Type
REMARK                         _______ _______ _______ _____ _____    ______ ____
ROOT
ATOM      1  N   UNL     1      -1.226  10.312  17.273  0.00  0.00    +0.000 NA
ATOM      2  C   UNL     1      -1.743  11.022  18.207  0.00  0.00    +0.000 A 
ATOM      3  S   UNL     1      -3.384  11.373  18.311  0.00  0.00    +0.000 S 
ATOM      4  C   UNL     1      -3.177  12.316  19.683  0.00  0.00    +0.000 A 
ATOM      5  C   UNL     1      -1.835  12.300  20.062  0.00  0.00    +0.000 A 
ATOM      6  N   UNL     1      -1.017  11.584  19.215  0.00  0.00    +0.000 N 
ATOM      7  C   UNL     1      -1.373  13.059  21.286  0.00  0.00    +0.000 C 
ATOM      8  C   UNL     1      -2.539  13.429  22.251  0.00  0.00    +0.000 C 
ATOM      9  C   UNL     1      -2.981  12.237  23.129  0.00  0.00    +0.000 C 
ATOM     10  C   UNL     1      -4.073  12.683  24.116  0.00  0.00    +0.000 C 
ATOM     11  C   UNL     1      -5.294  13.216  23.358  0.00  0.00    +0.000 C 
ATOM     12  C   UNL     1      -4.878  14.408  22.469  0.00  0.00    +0.000 C 
ATOM     13  C   UNL     1      -3.751  14.014  21.478  0.00  0.00    +0.000 C 
ATOM     14  C   UNL     1      -4.281  13.052  20.381  0.00  0.00    +0.000 C 
ATOM     15  H   UNL     1      -1.815   9.909  16.527  0.00  0.00    +0.000 HD
ENDROOT
BRANCH   6  16
ATOM     16  C   UNL     1       0.457  11.472  19.314  0.00  0.00    +0.000 C 
BRANCH  16  17
ATOM     17  C   UNL     1       0.932  10.412  20.303  0.00  0.00    +0.000 C 
ATOM     18  O   UNL     1       0.894  10.648  21.502  0.00  0.00    +0.000 OA
BRANCH  17  19
ATOM     19  C   UNL     1       1.424   9.074  19.835  0.00  0.00    +0.000 A 
ATOM     20  C   UNL     1       1.535   7.978  20.721  0.00  0.00    +0.000 A 
ATOM     21  C   UNL     1       2.015   6.744  20.280  0.00  0.00    +0.000 A 
ATOM     22  C   UNL     1       2.411   6.556  18.945  0.00  0.00    +0.000 A 
ATOM     23  C   UNL     1       2.307   7.640  18.056  0.00  0.00    +0.000 A 
ATOM     24  C   UNL     1       1.822   8.879  18.496  0.00  0.00    +0.000 A 
BRANCH  22  25
ATOM     25  N   UNL     1       2.912   5.292  18.498  0.00  0.00    +0.000 N 
ATOM     26  O   UNL     1       3.902   4.826  18.974  0.00  0.00    +0.000 OA
ATOM     27  O   UNL     1       2.287   4.629  17.556  0.00  0.00    +0.000 OA
ENDBRANCH  22  25
ENDBRANCH  17  19
ENDBRANCH  16  17
ENDBRANCH   6  16
TORSDOF 4
ENDMDL
MODEL 9
REMARK VINA RESULT:      -7.2      4.036      6.787
REMARK  Name = 
REMARK  4 active torsions:
REMARK  status: ('A' for Active; 'I' for Inactive)
REMARK    1  A    between atoms: N_6  and  C_7
REMARK    2  A    between atoms: C_7  and  C_8
REMARK    3  A    between atoms: C_8  and  C_10
REMARK    4  A    between atoms: C_13  and  N_14
REMARK                            x       y       z     vdW  Elec       q    Type
REMARK                         _______ _______ _______ _____ _____    ______ ____
ROOT
ATOM      1  N   UNL     1       5.713   7.747  16.729  0.00  0.00    +0.000 NA
ATOM      2  C   UNL     1       5.043   6.932  17.456  0.00  0.00    +0.000 A 
ATOM      3  S   UNL     1       3.508   7.265  18.057  0.00  0.00    +0.000 S 
ATOM      4  C   UNL     1       3.422   5.803  18.874  0.00  0.00    +0.000 A 
ATOM      5  C   UNL     1       4.576   5.060  18.623  0.00  0.00    +0.000 A 
ATOM      6  N   UNL     1       5.505   5.707  17.837  0.00  0.00    +0.000 N 
ATOM      7  C   UNL     1       4.751   3.684  19.227  0.00  0.00    +0.000 C 
ATOM      8  C   UNL     1       3.412   3.060  19.720  0.00  0.00    +0.000 C 
ATOM      9  C   UNL     1       2.572   2.471  18.564  0.00  0.00    +0.000 C 
ATOM     10  C   UNL     1       1.306   1.797  19.120  0.00  0.00    +0.000 C 
ATOM     11  C   UNL     1       0.449   2.812  19.884  0.00  0.00    +0.000 C 
ATOM     12  C   UNL     1       1.268   3.420  21.044  0.00  0.00    +0.000 C 
ATOM     13  C   UNL     1       2.575   4.083  20.535  0.00  0.00    +0.000 C 
ATOM     14  C   UNL     1       2.270   5.378  19.734  0.00  0.00    +0.000 C 
ATOM     15  H   UNL     1       5.324   8.667  16.469  0.00  0.00    +0.000 HD
ENDROOT
BRANCH   6  16
ATOM     16  C   UNL     1       6.853   5.203  17.487  0.00  0.00    +0.000 C 
BRANCH  16  17
ATOM     17  C   UNL     1       7.285   5.530  16.060  0.00  0.00    +0.000 C 
ATOM     18  O   UNL     1       8.102   6.419  15.869  0.00  0.00    +0.000 OA
BRANCH  17  19
ATOM     19  C   UNL     1       6.744   4.767  14.887  0.00  0.00    +0.000 A 
ATOM     20  C   UNL     1       7.388   4.793  13.630  0.00  0.00    +0.000 A 
ATOM     21  C   UNL     1       6.864   4.098  12.539  0.00  0.00    +0.000 A 
ATOM     22  C   UNL     1       5.675   3.359  12.656  0.00  0.00    +0.000 A 
ATOM     23  C   UNL     1       5.024   3.327  13.902  0.00  0.00    +0.000 A 
ATOM     24  C   UNL     1       5.551   4.022  14.999  0.00  0.00    +0.000 A 
BRANCH  22  25
ATOM     25  N   UNL     1       5.135   2.654  11.533  0.00  0.00    +0.000 N 
ATOM     26  O   UNL     1       5.623   1.630  11.164  0.00  0.00    +0.000 OA
ATOM     27  O   UNL     1       4.094   3.130  10.893  0.00  0.00    +0.000 OA
ENDBRANCH  22  25
ENDBRANCH  17  19
ENDBRANCH  16  17
ENDBRANCH   6  16
TORSDOF 4
ENDMDL
