MODEL 1
REMARK VINA RESULT:      -8.5      0.000      0.000
REMARK  Name = 
REMARK  7 active torsions:
REMARK  status: ('A' for Active; 'I' for Inactive)
REMARK    1  A    between atoms: C_1  and  C_2
REMARK    2  A    between atoms: C_5  and  C_6
REMARK    3  A    between atoms: C_9  and  N_10
REMARK    4  A    between atoms: C_14  and  N_15
REMARK    5  A    between atoms: N_15  and  S_16
REMARK    6  A    between atoms: S_16  and  C_19
REMARK    7  A    between atoms: C_22  and  N_23
REMARK                            x       y       z     vdW  Elec       q    Type
REMARK                         _______ _______ _______ _____ _____    ______ ____
ROOT
ATOM      1  N   UNL     1       6.429   5.685  16.801  0.00  0.00    +0.000 N 
ATOM      2  N   UNL     1       7.227   4.844  16.084  0.00  0.00    +0.000 NA
ATOM      3  C   UNL     1       6.484   3.759  15.875  0.00  0.00    +0.000 A 
ATOM      4  C   UNL     1       5.161   3.927  16.301  0.00  0.00    +0.000 A 
ATOM      5  C   UNL     1       5.125   5.191  16.844  0.00  0.00    +0.000 A 
ENDROOT
BRANCH   1   9
ATOM      6  C   UNL     1       8.446   9.055  18.451  0.00  0.00    +0.000 A 
ATOM      7  C   UNL     1       7.491   9.179  17.431  0.00  0.00    +0.000 A 
ATOM      8  C   UNL     1       6.797   8.072  16.938  0.00  0.00    +0.000 A 
ATOM      9  C   UNL     1       7.029   6.795  17.459  0.00  0.00    +0.000 A 
ATOM     10  C   UNL     1       7.940   6.640  18.505  0.00  0.00    +0.000 A 
ATOM     11  C   UNL     1       8.646   7.763  18.982  0.00  0.00    +0.000 A 
BRANCH   6  16
ATOM     12  C   UNL     1      11.334  13.789  20.262  0.00  0.00    +0.000 C 
ATOM     13  C   UNL     1      10.630  12.546  19.803  0.00  0.00    +0.000 A 
ATOM     14  C   UNL     1      10.548  12.234  18.447  0.00  0.00    +0.000 A 
ATOM     15  C   UNL     1       9.840  11.105  18.021  0.00  0.00    +0.000 A 
ATOM     16  C   UNL     1       9.198  10.242  18.930  0.00  0.00    +0.000 A 
ATOM     17  C   UNL     1       9.320  10.555  20.295  0.00  0.00    +0.000 A 
ATOM     18  C   UNL     1      10.020  11.693  20.726  0.00  0.00    +0.000 A 
ENDBRANCH   6  16
ENDBRANCH   1   9
BRANCH   5  19
ATOM     19  N   UNL     1       3.947   5.802  17.224  0.00  0.00    +0.000 N 
ATOM     20  H   UNL     1       3.316   6.173  16.534  0.00  0.00    +0.000 HD
BRANCH  19  21
ATOM     21  S   UNL     1       3.331   5.632  18.727  0.00  0.00    +0.000 S 
ATOM     22  O   UNL     1       2.302   4.616  18.683  0.00  0.00    +0.000 OA
ATOM     23  O   UNL     1       4.395   5.547  19.710  0.00  0.00    +0.000 OA
BRANCH  21  24
ATOM     24  C   UNL     1       2.493   7.192  18.999  0.00  0.00    +0.000 A 
ATOM     25  C   UNL     1       2.396   8.118  17.953  0.00  0.00    +0.000 A 
ATOM     26  C   UNL     1       1.714   9.322  18.157  0.00  0.00    +0.000 A 
ATOM     27  C   UNL     1       1.078   9.591  19.375  0.00  0.00    +0.000 A 
ATOM     28  C   UNL     1       1.226   8.679  20.424  0.00  0.00    +0.000 A 
ATOM     29  C   UNL     1       1.904   7.469  20.235  0.00  0.00    +0.000 A 
BRANCH  27  30
ATOM     30  N   UNL     1       0.509  10.847  19.611  0.00  0.00    +0.000 N 
ATOM     31  H   UNL     1      -0.506  10.855  19.616  0.00  0.00    +0.000 HD
ATOM     32  H   UNL     1       0.889  11.334  20.418  0.00  0.00    +0.000 HD
ENDBRANCH  27  30
ENDBRANCH  21  24
ENDBRANCH  19  21
ENDBRANCH   5  19
TORSDOF 6
ENDMDL
MODEL 2
REMARK VINA RESULT:      -8.4      5.592      7.919
REMARK  Name = 
REMARK  7 active torsions:
REMARK  status: ('A' for Active; 'I' for Inactive)
REMARK    1  A    between atoms: C_1  and  C_2
REMARK    2  A    between atoms: C_5  and  C_6
REMARK    3  A    between atoms: C_9  and  N_10
REMARK    4  A    between atoms: C_14  and  N_15
REMARK    5  A    between atoms: N_15  and  S_16
REMARK    6  A    between atoms: S_16  and  C_19
REMARK    7  A    between atoms: C_22  and  N_23
REMARK                            x       y       z     vdW  Elec       q    Type
REMARK                         _______ _______ _______ _____ _____    ______ ____
ROOT
ATOM      1  N   UNL     1       0.745   8.803  21.075  0.00  0.00    +0.000 N 
ATOM      2  N   UNL     1       1.240   8.704  22.341  0.00  0.00    +0.000 NA
ATOM      3  C   UNL     1       0.629   9.670  23.026  0.00  0.00    +0.000 A 
ATOM      4  C   UNL     1      -0.374  10.301  22.281  0.00  0.00    +0.000 A 
ATOM      5  C   UNL     1      -0.327   9.696  21.046  0.00  0.00    +0.000 A 
ENDROOT
BRANCH   1   9
ATOM      6  C   UNL     1       3.107   6.804  18.148  0.00  0.00    +0.000 A 
ATOM      7  C   UNL     1       2.714   6.184  19.344  0.00  0.00    +0.000 A 
ATOM      8  C   UNL     1       1.893   6.833  20.269  0.00  0.00    +0.000 A 
ATOM      9  C   UNL     1       1.426   8.128  20.025  0.00  0.00    +0.000 A 
ATOM     10  C   UNL     1       1.760   8.758  18.825  0.00  0.00    +0.000 A 
ATOM     11  C   UNL     1       2.604   8.100  17.907  0.00  0.00    +0.000 A 
BRANCH   6  16
ATOM     12  C   UNL     1       6.572   4.006  14.380  0.00  0.00    +0.000 C 
ATOM     13  C   UNL     1       5.717   4.730  15.378  0.00  0.00    +0.000 A 
ATOM     14  C   UNL     1       4.935   4.023  16.290  0.00  0.00    +0.000 A 
ATOM     15  C   UNL     1       4.095   4.702  17.179  0.00  0.00    +0.000 A 
ATOM     16  C   UNL     1       4.013   6.108  17.200  0.00  0.00    +0.000 A 
ATOM     17  C   UNL     1       4.833   6.804  16.295  0.00  0.00    +0.000 A 
ATOM     18  C   UNL     1       5.669   6.126  15.393  0.00  0.00    +0.000 A 
ENDBRANCH   6  16
ENDBRANCH   1   9
BRANCH   5  19
ATOM     19  N   UNL     1      -1.279   9.922  20.072  0.00  0.00    +0.000 N 
ATOM     20  H   UNL     1      -2.063   9.299  19.967  0.00  0.00    +0.000 HD
BRANCH  19  21
ATOM     21  S   UNL     1      -1.412  11.360  19.309  0.00  0.00    +0.000 S 
ATOM     22  O   UNL     1      -2.296  12.204  20.083  0.00  0.00    +0.000 OA
ATOM     23  O   UNL     1      -0.106  11.849  18.909  0.00  0.00    +0.000 OA
BRANCH  21  24
ATOM     24  C   UNL     1      -2.294  10.940  17.808  0.00  0.00    +0.000 A 
ATOM     25  C   UNL     1      -3.503  11.584  17.511  0.00  0.00    +0.000 A 
ATOM     26  C   UNL     1      -4.174  11.279  16.322  0.00  0.00    +0.000 A 
ATOM     27  C   UNL     1      -3.629  10.381  15.398  0.00  0.00    +0.000 A 
ATOM     28  C   UNL     1      -2.448   9.711  15.731  0.00  0.00    +0.000 A 
ATOM     29  C   UNL     1      -1.763  10.006  16.916  0.00  0.00    +0.000 A 
BRANCH  27  30
ATOM     30  N   UNL     1      -4.367   9.989  14.276  0.00  0.00    +0.000 N 
ATOM     31  H   UNL     1      -4.766   9.058  14.339  0.00  0.00    +0.000 HD
ATOM     32  H   UNL     1      -5.056  10.668  13.970  0.00  0.00    +0.000 HD
ENDBRANCH  27  30
ENDBRANCH  21  24
ENDBRANCH  19  21
ENDBRANCH   5  19
TORSDOF 6
ENDMDL
MODEL 3
REMARK VINA RESULT:      -8.3      4.706      6.811
REMARK  Name = 
REMARK  7 active torsions:
REMARK  status: ('A' for Active; 'I' for Inactive)
REMARK    1  A    between atoms: C_1  and  C_2
REMARK    2  A    between atoms: C_5  and  C_6
REMARK    3  A    between atoms: C_9  and  N_10
REMARK    4  A    between atoms: C_14  and  N_15
REMARK    5  A    between atoms: N_15  and  S_16
REMARK    6  A    between atoms: S_16  and  C_19
REMARK    7  A    between atoms: C_22  and  N_23
REMARK                            x       y       z     vdW  Elec       q    Type
REMARK                         _______ _______ _______ _____ _____    ______ ____
ROOT
ATOM      1  N   UNL     1       4.630   5.965  17.004  0.00  0.00    +0.000 N 
ATOM      2  N   UNL     1       5.125   6.657  15.938  0.00  0.00    +0.000 NA
ATOM      3  C   UNL     1       6.229   6.001  15.585  0.00  0.00    +0.000 A 
ATOM      4  C   UNL     1       6.389   4.804  16.293  0.00  0.00    +0.000 A 
ATOM      5  C   UNL     1       5.324   4.766  17.163  0.00  0.00    +0.000 A 
ENDROOT
BRANCH   1   9
ATOM      6  C   UNL     1       1.919   8.099  19.503  0.00  0.00    +0.000 A 
ATOM      7  C   UNL     1       2.262   8.545  18.218  0.00  0.00    +0.000 A 
ATOM      8  C   UNL     1       3.109   7.807  17.388  0.00  0.00    +0.000 A 
ATOM      9  C   UNL     1       3.638   6.584  17.814  0.00  0.00    +0.000 A 
ATOM     10  C   UNL     1       3.282   6.087  19.069  0.00  0.00    +0.000 A 
ATOM     11  C   UNL     1       2.441   6.850  19.904  0.00  0.00    +0.000 A 
BRANCH   6  16
ATOM     12  C   UNL     1      -1.407  11.350  23.023  0.00  0.00    +0.000 C 
ATOM     13  C   UNL     1      -0.590  10.490  22.106  0.00  0.00    +0.000 A 
ATOM     14  C   UNL     1       0.102   9.383  22.597  0.00  0.00    +0.000 A 
ATOM     15  C   UNL     1       0.910   8.619  21.749  0.00  0.00    +0.000 A 
ATOM     16  C   UNL     1       1.049   8.922  20.380  0.00  0.00    +0.000 A 
ATOM     17  C   UNL     1       0.318  10.021  19.897  0.00  0.00    +0.000 A 
ATOM     18  C   UNL     1      -0.485  10.797  20.747  0.00  0.00    +0.000 A 
ENDBRANCH   6  16
ENDBRANCH   1   9
BRANCH   5  19
ATOM     19  N   UNL     1       5.027   3.652  17.922  0.00  0.00    +0.000 N 
ATOM     20  H   UNL     1       5.424   3.534  18.839  0.00  0.00    +0.000 HD
BRANCH  19  21
ATOM     21  S   UNL     1       3.765   2.677  17.570  0.00  0.00    +0.000 S 
ATOM     22  O   UNL     1       2.917   3.359  16.616  0.00  0.00    +0.000 OA
ATOM     23  O   UNL     1       4.221   1.326  17.301  0.00  0.00    +0.000 OA
BRANCH  21  24
ATOM     24  C   UNL     1       2.854   2.621  19.112  0.00  0.00    +0.000 A 
ATOM     25  C   UNL     1       3.546   2.490  20.322  0.00  0.00    +0.000 A 
ATOM     26  C   UNL     1       2.836   2.480  21.527  0.00  0.00    +0.000 A 
ATOM     27  C   UNL     1       1.448   2.654  21.545  0.00  0.00    +0.000 A 
ATOM     28  C   UNL     1       0.766   2.735  20.327  0.00  0.00    +0.000 A 
ATOM     29  C   UNL     1       1.463   2.748  19.113  0.00  0.00    +0.000 A 
BRANCH  27  30
ATOM     30  N   UNL     1       0.735   2.515  22.741  0.00  0.00    +0.000 N 
ATOM     31  H   UNL     1      -0.174   2.967  22.744  0.00  0.00    +0.000 HD
ATOM     32  H   UNL     1       0.677   1.562  23.086  0.00  0.00    +0.000 HD
ENDBRANCH  27  30
ENDBRANCH  21  24
ENDBRANCH  19  21
ENDBRANCH   5  19
TORSDOF 6
ENDMDL
MODEL 4
REMARK VINA RESULT:      -8.1      1.281      1.732
REMARK  Name = 
REMARK  7 active torsions:
REMARK  status: ('A' for Active; 'I' for Inactive)
REMARK    1  A    between atoms: C_1  and  C_2
REMARK    2  A    between atoms: C_5  and  C_6
REMARK    3  A    between atoms: C_9  and  N_10
REMARK    4  A    between atoms: C_14  and  N_15
REMARK    5  A    between atoms: N_15  and  S_16
REMARK    6  A    between atoms: S_16  and  C_19
REMARK    7  A    between atoms: C_22  and  N_23
REMARK                            x       y       z     vdW  Elec       q    Type
REMARK                         _______ _______ _______ _____ _____    ______ ____
ROOT
ATOM      1  N   UNL     1       6.521   5.554  16.768  0.00  0.00    +0.000 N 
ATOM      2  N   UNL     1       6.550   5.527  15.405  0.00  0.00    +0.000 NA
ATOM      3  C   UNL     1       6.286   4.262  15.080  0.00  0.00    +0.000 A 
ATOM      4  C   UNL     1       5.927   3.489  16.191  0.00  0.00    +0.000 A 
ATOM      5  C   UNL     1       6.028   4.346  17.263  0.00  0.00    +0.000 A 
ENDROOT
BRANCH   1   9
ATOM      6  C   UNL     1       8.409   8.979  18.456  0.00  0.00    +0.000 A 
ATOM      7  C   UNL     1       7.467   9.077  17.421  0.00  0.00    +0.000 A 
ATOM      8  C   UNL     1       6.815   7.950  16.915  0.00  0.00    +0.000 A 
ATOM      9  C   UNL     1       7.076   6.680  17.437  0.00  0.00    +0.000 A 
ATOM     10  C   UNL     1       7.974   6.549  18.498  0.00  0.00    +0.000 A 
ATOM     11  C   UNL     1       8.639   7.692  18.988  0.00  0.00    +0.000 A 
BRANCH   6  16
ATOM     12  C   UNL     1      11.118  13.793  20.330  0.00  0.00    +0.000 C 
ATOM     13  C   UNL     1      10.462  12.532  19.852  0.00  0.00    +0.000 A 
ATOM     14  C   UNL     1      10.321  12.276  18.489  0.00  0.00    +0.000 A 
ATOM     15  C   UNL     1       9.655  11.126  18.049  0.00  0.00    +0.000 A 
ATOM     16  C   UNL     1       9.118  10.186  18.950  0.00  0.00    +0.000 A 
ATOM     17  C   UNL     1       9.299  10.446  20.319  0.00  0.00    +0.000 A 
ATOM     18  C   UNL     1       9.956  11.603  20.765  0.00  0.00    +0.000 A 
ENDBRANCH   6  16
ENDBRANCH   1   9
BRANCH   5  19
ATOM     19  N   UNL     1       5.588   4.008  18.527  0.00  0.00    +0.000 N 
ATOM     20  H   UNL     1       6.134   4.241  19.340  0.00  0.00    +0.000 HD
BRANCH  19  21
ATOM     21  S   UNL     1       4.042   3.571  18.817  0.00  0.00    +0.000 S 
ATOM     22  O   UNL     1       3.485   3.035  17.594  0.00  0.00    +0.000 OA
ATOM     23  O   UNL     1       3.947   2.815  20.052  0.00  0.00    +0.000 OA
BRANCH  21  24
ATOM     24  C   UNL     1       3.225   5.140  19.102  0.00  0.00    +0.000 A 
ATOM     25  C   UNL     1       2.538   5.356  20.303  0.00  0.00    +0.000 A 
ATOM     26  C   UNL     1       1.928   6.593  20.538  0.00  0.00    +0.000 A 
ATOM     27  C   UNL     1       2.041   7.638  19.614  0.00  0.00    +0.000 A 
ATOM     28  C   UNL     1       2.688   7.391  18.400  0.00  0.00    +0.000 A 
ATOM     29  C   UNL     1       3.305   6.159  18.150  0.00  0.00    +0.000 A 
BRANCH  27  30
ATOM     30  N   UNL     1       1.324   8.824  19.800  0.00  0.00    +0.000 N 
ATOM     31  H   UNL     1       1.839   9.557  20.277  0.00  0.00    +0.000 HD
ATOM     32  H   UNL     1       0.870   9.175  18.961  0.00  0.00    +0.000 HD
ENDBRANCH  27  30
ENDBRANCH  21  24
ENDBRANCH  19  21
ENDBRANCH   5  19
TORSDOF 6
ENDMDL
MODEL 5
REMARK VINA RESULT:      -8.1      5.714      8.027
REMARK  Name = 
REMARK  7 active torsions:
REMARK  status: ('A' for Active; 'I' for Inactive)
REMARK    1  A    between atoms: C_1  and  C_2
REMARK    2  A    between atoms: C_5  and  C_6
REMARK    3  A    between atoms: C_9  and  N_10
REMARK    4  A    between atoms: C_14  and  N_15
REMARK    5  A    between atoms: N_15  and  S_16
REMARK    6  A    between atoms: S_16  and  C_19
REMARK    7  A    between atoms: C_22  and  N_23
REMARK                            x       y       z     vdW  Elec       q    Type
REMARK                         _______ _______ _______ _____ _____    ______ ____
ROOT
ATOM      1  N   UNL     1       0.548   8.967  21.237  0.00  0.00    +0.000 N 
ATOM      2  N   UNL     1       0.752   8.970  22.585  0.00  0.00    +0.000 NA
ATOM      3  C   UNL     1      -0.029   9.945  23.049  0.00  0.00    +0.000 A 
ATOM      4  C   UNL     1      -0.862  10.479  22.059  0.00  0.00    +0.000 A 
ATOM      5  C   UNL     1      -0.520   9.803  20.910  0.00  0.00    +0.000 A 
ENDROOT
BRANCH   1   9
ATOM      6  C   UNL     1       3.008   6.802  18.516  0.00  0.00    +0.000 A 
ATOM      7  C   UNL     1       2.574   8.110  18.254  0.00  0.00    +0.000 A 
ATOM      8  C   UNL     1       1.813   8.828  19.180  0.00  0.00    +0.000 A 
ATOM      9  C   UNL     1       1.468   8.263  20.412  0.00  0.00    +0.000 A 
ATOM     10  C   UNL     1       1.921   6.980  20.725  0.00  0.00    +0.000 A 
ATOM     11  C   UNL     1       2.673   6.259  19.775  0.00  0.00    +0.000 A 
BRANCH   6  16
ATOM     12  C   UNL     1       6.147   3.888  14.556  0.00  0.00    +0.000 C 
ATOM     13  C   UNL     1       5.303   4.635  15.546  0.00  0.00    +0.000 A 
ATOM     14  C   UNL     1       5.321   6.028  15.587  0.00  0.00    +0.000 A 
ATOM     15  C   UNL     1       4.578   6.718  16.551  0.00  0.00    +0.000 A 
ATOM     16  C   UNL     1       3.782   6.047  17.499  0.00  0.00    +0.000 A 
ATOM     17  C   UNL     1       3.751   4.643  17.420  0.00  0.00    +0.000 A 
ATOM     18  C   UNL     1       4.504   3.947  16.462  0.00  0.00    +0.000 A 
ENDBRANCH   6  16
ENDBRANCH   1   9
BRANCH   5  19
ATOM     19  N   UNL     1      -1.240   9.922  19.738  0.00  0.00    +0.000 N 
ATOM     20  H   UNL     1      -1.824   9.168  19.416  0.00  0.00    +0.000 HD
BRANCH  19  21
ATOM     21  S   UNL     1      -1.492  11.367  19.020  0.00  0.00    +0.000 S 
ATOM     22  O   UNL     1      -2.414  12.124  19.838  0.00  0.00    +0.000 OA
ATOM     23  O   UNL     1      -0.233  11.959  18.607  0.00  0.00    +0.000 OA
BRANCH  21  24
ATOM     24  C   UNL     1      -2.377  10.928  17.527  0.00  0.00    +0.000 A 
ATOM     25  C   UNL     1      -3.597  11.551  17.235  0.00  0.00    +0.000 A 
ATOM     26  C   UNL     1      -4.272  11.231  16.053  0.00  0.00    +0.000 A 
ATOM     27  C   UNL     1      -3.719  10.337  15.128  0.00  0.00    +0.000 A 
ATOM     28  C   UNL     1      -2.525   9.688  15.455  0.00  0.00    +0.000 A 
ATOM     29  C   UNL     1      -1.837   9.999  16.634  0.00  0.00    +0.000 A 
BRANCH  27  30
ATOM     30  N   UNL     1      -4.458   9.929  14.013  0.00  0.00    +0.000 N 
ATOM     31  H   UNL     1      -4.811  10.689  13.441  0.00  0.00    +0.000 HD
ATOM     32  H   UNL     1      -4.004   9.218  13.447  0.00  0.00    +0.000 HD
ENDBRANCH  27  30
ENDBRANCH  21  24
ENDBRANCH  19  21
ENDBRANCH   5  19
TORSDOF 6
ENDMDL
MODEL 6
REMARK VINA RESULT:      -8.0      3.711      7.105
REMARK  Name = 
REMARK  7 active torsions:
REMARK  status: ('A' for Active; 'I' for Inactive)
REMARK    1  A    between atoms: C_1  and  C_2
REMARK    2  A    between atoms: C_5  and  C_6
REMARK    3  A    between atoms: C_9  and  N_10
REMARK    4  A    between atoms: C_14  and  N_15
REMARK    5  A    between atoms: N_15  and  S_16
REMARK    6  A    between atoms: S_16  and  C_19
REMARK    7  A    between atoms: C_22  and  N_23
REMARK                            x       y       z     vdW  Elec       q    Type
REMARK                         _______ _______ _______ _____ _____    ______ ____
ROOT
ATOM      1  N   UNL     1       3.340   3.830  18.937  0.00  0.00    +0.000 N 
ATOM      2  N   UNL     1       3.455   2.768  19.784  0.00  0.00    +0.000 NA
ATOM      3  C   UNL     1       3.558   1.703  18.990  0.00  0.00    +0.000 A 
ATOM      4  C   UNL     1       3.672   2.054  17.639  0.00  0.00    +0.000 A 
ATOM      5  C   UNL     1       3.587   3.427  17.624  0.00  0.00    +0.000 A 
ENDROOT
BRANCH   1   9
ATOM      6  C   UNL     1       1.640   7.452  20.398  0.00  0.00    +0.000 A 
ATOM      7  C   UNL     1       1.450   6.222  21.045  0.00  0.00    +0.000 A 
ATOM      8  C   UNL     1       2.059   5.051  20.586  0.00  0.00    +0.000 A 
ATOM      9  C   UNL     1       2.893   5.073  19.463  0.00  0.00    +0.000 A 
ATOM     10  C   UNL     1       3.140   6.288  18.821  0.00  0.00    +0.000 A 
ATOM     11  C   UNL     1       2.506   7.459  19.283  0.00  0.00    +0.000 A 
BRANCH   6  16
ATOM     12  C   UNL     1      -1.158  12.236  22.219  0.00  0.00    +0.000 C 
ATOM     13  C   UNL     1      -0.398  11.025  21.764  0.00  0.00    +0.000 A 
ATOM     14  C   UNL     1      -0.013  10.886  20.431  0.00  0.00    +0.000 A 
ATOM     15  C   UNL     1       0.644   9.728  20.001  0.00  0.00    +0.000 A 
ATOM     16  C   UNL     1       0.950   8.674  20.883  0.00  0.00    +0.000 A 
ATOM     17  C   UNL     1       0.582   8.847  22.229  0.00  0.00    +0.000 A 
ATOM     18  C   UNL     1      -0.087  10.002  22.663  0.00  0.00    +0.000 A 
ENDBRANCH   6  16
ENDBRANCH   1   9
BRANCH   5  19
ATOM     19  N   UNL     1       3.831   4.173  16.488  0.00  0.00    +0.000 N 
ATOM     20  H   UNL     1       3.219   4.929  16.230  0.00  0.00    +0.000 HD
BRANCH  19  21
ATOM     21  S   UNL     1       5.274   4.140  15.725  0.00  0.00    +0.000 S 
ATOM     22  O   UNL     1       5.828   2.811  15.861  0.00  0.00    +0.000 OA
ATOM     23  O   UNL     1       5.173   4.754  14.414  0.00  0.00    +0.000 OA
BRANCH  21  24
ATOM     24  C   UNL     1       6.289   5.220  16.730  0.00  0.00    +0.000 A 
ATOM     25  C   UNL     1       6.241   6.605  16.526  0.00  0.00    +0.000 A 
ATOM     26  C   UNL     1       7.009   7.450  17.333  0.00  0.00    +0.000 A 
ATOM     27  C   UNL     1       7.784   6.936  18.380  0.00  0.00    +0.000 A 
ATOM     28  C   UNL     1       7.859   5.549  18.540  0.00  0.00    +0.000 A 
ATOM     29  C   UNL     1       7.095   4.690  17.741  0.00  0.00    +0.000 A 
BRANCH  27  30
ATOM     30  N   UNL     1       8.644   7.774  19.097  0.00  0.00    +0.000 N 
ATOM     31  H   UNL     1       8.261   8.689  19.308  0.00  0.00    +0.000 HD
ATOM     32  H   UNL     1       9.055   7.345  19.921  0.00  0.00    +0.000 HD
ENDBRANCH  27  30
ENDBRANCH  21  24
ENDBRANCH  19  21
ENDBRANCH   5  19
TORSDOF 6
ENDMDL
MODEL 7
REMARK VINA RESULT:      -7.9      5.856      8.291
REMARK  Name = 
REMARK  7 active torsions:
REMARK  status: ('A' for Active; 'I' for Inactive)
REMARK    1  A    between atoms: C_1  and  C_2
REMARK    2  A    between atoms: C_5  and  C_6
REMARK    3  A    between atoms: C_9  and  N_10
REMARK    4  A    between atoms: C_14  and  N_15
REMARK    5  A    between atoms: N_15  and  S_16
REMARK    6  A    between atoms: S_16  and  C_19
REMARK    7  A    between atoms: C_22  and  N_23
REMARK                            x       y       z     vdW  Elec       q    Type
REMARK                         _______ _______ _______ _____ _____    ______ ____
ROOT
ATOM      1  N   UNL     1       0.307   9.906  20.969  0.00  0.00    +0.000 N 
ATOM      2  N   UNL     1      -0.538   9.380  21.900  0.00  0.00    +0.000 NA
ATOM      3  C   UNL     1      -0.741  10.363  22.775  0.00  0.00    +0.000 A 
ATOM      4  C   UNL     1      -0.176  11.574  22.359  0.00  0.00    +0.000 A 
ATOM      5  C   UNL     1       0.448  11.279  21.169  0.00  0.00    +0.000 A 
ENDROOT
BRANCH   1   9
ATOM      6  C   UNL     1       2.629   7.339  18.485  0.00  0.00    +0.000 A 
ATOM      7  C   UNL     1       2.321   7.016  19.815  0.00  0.00    +0.000 A 
ATOM      8  C   UNL     1       1.512   7.841  20.601  0.00  0.00    +0.000 A 
ATOM      9  C   UNL     1       0.972   9.019  20.077  0.00  0.00    +0.000 A 
ATOM     10  C   UNL     1       1.220   9.350  18.743  0.00  0.00    +0.000 A 
ATOM     11  C   UNL     1       2.052   8.518  17.966  0.00  0.00    +0.000 A 
BRANCH   6  16
ATOM     12  C   UNL     1       6.046   3.861  15.283  0.00  0.00    +0.000 C 
ATOM     13  C   UNL     1       5.199   4.754  16.141  0.00  0.00    +0.000 A 
ATOM     14  C   UNL     1       4.181   4.225  16.932  0.00  0.00    +0.000 A 
ATOM     15  C   UNL     1       3.357   5.068  17.684  0.00  0.00    +0.000 A 
ATOM     16  C   UNL     1       3.523   6.466  17.684  0.00  0.00    +0.000 A 
ATOM     17  C   UNL     1       4.576   6.979  16.905  0.00  0.00    +0.000 A 
ATOM     18  C   UNL     1       5.398   6.137  16.141  0.00  0.00    +0.000 A 
ENDBRANCH   6  16
ENDBRANCH   1   9
BRANCH   5  19
ATOM     19  N   UNL     1       0.981  12.254  20.349  0.00  0.00    +0.000 N 
ATOM     20  H   UNL     1       1.865  12.112  19.890  0.00  0.00    +0.000 HD
BRANCH  19  21
ATOM     21  S   UNL     1       0.082  13.493  19.780  0.00  0.00    +0.000 S 
ATOM     22  O   UNL     1      -0.288  14.335  20.897  0.00  0.00    +0.000 OA
ATOM     23  O   UNL     1       0.700  14.076  18.604  0.00  0.00    +0.000 OA
BRANCH  21  24
ATOM     24  C   UNL     1      -1.420  12.684  19.234  0.00  0.00    +0.000 A 
ATOM     25  C   UNL     1      -2.600  12.839  19.974  0.00  0.00    +0.000 A 
ATOM     26  C   UNL     1      -3.779  12.233  19.528  0.00  0.00    +0.000 A 
ATOM     27  C   UNL     1      -3.812  11.521  18.323  0.00  0.00    +0.000 A 
ATOM     28  C   UNL     1      -2.617  11.336  17.622  0.00  0.00    +0.000 A 
ATOM     29  C   UNL     1      -1.428  11.936  18.054  0.00  0.00    +0.000 A 
BRANCH  27  30
ATOM     30  N   UNL     1      -4.961  10.816  17.952  0.00  0.00    +0.000 N 
ATOM     31  H   UNL     1      -5.799  11.078  18.462  0.00  0.00    +0.000 HD
ATOM     32  H   UNL     1      -5.129  10.786  16.951  0.00  0.00    +0.000 HD
ENDBRANCH  27  30
ENDBRANCH  21  24
ENDBRANCH  19  21
ENDBRANCH   5  19
TORSDOF 6
ENDMDL
MODEL 8
REMARK VINA RESULT:      -7.9      0.998      1.402
REMARK  Name = 
REMARK  7 active torsions:
REMARK  status: ('A' for Active; 'I' for Inactive)
REMARK    1  A    between atoms: C_1  and  C_2
REMARK    2  A    between atoms: C_5  and  C_6
REMARK    3  A    between atoms: C_9  and  N_10
REMARK    4  A    between atoms: C_14  and  N_15
REMARK    5  A    between atoms: N_15  and  S_16
REMARK    6  A    between atoms: S_16  and  C_19
REMARK    7  A    between atoms: C_22  and  N_23
REMARK                            x       y       z     vdW  Elec       q    Type
REMARK                         _______ _______ _______ _____ _____    ______ ____
ROOT
ATOM      1  N   UNL     1       6.346   5.645  16.882  0.00  0.00    +0.000 N 
ATOM      2  N   UNL     1       6.470   5.492  15.533  0.00  0.00    +0.000 NA
ATOM      3  C   UNL     1       6.099   4.236  15.292  0.00  0.00    +0.000 A 
ATOM      4  C   UNL     1       5.582   3.604  16.430  0.00  0.00    +0.000 A 
ATOM      5  C   UNL     1       5.695   4.540  17.432  0.00  0.00    +0.000 A 
ENDROOT
BRANCH   1   9
ATOM      6  C   UNL     1       8.417   9.041  18.405  0.00  0.00    +0.000 A 
ATOM      7  C   UNL     1       7.436   9.147  17.408  0.00  0.00    +0.000 A 
ATOM      8  C   UNL     1       6.726   8.032  16.957  0.00  0.00    +0.000 A 
ATOM      9  C   UNL     1       6.966   6.766  17.499  0.00  0.00    +0.000 A 
ATOM     10  C   UNL     1       7.904   6.630  18.525  0.00  0.00    +0.000 A 
ATOM     11  C   UNL     1       8.626   7.760  18.959  0.00  0.00    +0.000 A 
BRANCH   6  16
ATOM     12  C   UNL     1      11.505  13.662  20.177  0.00  0.00    +0.000 C 
ATOM     13  C   UNL     1      10.674  12.501  19.716  0.00  0.00    +0.000 A 
ATOM     14  C   UNL     1      10.051  11.662  20.638  0.00  0.00    +0.000 A 
ATOM     15  C   UNL     1       9.326  10.547  20.204  0.00  0.00    +0.000 A 
ATOM     16  C   UNL     1       9.186  10.235  18.838  0.00  0.00    +0.000 A 
ATOM     17  C   UNL     1       9.794  11.111  17.922  0.00  0.00    +0.000 A 
ATOM     18  C   UNL     1      10.532  12.225  18.354  0.00  0.00    +0.000 A 
ENDBRANCH   6  16
ENDBRANCH   1   9
BRANCH   5  19
ATOM     19  N   UNL     1       5.133   4.361  18.681  0.00  0.00    +0.000 N 
ATOM     20  H   UNL     1       5.650   4.588  19.514  0.00  0.00    +0.000 HD
BRANCH  19  21
ATOM     21  S   UNL     1       3.526   4.147  18.883  0.00  0.00    +0.000 S 
ATOM     22  O   UNL     1       2.986   3.589  17.662  0.00  0.00    +0.000 OA
ATOM     23  O   UNL     1       3.252   3.508  20.157  0.00  0.00    +0.000 OA
BRANCH  21  24
ATOM     24  C   UNL     1       2.905   5.823  18.996  0.00  0.00    +0.000 A 
ATOM     25  C   UNL     1       3.010   6.677  17.890  0.00  0.00    +0.000 A 
ATOM     26  C   UNL     1       2.495   7.975  17.969  0.00  0.00    +0.000 A 
ATOM     27  C   UNL     1       1.827   8.416  19.117  0.00  0.00    +0.000 A 
ATOM     28  C   UNL     1       1.774   7.569  20.228  0.00  0.00    +0.000 A 
ATOM     29  C   UNL     1       2.283   6.266  20.165  0.00  0.00    +0.000 A 
BRANCH  27  30
ATOM     30  N   UNL     1       1.429   9.752  19.232  0.00  0.00    +0.000 N 
ATOM     31  H   UNL     1       1.223  10.207  18.349  0.00  0.00    +0.000 HD
ATOM     32  H   UNL     1       0.694   9.913  19.915  0.00  0.00    +0.000 HD
ENDBRANCH  27  30
ENDBRANCH  21  24
ENDBRANCH  19  21
ENDBRANCH   5  19
TORSDOF 6
ENDMDL
MODEL 9
REMARK VINA RESULT:      -7.9      6.314      9.028
REMARK  Name = 
REMARK  7 active torsions:
REMARK  status: ('A' for Active; 'I' for Inactive)
REMARK    1  A    between atoms: C_1  and  C_2
REMARK    2  A    between atoms: C_5  and  C_6
REMARK    3  A    between atoms: C_9  and  N_10
REMARK    4  A    between atoms: C_14  and  N_15
REMARK    5  A    between atoms: N_15  and  S_16
REMARK    6  A    between atoms: S_16  and  C_19
REMARK    7  A    between atoms: C_22  and  N_23
REMARK                            x       y       z     vdW  Elec       q    Type
REMARK                         _______ _______ _______ _____ _____    ______ ____
ROOT
ATOM      1  N   UNL     1       0.620  11.396  18.995  0.00  0.00    +0.000 N 
ATOM      2  N   UNL     1       1.436  12.488  18.984  0.00  0.00    +0.000 NA
ATOM      3  C   UNL     1       0.663  13.492  18.573  0.00  0.00    +0.000 A 
ATOM      4  C   UNL     1      -0.682  13.120  18.464  0.00  0.00    +0.000 A 
ATOM      5  C   UNL     1      -0.705  11.784  18.792  0.00  0.00    +0.000 A 
ENDROOT
BRANCH   1   9
ATOM      6  C   UNL     1       2.102   7.403  19.016  0.00  0.00    +0.000 A 
ATOM      7  C   UNL     1       2.197   8.231  17.888  0.00  0.00    +0.000 A 
ATOM      8  C   UNL     1       1.757   9.556  17.913  0.00  0.00    +0.000 A 
ATOM      9  C   UNL     1       1.212  10.106  19.078  0.00  0.00    +0.000 A 
ATOM     10  C   UNL     1       1.143   9.325  20.232  0.00  0.00    +0.000 A 
ATOM     11  C   UNL     1       1.574   7.983  20.190  0.00  0.00    +0.000 A 
BRANCH   6  16
ATOM     12  C   UNL     1       3.714   1.801  18.796  0.00  0.00    +0.000 C 
ATOM     13  C   UNL     1       3.343   3.253  18.864  0.00  0.00    +0.000 A 
ATOM     14  C   UNL     1       2.792   3.793  20.025  0.00  0.00    +0.000 A 
ATOM     15  C   UNL     1       2.393   5.134  20.063  0.00  0.00    +0.000 A 
ATOM     16  C   UNL     1       2.540   5.986  18.952  0.00  0.00    +0.000 A 
ATOM     17  C   UNL     1       3.128   5.432  17.801  0.00  0.00    +0.000 A 
ATOM     18  C   UNL     1       3.519   4.084  17.755  0.00  0.00    +0.000 A 
ENDBRANCH   6  16
ENDBRANCH   1   9
BRANCH   5  19
ATOM     19  N   UNL     1      -1.881  11.084  18.970  0.00  0.00    +0.000 N 
ATOM     20  H   UNL     1      -2.289  10.990  19.886  0.00  0.00    +0.000 HD
BRANCH  19  21
ATOM     21  S   UNL     1      -2.859  10.704  17.719  0.00  0.00    +0.000 S 
ATOM     22  O   UNL     1      -2.261  11.213  16.505  0.00  0.00    +0.000 OA
ATOM     23  O   UNL     1      -3.275   9.316  17.799  0.00  0.00    +0.000 OA
BRANCH  21  24
ATOM     24  C   UNL     1      -4.315  11.702  18.026  0.00  0.00    +0.000 A 
ATOM     25  C   UNL     1      -5.215  11.954  16.983  0.00  0.00    +0.000 A 
ATOM     26  C   UNL     1      -6.368  12.706  17.232  0.00  0.00    +0.000 A 
ATOM     27  C   UNL     1      -6.664  13.164  18.521  0.00  0.00    +0.000 A 
ATOM     28  C   UNL     1      -5.732  12.946  19.540  0.00  0.00    +0.000 A 
ATOM     29  C   UNL     1      -4.574  12.194  19.307  0.00  0.00    +0.000 A 
BRANCH  27  30
ATOM     30  N   UNL     1      -7.750  14.020  18.733  0.00  0.00    +0.000 N 
ATOM     31  H   UNL     1      -7.599  14.976  18.427  0.00  0.00    +0.000 HD
ATOM     32  H   UNL     1      -8.639  13.659  18.399  0.00  0.00    +0.000 HD
ENDBRANCH  27  30
ENDBRANCH  21  24
ENDBRANCH  19  21
ENDBRANCH   5  19
TORSDOF 6
ENDMDL
