MODEL 1
REMARK VINA RESULT:      -6.3      0.000      0.000
REMARK  Name = 
REMARK  3 active torsions:
REMARK  status: ('A' for Active; 'I' for Inactive)
REMARK    1  A    between atoms: N_5  and  C_6
REMARK    2  A    between atoms: C_12  and  C_13
REMARK    3  A    between atoms: N_22  and  C_23
REMARK                            x       y       z     vdW  Elec       q    Type
REMARK                         _______ _______ _______ _____ _____    ______ ____
ROOT
ATOM      1  O   UNL     1      -0.302  14.834  23.558  0.00  0.00    +0.000 OA
ATOM      2  C   UNL     1      -1.386  14.278  23.678  0.00  0.00    +0.000 C 
ATOM      3  C   UNL     1      -2.494  14.852  24.512  0.00  0.00    +0.000 C 
ATOM      4  O   UNL     1      -2.866  16.070  23.880  0.00  0.00    +0.000 OA
ATOM      5  N   UNL     1      -4.086  15.847  23.233  0.00  0.00    +0.000 N 
ATOM      6  C   UNL     1      -4.723  14.596  23.652  0.00  0.00    +0.000 C 
ATOM      7  C   UNL     1      -3.627  13.868  24.435  0.00  0.00    +0.000 C 
ATOM      8  C   UNL     1      -2.968  12.689  23.765  0.00  0.00    +0.000 C 
ATOM      9  O   UNL     1      -3.433  11.561  23.851  0.00  0.00    +0.000 OA
ATOM     10  N   UNL     1      -1.811  13.086  23.137  0.00  0.00    +0.000 N 
ENDROOT
BRANCH  10  11
ATOM     11  C   UNL     1      -1.135  12.365  22.092  0.00  0.00    +0.000 A 
ATOM     12  C   UNL     1      -1.247  12.751  20.744  0.00  0.00    +0.000 A 
ATOM     13  C   UNL     1      -0.736  11.965  19.700  0.00  0.00    +0.000 A 
ATOM     14  C   UNL     1      -0.080  10.771  19.976  0.00  0.00    +0.000 A 
ATOM     15 CL   UNL     1       0.466   9.823  18.642  0.00  0.00    +0.000 Cl
ATOM     16  C   UNL     1       0.087  10.382  21.305  0.00  0.00    +0.000 A 
ATOM     17 CL   UNL     1       0.897   8.916  21.733  0.00  0.00    +0.000 Cl
ATOM     18  C   UNL     1      -0.435  11.172  22.346  0.00  0.00    +0.000 A 
ENDBRANCH  10  11
BRANCH   5  19
ATOM     19  C   UNL     1      -4.352  16.503  22.035  0.00  0.00    +0.000 A 
ATOM     20  C   UNL     1      -3.337  16.659  21.079  0.00  0.00    +0.000 A 
ATOM     21  C   UNL     1      -3.577  17.299  19.864  0.00  0.00    +0.000 A 
ATOM     22  C   UNL     1      -4.831  17.842  19.604  0.00  0.00    +0.000 A 
ATOM     23  C   UNL     1      -5.844  17.729  20.553  0.00  0.00    +0.000 A 
ATOM     24  C   UNL     1      -5.609  17.053  21.756  0.00  0.00    +0.000 A 
ENDBRANCH   5  19
BRANCH   6  25
ATOM     25  C   UNL     1      -5.379  13.761  22.573  0.00  0.00    +0.000 A 
ATOM     26  C   UNL     1      -4.817  13.563  21.306  0.00  0.00    +0.000 A 
ATOM     27  C   UNL     1      -5.328  12.588  20.457  0.00  0.00    +0.000 A 
ATOM     28  C   UNL     1      -6.443  11.883  20.872  0.00  0.00    +0.000 A 
ATOM     29  N   UNL     1      -7.078  12.111  22.041  0.00  0.00    +0.000 NA
ATOM     30  C   UNL     1      -6.534  13.037  22.861  0.00  0.00    +0.000 A 
ENDBRANCH   6  25
TORSDOF 3
ENDMDL
MODEL 2
REMARK VINA RESULT:      -6.2      0.806      1.397
REMARK  Name = 
REMARK  3 active torsions:
REMARK  status: ('A' for Active; 'I' for Inactive)
REMARK    1  A    between atoms: N_5  and  C_6
REMARK    2  A    between atoms: C_12  and  C_13
REMARK    3  A    between atoms: N_22  and  C_23
REMARK                            x       y       z     vdW  Elec       q    Type
REMARK                         _______ _______ _______ _____ _____    ______ ____
ROOT
ATOM      1  O   UNL     1      -0.582  14.590  23.848  0.00  0.00    +0.000 OA
ATOM      2  C   UNL     1      -1.749  14.229  23.925  0.00  0.00    +0.000 C 
ATOM      3  C   UNL     1      -2.799  15.053  24.614  0.00  0.00    +0.000 C 
ATOM      4  O   UNL     1      -2.918  16.248  23.853  0.00  0.00    +0.000 OA
ATOM      5  N   UNL     1      -4.111  16.162  23.128  0.00  0.00    +0.000 N 
ATOM      6  C   UNL     1      -4.976  15.076  23.597  0.00  0.00    +0.000 C 
ATOM      7  C   UNL     1      -4.072  14.261  24.527  0.00  0.00    +0.000 C 
ATOM      8  C   UNL     1      -3.577  12.932  24.015  0.00  0.00    +0.000 C 
ATOM      9  O   UNL     1      -4.230  11.907  24.157  0.00  0.00    +0.000 OA
ATOM     10  N   UNL     1      -2.330  13.075  23.454  0.00  0.00    +0.000 N 
ENDROOT
BRANCH  10  11
ATOM     11  C   UNL     1      -1.716  12.157  22.532  0.00  0.00    +0.000 A 
ATOM     12  C   UNL     1      -1.040  11.008  22.980  0.00  0.00    +0.000 A 
ATOM     13  C   UNL     1      -0.295  10.197  22.112  0.00  0.00    +0.000 A 
ATOM     14  C   UNL     1      -0.215  10.503  20.759  0.00  0.00    +0.000 A 
ATOM     15 CL   UNL     1       0.772   9.501  19.760  0.00  0.00    +0.000 Cl
ATOM     16  C   UNL     1      -0.910  11.611  20.274  0.00  0.00    +0.000 A 
ATOM     17 CL   UNL     1      -0.869  12.057  18.604  0.00  0.00    +0.000 Cl
ATOM     18  C   UNL     1      -1.650  12.424  21.152  0.00  0.00    +0.000 A 
ENDBRANCH  10  11
BRANCH   5  19
ATOM     19  C   UNL     1      -4.182  16.734  21.862  0.00  0.00    +0.000 A 
ATOM     20  C   UNL     1      -3.063  16.707  21.016  0.00  0.00    +0.000 A 
ATOM     21  C   UNL     1      -3.107  17.260  19.736  0.00  0.00    +0.000 A 
ATOM     22  C   UNL     1      -4.264  17.895  19.297  0.00  0.00    +0.000 A 
ATOM     23  C   UNL     1      -5.376  17.963  20.133  0.00  0.00    +0.000 A 
ATOM     24  C   UNL     1      -5.339  17.375  21.403  0.00  0.00    +0.000 A 
ENDBRANCH   5  19
BRANCH   6  25
ATOM     25  C   UNL     1      -5.688  14.258  22.543  0.00  0.00    +0.000 A 
ATOM     26  C   UNL     1      -5.061  13.784  21.383  0.00  0.00    +0.000 A 
ATOM     27  C   UNL     1      -5.686  12.830  20.588  0.00  0.00    +0.000 A 
ATOM     28  C   UNL     1      -6.962  12.427  20.936  0.00  0.00    +0.000 A 
ATOM     29  N   UNL     1      -7.645  12.933  21.985  0.00  0.00    +0.000 NA
ATOM     30  C   UNL     1      -6.995  13.828  22.762  0.00  0.00    +0.000 A 
ENDBRANCH   6  25
TORSDOF 3
ENDMDL
MODEL 3
REMARK VINA RESULT:      -6.2     10.088     13.332
REMARK  Name = 
REMARK  3 active torsions:
REMARK  status: ('A' for Active; 'I' for Inactive)
REMARK    1  A    between atoms: N_5  and  C_6
REMARK    2  A    between atoms: C_12  and  C_13
REMARK    3  A    between atoms: N_22  and  C_23
REMARK                            x       y       z     vdW  Elec       q    Type
REMARK                         _______ _______ _______ _____ _____    ______ ____
ROOT
ATOM      1  O   UNL     1       6.486  13.417  22.390  0.00  0.00    +0.000 OA
ATOM      2  C   UNL     1       7.302  14.291  22.128  0.00  0.00    +0.000 C 
ATOM      3  C   UNL     1       8.689  14.291  22.703  0.00  0.00    +0.000 C 
ATOM      4  O   UNL     1       9.329  13.136  22.176  0.00  0.00    +0.000 OA
ATOM      5  N   UNL     1      10.227  13.569  21.195  0.00  0.00    +0.000 N 
ATOM      6  C   UNL     1      10.452  15.016  21.240  0.00  0.00    +0.000 C 
ATOM      7  C   UNL     1       9.357  15.531  22.179  0.00  0.00    +0.000 C 
ATOM      8  C   UNL     1       8.199  16.264  21.551  0.00  0.00    +0.000 C 
ATOM      9  O   UNL     1       8.242  17.470  21.343  0.00  0.00    +0.000 OA
ATOM     10  N   UNL     1       7.155  15.400  21.326  0.00  0.00    +0.000 N 
ENDROOT
BRANCH  10  11
ATOM     11  C   UNL     1       6.067  15.619  20.412  0.00  0.00    +0.000 A 
ATOM     12  C   UNL     1       6.107  15.134  19.093  0.00  0.00    +0.000 A 
ATOM     13  C   UNL     1       5.136  15.481  18.142  0.00  0.00    +0.000 A 
ATOM     14  C   UNL     1       4.080  16.316  18.488  0.00  0.00    +0.000 A 
ATOM     15 CL   UNL     1       2.958  16.756  17.253  0.00  0.00    +0.000 Cl
ATOM     16  C   UNL     1       3.986  16.779  19.801  0.00  0.00    +0.000 A 
ATOM     17 CL   UNL     1       2.701  17.815  20.316  0.00  0.00    +0.000 Cl
ATOM     18  C   UNL     1       4.968  16.432  20.747  0.00  0.00    +0.000 A 
ENDBRANCH  10  11
BRANCH   5  19
ATOM     19  C   UNL     1      10.455  12.771  20.078  0.00  0.00    +0.000 A 
ATOM     20  C   UNL     1       9.373  12.190  19.400  0.00  0.00    +0.000 A 
ATOM     21  C   UNL     1       9.567  11.397  18.268  0.00  0.00    +0.000 A 
ATOM     22  C   UNL     1      10.858  11.131  17.825  0.00  0.00    +0.000 A 
ATOM     23  C   UNL     1      11.948  11.670  18.504  0.00  0.00    +0.000 A 
ATOM     24  C   UNL     1      11.747  12.495  19.616  0.00  0.00    +0.000 A 
ENDBRANCH   5  19
BRANCH   6  25
ATOM     25  C   UNL     1      10.530  15.743  19.915  0.00  0.00    +0.000 A 
ATOM     26  C   UNL     1       9.682  15.467  18.835  0.00  0.00    +0.000 A 
ATOM     27  C   UNL     1       9.628  16.332  17.748  0.00  0.00    +0.000 A 
ATOM     28  C   UNL     1      10.483  17.418  17.737  0.00  0.00    +0.000 A 
ATOM     29  N   UNL     1      11.389  17.666  18.706  0.00  0.00    +0.000 NA
ATOM     30  C   UNL     1      11.390  16.830  19.769  0.00  0.00    +0.000 A 
ENDBRANCH   6  25
TORSDOF 3
ENDMDL
MODEL 4
REMARK VINA RESULT:      -6.1      3.530      6.551
REMARK  Name = 
REMARK  3 active torsions:
REMARK  status: ('A' for Active; 'I' for Inactive)
REMARK    1  A    between atoms: N_5  and  C_6
REMARK    2  A    between atoms: C_12  and  C_13
REMARK    3  A    between atoms: N_22  and  C_23
REMARK                            x       y       z     vdW  Elec       q    Type
REMARK                         _______ _______ _______ _____ _____    ______ ____
ROOT
ATOM      1  O   UNL     1      -0.817  14.781  24.228  0.00  0.00    +0.000 OA
ATOM      2  C   UNL     1      -1.033  14.730  23.024  0.00  0.00    +0.000 C 
ATOM      3  C   UNL     1       0.074  14.676  22.012  0.00  0.00    +0.000 C 
ATOM      4  O   UNL     1       0.746  13.443  22.235  0.00  0.00    +0.000 OA
ATOM      5  N   UNL     1       0.377  12.576  21.202  0.00  0.00    +0.000 N 
ATOM      6  C   UNL     1      -0.293  13.269  20.099  0.00  0.00    +0.000 C 
ATOM      7  C   UNL     1      -0.592  14.660  20.666  0.00  0.00    +0.000 C 
ATOM      8  C   UNL     1      -2.024  14.964  21.026  0.00  0.00    +0.000 C 
ATOM      9  O   UNL     1      -2.813  15.404  20.199  0.00  0.00    +0.000 OA
ATOM     10  N   UNL     1      -2.239  14.725  22.362  0.00  0.00    +0.000 N 
ENDROOT
BRANCH  10  11
ATOM     11  C   UNL     1      -3.521  14.518  22.981  0.00  0.00    +0.000 A 
ATOM     12  C   UNL     1      -3.924  13.247  23.428  0.00  0.00    +0.000 A 
ATOM     13  C   UNL     1      -5.228  12.995  23.877  0.00  0.00    +0.000 A 
ATOM     14  C   UNL     1      -6.171  14.016  23.908  0.00  0.00    +0.000 A 
ATOM     15 CL   UNL     1      -7.774  13.621  24.409  0.00  0.00    +0.000 Cl
ATOM     16  C   UNL     1      -5.791  15.298  23.513  0.00  0.00    +0.000 A 
ATOM     17 CL   UNL     1      -6.900  16.625  23.528  0.00  0.00    +0.000 Cl
ATOM     18  C   UNL     1      -4.482  15.542  23.057  0.00  0.00    +0.000 A 
ENDBRANCH  10  11
BRANCH   5  19
ATOM     19  C   UNL     1       0.256  11.214  21.465  0.00  0.00    +0.000 A 
ATOM     20  C   UNL     1      -0.452  10.779  22.595  0.00  0.00    +0.000 A 
ATOM     21  C   UNL     1      -0.602   9.421  22.878  0.00  0.00    +0.000 A 
ATOM     22  C   UNL     1      -0.001   8.473  22.056  0.00  0.00    +0.000 A 
ATOM     23  C   UNL     1       0.735   8.885  20.948  0.00  0.00    +0.000 A 
ATOM     24  C   UNL     1       0.852  10.247  20.647  0.00  0.00    +0.000 A 
ENDBRANCH   5  19
BRANCH   6  25
ATOM     25  C   UNL     1      -1.487  12.580  19.474  0.00  0.00    +0.000 A 
ATOM     26  C   UNL     1      -2.711  12.412  20.135  0.00  0.00    +0.000 A 
ATOM     27  C   UNL     1      -3.838  12.010  19.428  0.00  0.00    +0.000 A 
ATOM     28  C   UNL     1      -3.694  11.712  18.086  0.00  0.00    +0.000 A 
ATOM     29  N   UNL     1      -2.514  11.760  17.433  0.00  0.00    +0.000 NA
ATOM     30  C   UNL     1      -1.444  12.193  18.136  0.00  0.00    +0.000 A 
ENDBRANCH   6  25
TORSDOF 3
ENDMDL
MODEL 5
REMARK VINA RESULT:      -6.0      9.372     12.686
REMARK  Name = 
REMARK  3 active torsions:
REMARK  status: ('A' for Active; 'I' for Inactive)
REMARK    1  A    between atoms: N_5  and  C_6
REMARK    2  A    between atoms: C_12  and  C_13
REMARK    3  A    between atoms: N_22  and  C_23
REMARK                            x       y       z     vdW  Elec       q    Type
REMARK                         _______ _______ _______ _____ _____    ______ ____
ROOT
ATOM      1  O   UNL     1       6.533  12.438  23.055  0.00  0.00    +0.000 OA
ATOM      2  C   UNL     1       7.173  13.441  22.768  0.00  0.00    +0.000 C 
ATOM      3  C   UNL     1       8.610  13.618  23.167  0.00  0.00    +0.000 C 
ATOM      4  O   UNL     1       9.333  12.609  22.474  0.00  0.00    +0.000 OA
ATOM      5  N   UNL     1      10.022  13.234  21.430  0.00  0.00    +0.000 N 
ATOM      6  C   UNL     1      10.040  14.693  21.564  0.00  0.00    +0.000 C 
ATOM      7  C   UNL     1       9.017  14.975  22.667  0.00  0.00    +0.000 C 
ATOM      8  C   UNL     1       7.693  15.560  22.246  0.00  0.00    +0.000 C 
ATOM      9  O   UNL     1       7.533  16.768  22.133  0.00  0.00    +0.000 OA
ATOM     10  N   UNL     1       6.763  14.561  22.082  0.00  0.00    +0.000 N 
ENDROOT
BRANCH  10  11
ATOM     11  C   UNL     1       5.543  14.668  21.327  0.00  0.00    +0.000 A 
ATOM     12  C   UNL     1       4.297  14.358  21.900  0.00  0.00    +0.000 A 
ATOM     13  C   UNL     1       3.122  14.294  21.136  0.00  0.00    +0.000 A 
ATOM     14  C   UNL     1       3.156  14.554  19.771  0.00  0.00    +0.000 A 
ATOM     15 CL   UNL     1       1.687  14.392  18.880  0.00  0.00    +0.000 Cl
ATOM     16  C   UNL     1       4.369  14.907  19.180  0.00  0.00    +0.000 A 
ATOM     17 CL   UNL     1       4.497  15.253  17.491  0.00  0.00    +0.000 Cl
ATOM     18  C   UNL     1       5.545  14.963  19.952  0.00  0.00    +0.000 A 
ENDBRANCH  10  11
BRANCH   5  19
ATOM     19  C   UNL     1      10.212  12.551  20.233  0.00  0.00    +0.000 A 
ATOM     20  C   UNL     1       9.176  11.769  19.700  0.00  0.00    +0.000 A 
ATOM     21  C   UNL     1       9.331  11.084  18.495  0.00  0.00    +0.000 A 
ATOM     22  C   UNL     1      10.549  11.130  17.825  0.00  0.00    +0.000 A 
ATOM     23  C   UNL     1      11.602  11.873  18.354  0.00  0.00    +0.000 A 
ATOM     24  C   UNL     1      11.430  12.589  19.544  0.00  0.00    +0.000 A 
ENDBRANCH   5  19
BRANCH   6  25
ATOM     25  C   UNL     1       9.837  15.504  20.302  0.00  0.00    +0.000 A 
ATOM     26  C   UNL     1       8.932  15.145  19.295  0.00  0.00    +0.000 A 
ATOM     27  C   UNL     1       8.603  16.052  18.294  0.00  0.00    +0.000 A 
ATOM     28  C   UNL     1       9.247  17.275  18.286  0.00  0.00    +0.000 A 
ATOM     29  N   UNL     1      10.200  17.623  19.175  0.00  0.00    +0.000 NA
ATOM     30  C   UNL     1      10.470  16.737  20.160  0.00  0.00    +0.000 A 
ENDBRANCH   6  25
TORSDOF 3
ENDMDL
MODEL 6
REMARK VINA RESULT:      -6.0      1.161      1.595
REMARK  Name = 
REMARK  3 active torsions:
REMARK  status: ('A' for Active; 'I' for Inactive)
REMARK    1  A    between atoms: N_5  and  C_6
REMARK    2  A    between atoms: C_12  and  C_13
REMARK    3  A    between atoms: N_22  and  C_23
REMARK                            x       y       z     vdW  Elec       q    Type
REMARK                         _______ _______ _______ _____ _____    ______ ____
ROOT
ATOM      1  O   UNL     1      -0.743  15.086  22.053  0.00  0.00    +0.000 OA
ATOM      2  C   UNL     1      -1.664  14.485  22.590  0.00  0.00    +0.000 C 
ATOM      3  C   UNL     1      -2.400  15.040  23.776  0.00  0.00    +0.000 C 
ATOM      4  O   UNL     1      -3.056  16.214  23.312  0.00  0.00    +0.000 OA
ATOM      5  N   UNL     1      -4.415  15.909  23.187  0.00  0.00    +0.000 N 
ATOM      6  C   UNL     1      -4.770  14.647  23.842  0.00  0.00    +0.000 C 
ATOM      7  C   UNL     1      -3.417  14.002  24.157  0.00  0.00    +0.000 C 
ATOM      8  C   UNL     1      -2.997  12.830  23.307  0.00  0.00    +0.000 C 
ATOM      9  O   UNL     1      -3.328  11.685  23.586  0.00  0.00    +0.000 OA
ATOM     10  N   UNL     1      -2.193  13.255  22.276  0.00  0.00    +0.000 N 
ENDROOT
BRANCH  10  11
ATOM     11  C   UNL     1      -1.929  12.526  21.065  0.00  0.00    +0.000 A 
ATOM     12  C   UNL     1      -2.771  12.634  19.944  0.00  0.00    +0.000 A 
ATOM     13  C   UNL     1      -2.625  11.808  18.820  0.00  0.00    +0.000 A 
ATOM     14  C   UNL     1      -1.616  10.853  18.776  0.00  0.00    +0.000 A 
ATOM     15 CL   UNL     1      -1.534   9.826  17.392  0.00  0.00    +0.000 Cl
ATOM     16  C   UNL     1      -0.735  10.750  19.853  0.00  0.00    +0.000 A 
ATOM     17 CL   UNL     1       0.551   9.594  19.876  0.00  0.00    +0.000 Cl
ATOM     18  C   UNL     1      -0.893  11.578  20.980  0.00  0.00    +0.000 A 
ENDBRANCH  10  11
BRANCH   5  19
ATOM     19  C   UNL     1      -5.157  16.505  22.172  0.00  0.00    +0.000 A 
ATOM     20  C   UNL     1      -6.423  17.040  22.451  0.00  0.00    +0.000 A 
ATOM     21  C   UNL     1      -7.185  17.656  21.458  0.00  0.00    +0.000 A 
ATOM     22  C   UNL     1      -6.709  17.703  20.151  0.00  0.00    +0.000 A 
ATOM     23  C   UNL     1      -5.469  17.147  19.846  0.00  0.00    +0.000 A 
ATOM     24  C   UNL     1      -4.693  16.563  20.853  0.00  0.00    +0.000 A 
ENDBRANCH   5  19
BRANCH   6  25
ATOM     25  C   UNL     1      -5.738  13.741  23.113  0.00  0.00    +0.000 A 
ATOM     26  C   UNL     1      -5.698  13.526  21.730  0.00  0.00    +0.000 A 
ATOM     27  C   UNL     1      -6.437  12.495  21.160  0.00  0.00    +0.000 A 
ATOM     28  C   UNL     1      -7.259  11.750  21.984  0.00  0.00    +0.000 A 
ATOM     29  N   UNL     1      -7.408  11.988  23.304  0.00  0.00    +0.000 NA
ATOM     30  C   UNL     1      -6.646  12.970  23.837  0.00  0.00    +0.000 A 
ENDBRANCH   6  25
TORSDOF 3
ENDMDL
MODEL 7
REMARK VINA RESULT:      -6.0      1.051      1.577
REMARK  Name = 
REMARK  3 active torsions:
REMARK  status: ('A' for Active; 'I' for Inactive)
REMARK    1  A    between atoms: N_5  and  C_6
REMARK    2  A    between atoms: C_12  and  C_13
REMARK    3  A    between atoms: N_22  and  C_23
REMARK                            x       y       z     vdW  Elec       q    Type
REMARK                         _______ _______ _______ _____ _____    ______ ____
ROOT
ATOM      1  O   UNL     1       0.336  14.269  22.735  0.00  0.00    +0.000 OA
ATOM      2  C   UNL     1      -0.803  13.945  23.043  0.00  0.00    +0.000 C 
ATOM      3  C   UNL     1      -1.633  14.745  24.004  0.00  0.00    +0.000 C 
ATOM      4  O   UNL     1      -1.853  16.002  23.376  0.00  0.00    +0.000 OA
ATOM      5  N   UNL     1      -3.178  16.017  22.930  0.00  0.00    +0.000 N 
ATOM      6  C   UNL     1      -3.975  14.927  23.499  0.00  0.00    +0.000 C 
ATOM      7  C   UNL     1      -2.935  14.008  24.144  0.00  0.00    +0.000 C 
ATOM      8  C   UNL     1      -2.632  12.709  23.441  0.00  0.00    +0.000 C 
ATOM      9  O   UNL     1      -3.291  11.698  23.651  0.00  0.00    +0.000 OA
ATOM     10  N   UNL     1      -1.532  12.853  22.630  0.00  0.00    +0.000 N 
ENDROOT
BRANCH  10  11
ATOM     11  C   UNL     1      -1.182  11.993  21.532  0.00  0.00    +0.000 A 
ATOM     12  C   UNL     1      -0.230  10.969  21.676  0.00  0.00    +0.000 A 
ATOM     13  C   UNL     1       0.245  10.234  20.579  0.00  0.00    +0.000 A 
ATOM     14  C   UNL     1      -0.232  10.493  19.300  0.00  0.00    +0.000 A 
ATOM     15 CL   UNL     1       0.443   9.597  17.989  0.00  0.00    +0.000 Cl
ATOM     16  C   UNL     1      -1.211  11.472  19.129  0.00  0.00    +0.000 A 
ATOM     17 CL   UNL     1      -1.863  11.851  17.573  0.00  0.00    +0.000 Cl
ATOM     18  C   UNL     1      -1.677  12.210  20.233  0.00  0.00    +0.000 A 
ENDBRANCH  10  11
BRANCH   5  19
ATOM     19  C   UNL     1      -3.494  16.692  21.755  0.00  0.00    +0.000 A 
ATOM     20  C   UNL     1      -2.575  16.723  20.695  0.00  0.00    +0.000 A 
ATOM     21  C   UNL     1      -2.869  17.380  19.500  0.00  0.00    +0.000 A 
ATOM     22  C   UNL     1      -4.073  18.062  19.363  0.00  0.00    +0.000 A 
ATOM     23  C   UNL     1      -4.986  18.072  20.416  0.00  0.00    +0.000 A 
ATOM     24  C   UNL     1      -4.703  17.381  21.599  0.00  0.00    +0.000 A 
ENDBRANCH   5  19
BRANCH   6  25
ATOM     25  C   UNL     1      -4.942  14.222  22.572  0.00  0.00    +0.000 A 
ATOM     26  C   UNL     1      -4.627  13.874  21.253  0.00  0.00    +0.000 A 
ATOM     27  C   UNL     1      -5.449  13.007  20.542  0.00  0.00    +0.000 A 
ATOM     28  C   UNL     1      -6.612  12.569  21.148  0.00  0.00    +0.000 A 
ATOM     29  N   UNL     1      -7.007  12.960  22.377  0.00  0.00    +0.000 NA
ATOM     30  C   UNL     1      -6.167  13.770  23.059  0.00  0.00    +0.000 A 
ENDBRANCH   6  25
TORSDOF 3
ENDMDL
MODEL 8
REMARK VINA RESULT:      -6.0      2.994      5.142
REMARK  Name = 
REMARK  3 active torsions:
REMARK  status: ('A' for Active; 'I' for Inactive)
REMARK    1  A    between atoms: N_5  and  C_6
REMARK    2  A    between atoms: C_12  and  C_13
REMARK    3  A    between atoms: N_22  and  C_23
REMARK                            x       y       z     vdW  Elec       q    Type
REMARK                         _______ _______ _______ _____ _____    ______ ____
ROOT
ATOM      1  O   UNL     1      -6.883  11.212  21.268  0.00  0.00    +0.000 OA
ATOM      2  C   UNL     1      -7.022  12.368  20.890  0.00  0.00    +0.000 C 
ATOM      3  C   UNL     1      -7.906  13.345  21.610  0.00  0.00    +0.000 C 
ATOM      4  O   UNL     1      -7.318  13.532  22.891  0.00  0.00    +0.000 OA
ATOM      5  N   UNL     1      -6.704  14.788  22.888  0.00  0.00    +0.000 N 
ATOM      6  C   UNL     1      -7.109  15.608  21.743  0.00  0.00    +0.000 C 
ATOM      7  C   UNL     1      -7.838  14.624  20.824  0.00  0.00    +0.000 C 
ATOM      8  C   UNL     1      -7.116  14.183  19.576  0.00  0.00    +0.000 C 
ATOM      9  O   UNL     1      -7.187  14.823  18.535  0.00  0.00    +0.000 OA
ATOM     10  N   UNL     1      -6.463  12.994  19.800  0.00  0.00    +0.000 N 
ENDROOT
BRANCH  10  11
ATOM     11  C   UNL     1      -5.379  12.473  19.014  0.00  0.00    +0.000 A 
ATOM     12  C   UNL     1      -5.598  11.899  17.748  0.00  0.00    +0.000 A 
ATOM     13  C   UNL     1      -4.582  11.237  17.044  0.00  0.00    +0.000 A 
ATOM     14  C   UNL     1      -3.303  11.141  17.581  0.00  0.00    +0.000 A 
ATOM     15 CL   UNL     1      -2.118  10.256  16.692  0.00  0.00    +0.000 Cl
ATOM     16  C   UNL     1      -3.041  11.737  18.814  0.00  0.00    +0.000 A 
ATOM     17 CL   UNL     1      -1.476  11.670  19.548  0.00  0.00    +0.000 Cl
ATOM     18  C   UNL     1      -4.067  12.394  19.517  0.00  0.00    +0.000 A 
ENDBRANCH  10  11
BRANCH   5  19
ATOM     19  C   UNL     1      -5.533  14.976  23.616  0.00  0.00    +0.000 A 
ATOM     20  C   UNL     1      -5.304  16.195  24.272  0.00  0.00    +0.000 A 
ATOM     21  C   UNL     1      -4.147  16.409  25.021  0.00  0.00    +0.000 A 
ATOM     22  C   UNL     1      -3.172  15.419  25.085  0.00  0.00    +0.000 A 
ATOM     23  C   UNL     1      -3.364  14.214  24.414  0.00  0.00    +0.000 A 
ATOM     24  C   UNL     1      -4.543  13.990  23.693  0.00  0.00    +0.000 A 
ENDBRANCH   5  19
BRANCH   6  25
ATOM     25  C   UNL     1      -6.030  16.419  21.060  0.00  0.00    +0.000 A 
ATOM     26  C   UNL     1      -4.741  15.930  20.813  0.00  0.00    +0.000 A 
ATOM     27  C   UNL     1      -3.883  16.616  19.960  0.00  0.00    +0.000 A 
ATOM     28  C   UNL     1      -4.314  17.819  19.432  0.00  0.00    +0.000 A 
ATOM     29  N   UNL     1      -5.507  18.378  19.724  0.00  0.00    +0.000 NA
ATOM     30  C   UNL     1      -6.335  17.669  20.524  0.00  0.00    +0.000 A 
ENDBRANCH   6  25
TORSDOF 3
ENDMDL
MODEL 9
REMARK VINA RESULT:      -6.0      1.112      1.850
REMARK  Name = 
REMARK  3 active torsions:
REMARK  status: ('A' for Active; 'I' for Inactive)
REMARK    1  A    between atoms: N_5  and  C_6
REMARK    2  A    between atoms: C_12  and  C_13
REMARK    3  A    between atoms: N_22  and  C_23
REMARK                            x       y       z     vdW  Elec       q    Type
REMARK                         _______ _______ _______ _____ _____    ______ ____
ROOT
ATOM      1  O   UNL     1      -0.788  14.495  24.092  0.00  0.00    +0.000 OA
ATOM      2  C   UNL     1      -1.979  14.253  23.950  0.00  0.00    +0.000 C 
ATOM      3  C   UNL     1      -3.051  15.173  24.459  0.00  0.00    +0.000 C 
ATOM      4  O   UNL     1      -2.913  16.379  23.718  0.00  0.00    +0.000 OA
ATOM      5  N   UNL     1      -3.958  16.417  22.789  0.00  0.00    +0.000 N 
ATOM      6  C   UNL     1      -4.996  15.421  23.069  0.00  0.00    +0.000 C 
ATOM      7  C   UNL     1      -4.359  14.513  24.125  0.00  0.00    +0.000 C 
ATOM      8  C   UNL     1      -3.910  13.145  23.678  0.00  0.00    +0.000 C 
ATOM      9  O   UNL     1      -4.675  12.189  23.676  0.00  0.00    +0.000 OA
ATOM     10  N   UNL     1      -2.575  13.165  23.353  0.00  0.00    +0.000 N 
ENDROOT
BRANCH  10  11
ATOM     11  C   UNL     1      -1.897  12.197  22.535  0.00  0.00    +0.000 A 
ATOM     12  C   UNL     1      -1.270  11.070  23.097  0.00  0.00    +0.000 A 
ATOM     13  C   UNL     1      -0.464  10.210  22.337  0.00  0.00    +0.000 A 
ATOM     14  C   UNL     1      -0.272  10.443  20.980  0.00  0.00    +0.000 A 
ATOM     15 CL   UNL     1       0.784   9.384  20.120  0.00  0.00    +0.000 Cl
ATOM     16  C   UNL     1      -0.915  11.527  20.382  0.00  0.00    +0.000 A 
ATOM     17 CL   UNL     1      -0.734  11.883  18.700  0.00  0.00    +0.000 Cl
ATOM     18  C   UNL     1      -1.716  12.389  21.153  0.00  0.00    +0.000 A 
ENDBRANCH  10  11
BRANCH   5  19
ATOM     19  C   UNL     1      -3.743  17.002  21.544  0.00  0.00    +0.000 A 
ATOM     20  C   UNL     1      -4.738  17.803  20.965  0.00  0.00    +0.000 A 
ATOM     21  C   UNL     1      -4.547  18.413  19.725  0.00  0.00    +0.000 A 
ATOM     22  C   UNL     1      -3.369  18.190  19.019  0.00  0.00    +0.000 A 
ATOM     23  C   UNL     1      -2.382  17.370  19.561  0.00  0.00    +0.000 A 
ATOM     24  C   UNL     1      -2.563  16.790  20.822  0.00  0.00    +0.000 A 
ENDBRANCH   5  19
BRANCH   6  25
ATOM     25  C   UNL     1      -5.581  14.684  21.884  0.00  0.00    +0.000 A 
ATOM     26  C   UNL     1      -4.806  14.176  20.834  0.00  0.00    +0.000 A 
ATOM     27  C   UNL     1      -5.362  13.293  19.916  0.00  0.00    +0.000 A 
ATOM     28  C   UNL     1      -6.708  12.998  20.029  0.00  0.00    +0.000 A 
ATOM     29  N   UNL     1      -7.517  13.545  20.961  0.00  0.00    +0.000 NA
ATOM     30  C   UNL     1      -6.938  14.368  21.864  0.00  0.00    +0.000 A 
ENDBRANCH   6  25
TORSDOF 3
ENDMDL
