MODEL 1
REMARK VINA RESULT:      -8.8      0.000      0.000
REMARK  Name = 
REMARK  6 active torsions:
REMARK  status: ('A' for Active; 'I' for Inactive)
REMARK    1  A    between atoms: C_1  and  C_2
REMARK    2  A    between atoms: C_7  and  C_8
REMARK    3  A    between atoms: C_14  and  N_15
REMARK    4  A    between atoms: N_15  and  C_16
REMARK    5  A    between atoms: N_15  and  C_17
REMARK    6  A    between atoms: C_17  and  C_18
REMARK                            x       y       z     vdW  Elec       q    Type
REMARK                         _______ _______ _______ _____ _____    ______ ____
ROOT
ATOM      1  C   UNL     1       7.712   5.346  13.233  0.00  0.00    +0.000 C 
ATOM      2  C   UNL     1       6.981   4.660  14.356  0.00  0.00    +0.000 A 
ATOM      3  C   UNL     1       7.490   4.758  15.661  0.00  0.00    +0.000 A 
ATOM      4  C   UNL     1       6.737   4.339  16.765  0.00  0.00    +0.000 A 
ATOM      5  C   UNL     1       5.522   3.679  16.547  0.00  0.00    +0.000 A 
ATOM      6  C   UNL     1       5.073   3.450  15.234  0.00  0.00    +0.000 A 
ATOM      7  C   UNL     1       5.763   3.993  14.137  0.00  0.00    +0.000 A 
ATOM      8  C   UNL     1       5.144   3.911  12.770  0.00  0.00    +0.000 C 
ATOM      9  N   UNL     1       4.664   3.335  17.596  0.00  0.00    +0.000 N 
ATOM     10  N   UNL     1       3.749   2.342  17.504  0.00  0.00    +0.000 NA
ATOM     11  N   UNL     1       3.100   2.330  18.656  0.00  0.00    +0.000 NA
ATOM     12  N   UNL     1       3.506   3.363  19.453  0.00  0.00    +0.000 NA
ATOM     13  C   UNL     1       4.437   4.007  18.776  0.00  0.00    +0.000 A 
ATOM     14  C   UNL     1       5.052   5.310  19.126  0.00  0.00    +0.000 C 
ATOM     15  C   UNL     1       6.581   5.184  19.113  0.00  0.00    +0.000 C 
ATOM     16  O   UNL     1       7.273   5.561  20.066  0.00  0.00    +0.000 OA
ATOM     17  N   UNL     1       7.251   4.714  18.015  0.00  0.00    +0.000 N 
ATOM     18  H   UNL     1       8.242   4.925  18.080  0.00  0.00    +0.000 HD
ENDROOT
BRANCH  14  19
ATOM     19  N   UNL     1       4.531   6.539  18.433  0.00  0.00    +0.000 NA
ATOM     20  C   UNL     1       5.226   7.018  17.248  0.00  0.00    +0.000 C 
BRANCH  19  21
ATOM     21  C   UNL     1       3.094   6.446  18.116  0.00  0.00    +0.000 C 
BRANCH  21  22
ATOM     22  C   UNL     1       2.295   7.597  18.662  0.00  0.00    +0.000 A 
ATOM     23  C   UNL     1       1.938   7.628  20.018  0.00  0.00    +0.000 A 
ATOM     24  C   UNL     1       1.194   8.690  20.524  0.00  0.00    +0.000 A 
ATOM     25  C   UNL     1       0.809   9.730  19.681  0.00  0.00    +0.000 A 
ATOM     26  C   UNL     1       1.173   9.714  18.335  0.00  0.00    +0.000 A 
ATOM     27  C   UNL     1       1.917   8.652  17.826  0.00  0.00    +0.000 A 
ENDBRANCH  21  22
ENDBRANCH  19  21
ENDBRANCH  14  19
TORSDOF 3
ENDMDL
MODEL 2
REMARK VINA RESULT:      -8.4      9.852     11.999
REMARK  Name = 
REMARK  6 active torsions:
REMARK  status: ('A' for Active; 'I' for Inactive)
REMARK    1  A    between atoms: C_1  and  C_2
REMARK    2  A    between atoms: C_7  and  C_8
REMARK    3  A    between atoms: C_14  and  N_15
REMARK    4  A    between atoms: N_15  and  C_16
REMARK    5  A    between atoms: N_15  and  C_17
REMARK    6  A    between atoms: C_17  and  C_18
REMARK                            x       y       z     vdW  Elec       q    Type
REMARK                         _______ _______ _______ _____ _____    ______ ____
ROOT
ATOM      1  C   UNL     1       0.553  12.646  19.036  0.00  0.00    +0.000 C 
ATOM      2  C   UNL     1      -0.496  12.733  20.114  0.00  0.00    +0.000 A 
ATOM      3  C   UNL     1      -1.487  13.723  20.021  0.00  0.00    +0.000 A 
ATOM      4  C   UNL     1      -2.607  13.706  20.861  0.00  0.00    +0.000 A 
ATOM      5  C   UNL     1      -2.661  12.772  21.902  0.00  0.00    +0.000 A 
ATOM      6  C   UNL     1      -1.601  11.867  22.089  0.00  0.00    +0.000 A 
ATOM      7  C   UNL     1      -0.548  11.798  21.161  0.00  0.00    +0.000 A 
ATOM      8  C   UNL     1       0.453  10.682  21.272  0.00  0.00    +0.000 C 
ATOM      9  N   UNL     1      -3.794  12.619  22.707  0.00  0.00    +0.000 N 
ATOM     10  N   UNL     1      -3.748  12.092  23.952  0.00  0.00    +0.000 NA
ATOM     11  N   UNL     1      -4.996  12.066  24.389  0.00  0.00    +0.000 NA
ATOM     12  N   UNL     1      -5.861  12.471  23.412  0.00  0.00    +0.000 NA
ATOM     13  C   UNL     1      -5.119  12.767  22.361  0.00  0.00    +0.000 A 
ATOM     14  C   UNL     1      -5.596  13.069  20.991  0.00  0.00    +0.000 C 
ATOM     15  C   UNL     1      -4.985  14.391  20.507  0.00  0.00    +0.000 C 
ATOM     16  O   UNL     1      -5.685  15.296  20.038  0.00  0.00    +0.000 OA
ATOM     17  N   UNL     1      -3.632  14.596  20.507  0.00  0.00    +0.000 N 
ATOM     18  H   UNL     1      -3.390  15.402  19.939  0.00  0.00    +0.000 HD
ENDROOT
BRANCH  14  19
ATOM     19  N   UNL     1      -5.550  11.961  19.973  0.00  0.00    +0.000 NA
ATOM     20  C   UNL     1      -6.663  11.027  19.909  0.00  0.00    +0.000 C 
BRANCH  19  21
ATOM     21  C   UNL     1      -5.286  12.455  18.610  0.00  0.00    +0.000 C 
BRANCH  21  22
ATOM     22  C   UNL     1      -4.308  11.600  17.853  0.00  0.00    +0.000 A 
ATOM     23  C   UNL     1      -3.221  11.013  18.518  0.00  0.00    +0.000 A 
ATOM     24  C   UNL     1      -2.312  10.226  17.818  0.00  0.00    +0.000 A 
ATOM     25  C   UNL     1      -2.487  10.012  16.452  0.00  0.00    +0.000 A 
ATOM     26  C   UNL     1      -3.573  10.580  15.787  0.00  0.00    +0.000 A 
ATOM     27  C   UNL     1      -4.484  11.369  16.485  0.00  0.00    +0.000 A 
ENDBRANCH  21  22
ENDBRANCH  19  21
ENDBRANCH  14  19
TORSDOF 3
ENDMDL
MODEL 3
REMARK VINA RESULT:      -8.2      9.518     11.793
REMARK  Name = 
REMARK  6 active torsions:
REMARK  status: ('A' for Active; 'I' for Inactive)
REMARK    1  A    between atoms: C_1  and  C_2
REMARK    2  A    between atoms: C_7  and  C_8
REMARK    3  A    between atoms: C_14  and  N_15
REMARK    4  A    between atoms: N_15  and  C_16
REMARK    5  A    between atoms: N_15  and  C_17
REMARK    6  A    between atoms: C_17  and  C_18
REMARK                            x       y       z     vdW  Elec       q    Type
REMARK                         _______ _______ _______ _____ _____    ______ ____
ROOT
ATOM      1  C   UNL     1       0.556  11.714  18.844  0.00  0.00    +0.000 C 
ATOM      2  C   UNL     1      -0.396  11.981  19.981  0.00  0.00    +0.000 A 
ATOM      3  C   UNL     1      -1.205  13.128  19.937  0.00  0.00    +0.000 A 
ATOM      4  C   UNL     1      -2.259  13.304  20.842  0.00  0.00    +0.000 A 
ATOM      5  C   UNL     1      -2.410  12.393  21.894  0.00  0.00    +0.000 A 
ATOM      6  C   UNL     1      -1.512  11.318  22.027  0.00  0.00    +0.000 A 
ATOM      7  C   UNL     1      -0.544  11.069  21.039  0.00  0.00    +0.000 A 
ATOM      8  C   UNL     1       0.254   9.797  21.102  0.00  0.00    +0.000 C 
ATOM      9  N   UNL     1      -3.502  12.438  22.766  0.00  0.00    +0.000 N 
ATOM     10  N   UNL     1      -3.472  11.910  24.012  0.00  0.00    +0.000 NA
ATOM     11  N   UNL     1      -4.677  12.101  24.522  0.00  0.00    +0.000 NA
ATOM     12  N   UNL     1      -5.517  12.648  23.594  0.00  0.00    +0.000 NA
ATOM     13  C   UNL     1      -4.800  12.812  22.498  0.00  0.00    +0.000 A 
ATOM     14  C   UNL     1      -5.300  13.191  21.156  0.00  0.00    +0.000 C 
ATOM     15  C   UNL     1      -4.501  14.388  20.622  0.00  0.00    +0.000 C 
ATOM     16  O   UNL     1      -5.061  15.401  20.186  0.00  0.00    +0.000 OA
ATOM     17  N   UNL     1      -3.134  14.357  20.541  0.00  0.00    +0.000 N 
ATOM     18  H   UNL     1      -2.792  15.110  19.951  0.00  0.00    +0.000 HD
ENDROOT
BRANCH  14  19
ATOM     19  N   UNL     1      -5.506  12.092  20.149  0.00  0.00    +0.000 NA
ATOM     20  C   UNL     1      -6.732  11.312  20.211  0.00  0.00    +0.000 C 
BRANCH  19  21
ATOM     21  C   UNL     1      -5.327  12.555  18.760  0.00  0.00    +0.000 C 
BRANCH  21  22
ATOM     22  C   UNL     1      -4.472  11.630  17.938  0.00  0.00    +0.000 A 
ATOM     23  C   UNL     1      -4.623  11.581  16.545  0.00  0.00    +0.000 A 
ATOM     24  C   UNL     1      -3.837  10.722  15.783  0.00  0.00    +0.000 A 
ATOM     25  C   UNL     1      -2.889   9.914  16.407  0.00  0.00    +0.000 A 
ATOM     26  C   UNL     1      -2.721   9.968  17.791  0.00  0.00    +0.000 A 
ATOM     27  C   UNL     1      -3.508  10.826  18.555  0.00  0.00    +0.000 A 
ENDBRANCH  21  22
ENDBRANCH  19  21
ENDBRANCH  14  19
TORSDOF 3
ENDMDL
MODEL 4
REMARK VINA RESULT:      -7.8      2.049      4.332
REMARK  Name = 
REMARK  6 active torsions:
REMARK  status: ('A' for Active; 'I' for Inactive)
REMARK    1  A    between atoms: C_1  and  C_2
REMARK    2  A    between atoms: C_7  and  C_8
REMARK    3  A    between atoms: C_14  and  N_15
REMARK    4  A    between atoms: N_15  and  C_16
REMARK    5  A    between atoms: N_15  and  C_17
REMARK    6  A    between atoms: C_17  and  C_18
REMARK                            x       y       z     vdW  Elec       q    Type
REMARK                         _______ _______ _______ _____ _____    ______ ____
ROOT
ATOM      1  C   UNL     1       0.903   2.303  18.639  0.00  0.00    +0.000 C 
ATOM      2  C   UNL     1       2.325   2.761  18.836  0.00  0.00    +0.000 A 
ATOM      3  C   UNL     1       3.230   2.653  17.768  0.00  0.00    +0.000 A 
ATOM      4  C   UNL     1       4.487   3.267  17.822  0.00  0.00    +0.000 A 
ATOM      5  C   UNL     1       4.898   3.871  19.016  0.00  0.00    +0.000 A 
ATOM      6  C   UNL     1       4.050   3.858  20.137  0.00  0.00    +0.000 A 
ATOM      7  C   UNL     1       2.739   3.363  20.037  0.00  0.00    +0.000 A 
ATOM      8  C   UNL     1       1.793   3.558  21.188  0.00  0.00    +0.000 C 
ATOM      9  N   UNL     1       6.087   4.601  19.109  0.00  0.00    +0.000 N 
ATOM     10  N   UNL     1       6.736   4.805  20.279  0.00  0.00    +0.000 NA
ATOM     11  N   UNL     1       7.783   5.561  19.993  0.00  0.00    +0.000 NA
ATOM     12  N   UNL     1       7.768   5.936  18.680  0.00  0.00    +0.000 NA
ATOM     13  C   UNL     1       6.694   5.379  18.150  0.00  0.00    +0.000 A 
ATOM     14  C   UNL     1       6.131   5.638  16.804  0.00  0.00    +0.000 C 
ATOM     15  C   UNL     1       5.924   4.311  16.062  0.00  0.00    +0.000 C 
ATOM     16  O   UNL     1       6.357   4.132  14.917  0.00  0.00    +0.000 OA
ATOM     17  N   UNL     1       5.191   3.292  16.608  0.00  0.00    +0.000 N 
ATOM     18  H   UNL     1       4.951   2.602  15.902  0.00  0.00    +0.000 HD
ENDROOT
BRANCH  14  19
ATOM     19  N   UNL     1       4.966   6.586  16.703  0.00  0.00    +0.000 NA
ATOM     20  C   UNL     1       4.625   7.133  15.399  0.00  0.00    +0.000 C 
BRANCH  19  21
ATOM     21  C   UNL     1       3.737   6.039  17.307  0.00  0.00    +0.000 C 
BRANCH  21  22
ATOM     22  C   UNL     1       2.950   7.068  18.071  0.00  0.00    +0.000 A 
ATOM     23  C   UNL     1       2.586   6.831  19.405  0.00  0.00    +0.000 A 
ATOM     24  C   UNL     1       1.853   7.779  20.112  0.00  0.00    +0.000 A 
ATOM     25  C   UNL     1       1.486   8.973  19.494  0.00  0.00    +0.000 A 
ATOM     26  C   UNL     1       1.856   9.223  18.173  0.00  0.00    +0.000 A 
ATOM     27  C   UNL     1       2.589   8.275  17.463  0.00  0.00    +0.000 A 
ENDBRANCH  21  22
ENDBRANCH  19  21
ENDBRANCH  14  19
TORSDOF 3
ENDMDL
MODEL 5
REMARK VINA RESULT:      -7.5      8.472     11.453
REMARK  Name = 
REMARK  6 active torsions:
REMARK  status: ('A' for Active; 'I' for Inactive)
REMARK    1  A    between atoms: C_1  and  C_2
REMARK    2  A    between atoms: C_7  and  C_8
REMARK    3  A    between atoms: C_14  and  N_15
REMARK    4  A    between atoms: N_15  and  C_16
REMARK    5  A    between atoms: N_15  and  C_17
REMARK    6  A    between atoms: C_17  and  C_18
REMARK                            x       y       z     vdW  Elec       q    Type
REMARK                         _______ _______ _______ _____ _____    ______ ____
ROOT
ATOM      1  C   UNL     1      -5.309  13.001  23.848  0.00  0.00    +0.000 C 
ATOM      2  C   UNL     1      -3.833  13.147  23.583  0.00  0.00    +0.000 A 
ATOM      3  C   UNL     1      -3.027  11.997  23.568  0.00  0.00    +0.000 A 
ATOM      4  C   UNL     1      -1.706  12.047  23.105  0.00  0.00    +0.000 A 
ATOM      5  C   UNL     1      -1.142  13.289  22.793  0.00  0.00    +0.000 A 
ATOM      6  C   UNL     1      -1.901  14.463  22.942  0.00  0.00    +0.000 A 
ATOM      7  C   UNL     1      -3.265  14.395  23.274  0.00  0.00    +0.000 A 
ATOM      8  C   UNL     1      -4.095  15.646  23.217  0.00  0.00    +0.000 C 
ATOM      9  N   UNL     1       0.127  13.406  22.218  0.00  0.00    +0.000 N 
ATOM     10  N   UNL     1       0.880  14.527  22.315  0.00  0.00    +0.000 NA
ATOM     11  N   UNL     1       1.984  14.291  21.626  0.00  0.00    +0.000 NA
ATOM     12  N   UNL     1       1.916  13.079  20.999  0.00  0.00    +0.000 NA
ATOM     13  C   UNL     1       0.750  12.557  21.330  0.00  0.00    +0.000 A 
ATOM     14  C   UNL     1       0.123  11.343  20.756  0.00  0.00    +0.000 C 
ATOM     15  C   UNL     1      -0.290  10.387  21.883  0.00  0.00    +0.000 C 
ATOM     16  O   UNL     1       0.035   9.194  21.875  0.00  0.00    +0.000 OA
ATOM     17  N   UNL     1      -1.095  10.799  22.912  0.00  0.00    +0.000 N 
ATOM     18  H   UNL     1      -1.464  10.002  23.421  0.00  0.00    +0.000 HD
ENDROOT
BRANCH  14  19
ATOM     19  N   UNL     1      -0.928  11.532  19.696  0.00  0.00    +0.000 NA
ATOM     20  C   UNL     1      -0.721  12.557  18.684  0.00  0.00    +0.000 C 
BRANCH  19  21
ATOM     21  C   UNL     1      -1.275  10.274  19.010  0.00  0.00    +0.000 C 
BRANCH  21  22
ATOM     22  C   UNL     1      -2.261  10.467  17.891  0.00  0.00    +0.000 A 
ATOM     23  C   UNL     1      -1.974   9.983  16.606  0.00  0.00    +0.000 A 
ATOM     24  C   UNL     1      -2.882  10.165  15.568  0.00  0.00    +0.000 A 
ATOM     25  C   UNL     1      -4.087  10.824  15.809  0.00  0.00    +0.000 A 
ATOM     26  C   UNL     1      -4.386  11.295  17.087  0.00  0.00    +0.000 A 
ATOM     27  C   UNL     1      -3.478  11.115  18.127  0.00  0.00    +0.000 A 
ENDBRANCH  21  22
ENDBRANCH  19  21
ENDBRANCH  14  19
TORSDOF 3
ENDMDL
MODEL 6
REMARK VINA RESULT:      -7.3      7.523     10.762
REMARK  Name = 
REMARK  6 active torsions:
REMARK  status: ('A' for Active; 'I' for Inactive)
REMARK    1  A    between atoms: C_1  and  C_2
REMARK    2  A    between atoms: C_7  and  C_8
REMARK    3  A    between atoms: C_14  and  N_15
REMARK    4  A    between atoms: N_15  and  C_16
REMARK    5  A    between atoms: N_15  and  C_17
REMARK    6  A    between atoms: C_17  and  C_18
REMARK                            x       y       z     vdW  Elec       q    Type
REMARK                         _______ _______ _______ _____ _____    ______ ____
ROOT
ATOM      1  C   UNL     1      -3.271  15.800  21.615  0.00  0.00    +0.000 C 
ATOM      2  C   UNL     1      -2.610  14.455  21.761  0.00  0.00    +0.000 A 
ATOM      3  C   UNL     1      -2.767  13.504  20.740  0.00  0.00    +0.000 A 
ATOM      4  C   UNL     1      -1.996  12.335  20.716  0.00  0.00    +0.000 A 
ATOM      5  C   UNL     1      -1.166  12.047  21.805  0.00  0.00    +0.000 A 
ATOM      6  C   UNL     1      -1.112  12.928  22.899  0.00  0.00    +0.000 A 
ATOM      7  C   UNL     1      -1.780  14.163  22.857  0.00  0.00    +0.000 A 
ATOM      8  C   UNL     1      -1.530  15.168  23.946  0.00  0.00    +0.000 C 
ATOM      9  N   UNL     1      -0.284  10.962  21.801  0.00  0.00    +0.000 N 
ATOM     10  N   UNL     1       0.182  10.386  22.934  0.00  0.00    +0.000 NA
ATOM     11  N   UNL     1       1.011   9.431  22.549  0.00  0.00    +0.000 NA
ATOM     12  N   UNL     1       1.171   9.444  21.192  0.00  0.00    +0.000 NA
ATOM     13  C   UNL     1       0.406  10.419  20.740  0.00  0.00    +0.000 A 
ATOM     14  C   UNL     1       0.377  10.960  19.361  0.00  0.00    +0.000 C 
ATOM     15  C   UNL     1      -1.066  10.973  18.837  0.00  0.00    +0.000 C 
ATOM     16  O   UNL     1      -1.365  10.479  17.743  0.00  0.00    +0.000 OA
ATOM     17  N   UNL     1      -2.072  11.595  19.526  0.00  0.00    +0.000 N 
ATOM     18  H   UNL     1      -2.889  11.722  18.936  0.00  0.00    +0.000 HD
ENDROOT
BRANCH  14  19
ATOM     19  N   UNL     1       1.140  12.229  19.089  0.00  0.00    +0.000 NA
ATOM     20  C   UNL     1       2.389  12.145  18.349  0.00  0.00    +0.000 C 
BRANCH  19  21
ATOM     21  C   UNL     1       0.304  13.270  18.464  0.00  0.00    +0.000 C 
BRANCH  21  22
ATOM     22  C   UNL     1       0.307  14.565  19.229  0.00  0.00    +0.000 A 
ATOM     23  C   UNL     1      -0.423  15.665  18.757  0.00  0.00    +0.000 A 
ATOM     24  C   UNL     1      -0.417  16.866  19.461  0.00  0.00    +0.000 A 
ATOM     25  C   UNL     1       0.312  16.972  20.645  0.00  0.00    +0.000 A 
ATOM     26  C   UNL     1       1.028  15.877  21.128  0.00  0.00    +0.000 A 
ATOM     27  C   UNL     1       1.024  14.676  20.425  0.00  0.00    +0.000 A 
ENDBRANCH  21  22
ENDBRANCH  19  21
ENDBRANCH  14  19
TORSDOF 3
ENDMDL
MODEL 7
REMARK VINA RESULT:      -7.2      8.719     11.646
REMARK  Name = 
REMARK  6 active torsions:
REMARK  status: ('A' for Active; 'I' for Inactive)
REMARK    1  A    between atoms: C_1  and  C_2
REMARK    2  A    between atoms: C_7  and  C_8
REMARK    3  A    between atoms: C_14  and  N_15
REMARK    4  A    between atoms: N_15  and  C_16
REMARK    5  A    between atoms: N_15  and  C_17
REMARK    6  A    between atoms: C_17  and  C_18
REMARK                            x       y       z     vdW  Elec       q    Type
REMARK                         _______ _______ _______ _____ _____    ______ ____
ROOT
ATOM      1  C   UNL     1      -4.778  15.521  22.364  0.00  0.00    +0.000 C 
ATOM      2  C   UNL     1      -3.873  14.317  22.393  0.00  0.00    +0.000 A 
ATOM      3  C   UNL     1      -3.650  13.604  21.204  0.00  0.00    +0.000 A 
ATOM      4  C   UNL     1      -2.650  12.627  21.123  0.00  0.00    +0.000 A 
ATOM      5  C   UNL     1      -1.967  12.258  22.287  0.00  0.00    +0.000 A 
ATOM      6  C   UNL     1      -2.285  12.868  23.513  0.00  0.00    +0.000 A 
ATOM      7  C   UNL     1      -3.190  13.943  23.563  0.00  0.00    +0.000 A 
ATOM      8  C   UNL     1      -3.347  14.708  24.846  0.00  0.00    +0.000 C 
ATOM      9  N   UNL     1      -0.882  11.376  22.264  0.00  0.00    +0.000 N 
ATOM     10  N   UNL     1      -0.494  10.656  23.343  0.00  0.00    +0.000 NA
ATOM     11  N   UNL     1       0.575   9.974  22.967  0.00  0.00    +0.000 NA
ATOM     12  N   UNL     1       0.948  10.316  21.699  0.00  0.00    +0.000 NA
ATOM     13  C   UNL     1       0.074  11.215  21.286  0.00  0.00    +0.000 A 
ATOM     14  C   UNL     1       0.155  12.035  20.055  0.00  0.00    +0.000 C 
ATOM     15  C   UNL     1      -1.151  11.905  19.257  0.00  0.00    +0.000 C 
ATOM     16  O   UNL     1      -1.151  11.621  18.054  0.00  0.00    +0.000 OA
ATOM     17  N   UNL     1      -2.367  12.169  19.828  0.00  0.00    +0.000 N 
ATOM     18  H   UNL     1      -3.083  12.275  19.116  0.00  0.00    +0.000 HD
ENDROOT
BRANCH  14  19
ATOM     19  N   UNL     1       0.657  13.447  20.184  0.00  0.00    +0.000 NA
ATOM     20  C   UNL     1       2.009  13.663  20.676  0.00  0.00    +0.000 C 
BRANCH  19  21
ATOM     21  C   UNL     1       0.491  14.225  18.943  0.00  0.00    +0.000 C 
BRANCH  21  22
ATOM     22  C   UNL     1      -0.297  15.490  19.143  0.00  0.00    +0.000 A 
ATOM     23  C   UNL     1      -1.006  15.699  20.335  0.00  0.00    +0.000 A 
ATOM     24  C   UNL     1      -1.740  16.867  20.519  0.00  0.00    +0.000 A 
ATOM     25  C   UNL     1      -1.764  17.836  19.518  0.00  0.00    +0.000 A 
ATOM     26  C   UNL     1      -1.049  17.642  18.336  0.00  0.00    +0.000 A 
ATOM     27  C   UNL     1      -0.315  16.474  18.149  0.00  0.00    +0.000 A 
ENDBRANCH  21  22
ENDBRANCH  19  21
ENDBRANCH  14  19
TORSDOF 3
ENDMDL
MODEL 8
REMARK VINA RESULT:      -7.2      9.379     12.102
REMARK  Name = 
REMARK  6 active torsions:
REMARK  status: ('A' for Active; 'I' for Inactive)
REMARK    1  A    between atoms: C_1  and  C_2
REMARK    2  A    between atoms: C_7  and  C_8
REMARK    3  A    between atoms: C_14  and  N_15
REMARK    4  A    between atoms: N_15  and  C_16
REMARK    5  A    between atoms: N_15  and  C_17
REMARK    6  A    between atoms: C_17  and  C_18
REMARK                            x       y       z     vdW  Elec       q    Type
REMARK                         _______ _______ _______ _____ _____    ______ ____
ROOT
ATOM      1  C   UNL     1      -5.554  13.019  23.763  0.00  0.00    +0.000 C 
ATOM      2  C   UNL     1      -4.082  13.314  23.640  0.00  0.00    +0.000 A 
ATOM      3  C   UNL     1      -3.193  12.254  23.404  0.00  0.00    +0.000 A 
ATOM      4  C   UNL     1      -1.857  12.494  23.056  0.00  0.00    +0.000 A 
ATOM      5  C   UNL     1      -1.373  13.806  23.091  0.00  0.00    +0.000 A 
ATOM      6  C   UNL     1      -2.224  14.860  23.466  0.00  0.00    +0.000 A 
ATOM      7  C   UNL     1      -3.594  14.631  23.679  0.00  0.00    +0.000 A 
ATOM      8  C   UNL     1      -4.512  15.806  23.868  0.00  0.00    +0.000 C 
ATOM      9  N   UNL     1      -0.088  14.136  22.648  0.00  0.00    +0.000 N 
ATOM     10  N   UNL     1       0.573  15.243  23.062  0.00  0.00    +0.000 NA
ATOM     11  N   UNL     1       1.725  15.250  22.412  0.00  0.00    +0.000 NA
ATOM     12  N   UNL     1       1.780  14.225  21.510  0.00  0.00    +0.000 NA
ATOM     13  C   UNL     1       0.640  13.569  21.626  0.00  0.00    +0.000 A 
ATOM     14  C   UNL     1       0.136  12.497  20.736  0.00  0.00    +0.000 C 
ATOM     15  C   UNL     1      -0.261  11.272  21.571  0.00  0.00    +0.000 C 
ATOM     16  O   UNL     1       0.153  10.138  21.298  0.00  0.00    +0.000 OA
ATOM     17  N   UNL     1      -1.146  11.370  22.611  0.00  0.00    +0.000 N 
ATOM     18  H   UNL     1      -1.479  10.452  22.887  0.00  0.00    +0.000 HD
ENDROOT
BRANCH  14  19
ATOM     19  N   UNL     1      -0.871  12.876  19.684  0.00  0.00    +0.000 NA
ATOM     20  C   UNL     1      -0.451  13.754  18.602  0.00  0.00    +0.000 C 
BRANCH  19  21
ATOM     21  C   UNL     1      -1.539  11.703  19.091  0.00  0.00    +0.000 C 
BRANCH  21  22
ATOM     22  C   UNL     1      -3.035  11.848  19.027  0.00  0.00    +0.000 A 
ATOM     23  C   UNL     1      -3.769  11.168  18.044  0.00  0.00    +0.000 A 
ATOM     24  C   UNL     1      -5.152  11.306  17.981  0.00  0.00    +0.000 A 
ATOM     25  C   UNL     1      -5.811  12.116  18.903  0.00  0.00    +0.000 A 
ATOM     26  C   UNL     1      -5.090  12.784  19.893  0.00  0.00    +0.000 A 
ATOM     27  C   UNL     1      -3.706  12.648  19.958  0.00  0.00    +0.000 A 
ENDBRANCH  21  22
ENDBRANCH  19  21
ENDBRANCH  14  19
TORSDOF 3
ENDMDL
MODEL 9
REMARK VINA RESULT:      -7.1      8.843     10.520
REMARK  Name = 
REMARK  6 active torsions:
REMARK  status: ('A' for Active; 'I' for Inactive)
REMARK    1  A    between atoms: C_1  and  C_2
REMARK    2  A    between atoms: C_7  and  C_8
REMARK    3  A    between atoms: C_14  and  N_15
REMARK    4  A    between atoms: N_15  and  C_16
REMARK    5  A    between atoms: N_15  and  C_17
REMARK    6  A    between atoms: C_17  and  C_18
REMARK                            x       y       z     vdW  Elec       q    Type
REMARK                         _______ _______ _______ _____ _____    ______ ____
ROOT
ATOM      1  C   UNL     1      10.766  12.756  17.808  0.00  0.00    +0.000 C 
ATOM      2  C   UNL     1      10.302  12.535  19.224  0.00  0.00    +0.000 A 
ATOM      3  C   UNL     1      10.528  13.539  20.179  0.00  0.00    +0.000 A 
ATOM      4  C   UNL     1       9.922  13.487  21.440  0.00  0.00    +0.000 A 
ATOM      5  C   UNL     1       9.200  12.343  21.800  0.00  0.00    +0.000 A 
ATOM      6  C   UNL     1       9.089  11.270  20.897  0.00  0.00    +0.000 A 
ATOM      7  C   UNL     1       9.581  11.385  19.586  0.00  0.00    +0.000 A 
ATOM      8  C   UNL     1       9.259  10.309  18.587  0.00  0.00    +0.000 C 
ATOM      9  N   UNL     1       8.474  12.266  22.992  0.00  0.00    +0.000 N 
ATOM     10  N   UNL     1       8.154  11.092  23.586  0.00  0.00    +0.000 NA
ATOM     11  N   UNL     1       7.441  11.402  24.655  0.00  0.00    +0.000 NA
ATOM     12  N   UNL     1       7.205  12.746  24.710  0.00  0.00    +0.000 NA
ATOM     13  C   UNL     1       7.805  13.269  23.657  0.00  0.00    +0.000 A 
ATOM     14  C   UNL     1       7.684  14.661  23.164  0.00  0.00    +0.000 C 
ATOM     15  C   UNL     1       9.080  15.270  22.977  0.00  0.00    +0.000 C 
ATOM     16  O   UNL     1       9.381  16.367  23.464  0.00  0.00    +0.000 OA
ATOM     17  N   UNL     1      10.030  14.659  22.203  0.00  0.00    +0.000 N 
ATOM     18  H   UNL     1      10.787  15.300  21.990  0.00  0.00    +0.000 HD
ENDROOT
BRANCH  14  19
ATOM     19  N   UNL     1       6.743  14.919  22.018  0.00  0.00    +0.000 NA
ATOM     20  C   UNL     1       5.313  14.769  22.244  0.00  0.00    +0.000 C 
BRANCH  19  21
ATOM     21  C   UNL     1       6.971  16.228  21.380  0.00  0.00    +0.000 C 
BRANCH  21  22
ATOM     22  C   UNL     1       7.648  16.119  20.042  0.00  0.00    +0.000 A 
ATOM     23  C   UNL     1       8.724  16.962  19.724  0.00  0.00    +0.000 A 
ATOM     24  C   UNL     1       9.348  16.866  18.484  0.00  0.00    +0.000 A 
ATOM     25  C   UNL     1       8.907  15.924  17.557  0.00  0.00    +0.000 A 
ATOM     26  C   UNL     1       7.848  15.073  17.870  0.00  0.00    +0.000 A 
ATOM     27  C   UNL     1       7.221  15.168  19.110  0.00  0.00    +0.000 A 
ENDBRANCH  21  22
ENDBRANCH  19  21
ENDBRANCH  14  19
TORSDOF 3
ENDMDL
