MODEL 1
REMARK VINA RESULT:      -8.3      0.000      0.000
REMARK  Name = 
REMARK  5 active torsions:
REMARK  status: ('A' for Active; 'I' for Inactive)
REMARK    1  A    between atoms: C_1  and  C_2
REMARK    2  A    between atoms: C_4  and  C_5
REMARK    3  A    between atoms: C_8  and  C_10
REMARK    4  A    between atoms: C_10  and  C_11
REMARK    5  A    between atoms: C_11  and  C_12
REMARK                            x       y       z     vdW  Elec       q    Type
REMARK                         _______ _______ _______ _____ _____    ______ ____
ROOT
ATOM      1  C   UNL     1       4.348   7.142  16.762  0.00  0.00    +0.000 A 
ATOM      2  N   UNL     1       5.198   7.231  15.754  0.00  0.00    +0.000 NA
ATOM      3  N   UNL     1       5.611   5.966  15.423  0.00  0.00    +0.000 NA
ATOM      4  C   UNL     1       5.005   5.129  16.233  0.00  0.00    +0.000 A 
ATOM      5  C   UNL     1       5.080   3.737  16.370  0.00  0.00    +0.000 A 
ATOM      6  C   UNL     1       4.341   3.149  17.310  0.00  0.00    +0.000 A 
ATOM      7  C   UNL     1       3.436   3.979  18.176  0.00  0.00    +0.000 A 
ATOM      8  N   UNL     1       2.666   3.326  19.125  0.00  0.00    +0.000 N 
ATOM      9  C   UNL     1       3.092   2.088  19.778  0.00  0.00    +0.000 C 
ATOM     10  C   UNL     1       2.951   2.244  21.287  0.00  0.00    +0.000 C 
ATOM     11  C   UNL     1       1.522   2.626  21.661  0.00  0.00    +0.000 C 
ATOM     12  C   UNL     1       1.072   3.873  20.899  0.00  0.00    +0.000 C 
ATOM     13  C   UNL     1       1.281   3.715  19.396  0.00  0.00    +0.000 C 
ATOM     14  N   UNL     1       3.344   5.282  18.051  0.00  0.00    +0.000 NA
ATOM     15  N   UNL     1       4.165   5.813  17.089  0.00  0.00    +0.000 N 
ENDROOT
BRANCH   1  16
ATOM     16  C   UNL     1       3.685   8.278  17.466  0.00  0.00    +0.000 C 
BRANCH  16  17
ATOM     17  C   UNL     1       2.212   7.967  17.761  0.00  0.00    +0.000 C 
BRANCH  17  25
ATOM     18  C   UNL     1      -1.257  10.047  18.083  0.00  0.00    +0.000 C 
ATOM     19  C   UNL     1      -0.298  11.068  18.707  0.00  0.00    +0.000 C 
ATOM     20  C   UNL     1      -0.686  11.389  20.161  0.00  0.00    +0.000 C 
ATOM     21  C   UNL     1      -0.433  10.194  21.095  0.00  0.00    +0.000 C 
ATOM     22  C   UNL     1      -0.783  10.547  22.537  0.00  0.00    +0.000 C 
ATOM     23  C   UNL     1       1.024   9.723  20.967  0.00  0.00    +0.000 C 
ATOM     24  N   UNL     1       1.370   9.453  19.570  0.00  0.00    +0.000 N 
ATOM     25  C   UNL     1       1.867   8.200  19.223  0.00  0.00    +0.000 C 
ATOM     26  O   UNL     1       2.020   7.306  20.054  0.00  0.00    +0.000 OA
ATOM     27  C   UNL     1       1.154  10.570  18.647  0.00  0.00    +0.000 C 
ENDBRANCH  17  25
ENDBRANCH  16  17
ENDBRANCH   1  16
TORSDOF 3
ENDMDL
MODEL 2
REMARK VINA RESULT:      -8.3      1.822      4.177
REMARK  Name = 
REMARK  5 active torsions:
REMARK  status: ('A' for Active; 'I' for Inactive)
REMARK    1  A    between atoms: C_1  and  C_2
REMARK    2  A    between atoms: C_4  and  C_5
REMARK    3  A    between atoms: C_8  and  C_10
REMARK    4  A    between atoms: C_10  and  C_11
REMARK    5  A    between atoms: C_11  and  C_12
REMARK                            x       y       z     vdW  Elec       q    Type
REMARK                         _______ _______ _______ _____ _____    ______ ____
ROOT
ATOM      1  C   UNL     1       2.037   5.459  20.060  0.00  0.00    +0.000 A 
ATOM      2  N   UNL     1       0.978   4.844  20.556  0.00  0.00    +0.000 NA
ATOM      3  N   UNL     1       0.893   3.599  19.986  0.00  0.00    +0.000 NA
ATOM      4  C   UNL     1       1.902   3.478  19.155  0.00  0.00    +0.000 A 
ATOM      5  C   UNL     1       2.283   2.446  18.288  0.00  0.00    +0.000 A 
ATOM      6  C   UNL     1       3.372   2.613  17.538  0.00  0.00    +0.000 A 
ATOM      7  C   UNL     1       4.172   3.879  17.656  0.00  0.00    +0.000 A 
ATOM      8  N   UNL     1       5.311   4.003  16.877  0.00  0.00    +0.000 N 
ATOM      9  C   UNL     1       5.451   3.369  15.567  0.00  0.00    +0.000 C 
ATOM     10  C   UNL     1       5.907   4.409  14.553  0.00  0.00    +0.000 C 
ATOM     11  C   UNL     1       7.202   5.076  15.005  0.00  0.00    +0.000 C 
ATOM     12  C   UNL     1       7.056   5.656  16.413  0.00  0.00    +0.000 C 
ATOM     13  C   UNL     1       6.538   4.609  17.397  0.00  0.00    +0.000 C 
ATOM     14  N   UNL     1       3.837   4.849  18.474  0.00  0.00    +0.000 NA
ATOM     15  N   UNL     1       2.683   4.616  19.179  0.00  0.00    +0.000 N 
ENDROOT
BRANCH   1  16
ATOM     16  C   UNL     1       2.482   6.848  20.372  0.00  0.00    +0.000 C 
BRANCH  16  17
ATOM     17  C   UNL     1       1.534   7.888  19.762  0.00  0.00    +0.000 C 
BRANCH  17  25
ATOM     18  C   UNL     1      -1.481  10.129  18.229  0.00  0.00    +0.000 C 
ATOM     19  C   UNL     1      -0.459  11.240  18.498  0.00  0.00    +0.000 C 
ATOM     20  C   UNL     1      -1.010  12.283  19.485  0.00  0.00    +0.000 C 
ATOM     21  C   UNL     1      -1.143  11.709  20.905  0.00  0.00    +0.000 C 
ATOM     22  C   UNL     1      -1.649  12.770  21.877  0.00  0.00    +0.000 C 
ATOM     23  C   UNL     1       0.198  11.117  21.364  0.00  0.00    +0.000 C 
ATOM     24  N   UNL     1       0.708  10.149  20.390  0.00  0.00    +0.000 N 
ATOM     25  C   UNL     1       1.007   8.856  20.809  0.00  0.00    +0.000 C 
ATOM     26  O   UNL     1       0.850   8.496  21.975  0.00  0.00    +0.000 OA
ATOM     27  C   UNL     1       0.862  10.659  19.025  0.00  0.00    +0.000 C 
ENDBRANCH  17  25
ENDBRANCH  16  17
ENDBRANCH   1  16
TORSDOF 3
ENDMDL
MODEL 3
REMARK VINA RESULT:      -8.0      1.841      4.405
REMARK  Name = 
REMARK  5 active torsions:
REMARK  status: ('A' for Active; 'I' for Inactive)
REMARK    1  A    between atoms: C_1  and  C_2
REMARK    2  A    between atoms: C_4  and  C_5
REMARK    3  A    between atoms: C_8  and  C_10
REMARK    4  A    between atoms: C_10  and  C_11
REMARK    5  A    between atoms: C_11  and  C_12
REMARK                            x       y       z     vdW  Elec       q    Type
REMARK                         _______ _______ _______ _____ _____    ______ ____
ROOT
ATOM      1  C   UNL     1       2.161   5.790  19.727  0.00  0.00    +0.000 A 
ATOM      2  N   UNL     1       1.254   5.159  20.454  0.00  0.00    +0.000 NA
ATOM      3  N   UNL     1       1.372   3.813  20.221  0.00  0.00    +0.000 NA
ATOM      4  C   UNL     1       2.347   3.647  19.357  0.00  0.00    +0.000 A 
ATOM      5  C   UNL     1       2.869   2.502  18.742  0.00  0.00    +0.000 A 
ATOM      6  C   UNL     1       3.873   2.644  17.879  0.00  0.00    +0.000 A 
ATOM      7  C   UNL     1       4.435   4.011  17.606  0.00  0.00    +0.000 A 
ATOM      8  N   UNL     1       5.496   4.113  16.721  0.00  0.00    +0.000 N 
ATOM      9  C   UNL     1       5.688   3.192  15.601  0.00  0.00    +0.000 C 
ATOM     10  C   UNL     1       5.900   3.993  14.324  0.00  0.00    +0.000 C 
ATOM     11  C   UNL     1       7.072   4.957  14.477  0.00  0.00    +0.000 C 
ATOM     12  C   UNL     1       6.888   5.851  15.705  0.00  0.00    +0.000 C 
ATOM     13  C   UNL     1       6.615   5.026  16.960  0.00  0.00    +0.000 C 
ATOM     14  N   UNL     1       3.967   5.092  18.185  0.00  0.00    +0.000 NA
ATOM     15  N   UNL     1       2.908   4.864  19.027  0.00  0.00    +0.000 N 
ENDROOT
BRANCH   1  16
ATOM     16  C   UNL     1       2.360   7.265  19.643  0.00  0.00    +0.000 C 
BRANCH  16  17
ATOM     17  C   UNL     1       1.576   7.868  18.471  0.00  0.00    +0.000 C 
BRANCH  17  25
ATOM     18  C   UNL     1       1.144   9.373  22.213  0.00  0.00    +0.000 C 
ATOM     19  C   UNL     1      -0.102   9.981  21.558  0.00  0.00    +0.000 C 
ATOM     20  C   UNL     1      -0.069  11.518  21.606  0.00  0.00    +0.000 C 
ATOM     21  C   UNL     1       1.015  12.094  20.681  0.00  0.00    +0.000 C 
ATOM     22  C   UNL     1       1.002  13.620  20.711  0.00  0.00    +0.000 C 
ATOM     23  C   UNL     1       0.833  11.556  19.254  0.00  0.00    +0.000 C 
ATOM     24  N   UNL     1       0.778  10.093  19.245  0.00  0.00    +0.000 N 
ATOM     25  C   UNL     1       1.671   9.384  18.446  0.00  0.00    +0.000 C 
ATOM     26  O   UNL     1       2.512   9.950  17.749  0.00  0.00    +0.000 OA
ATOM     27  C   UNL     1      -0.250   9.502  20.106  0.00  0.00    +0.000 C 
ENDBRANCH  17  25
ENDBRANCH  16  17
ENDBRANCH   1  16
TORSDOF 3
ENDMDL
MODEL 4
REMARK VINA RESULT:      -7.9      1.828      4.347
REMARK  Name = 
REMARK  5 active torsions:
REMARK  status: ('A' for Active; 'I' for Inactive)
REMARK    1  A    between atoms: C_1  and  C_2
REMARK    2  A    between atoms: C_4  and  C_5
REMARK    3  A    between atoms: C_8  and  C_10
REMARK    4  A    between atoms: C_10  and  C_11
REMARK    5  A    between atoms: C_11  and  C_12
REMARK                            x       y       z     vdW  Elec       q    Type
REMARK                         _______ _______ _______ _____ _____    ______ ____
ROOT
ATOM      1  C   UNL     1       1.903   5.800  20.102  0.00  0.00    +0.000 A 
ATOM      2  N   UNL     1       0.973   5.145  20.775  0.00  0.00    +0.000 NA
ATOM      3  N   UNL     1       1.117   3.805  20.522  0.00  0.00    +0.000 NA
ATOM      4  C   UNL     1       2.131   3.667  19.700  0.00  0.00    +0.000 A 
ATOM      5  C   UNL     1       2.694   2.540  19.087  0.00  0.00    +0.000 A 
ATOM      6  C   UNL     1       3.734   2.711  18.272  0.00  0.00    +0.000 A 
ATOM      7  C   UNL     1       4.290   4.088  18.051  0.00  0.00    +0.000 A 
ATOM      8  N   UNL     1       5.388   4.220  17.215  0.00  0.00    +0.000 N 
ATOM      9  C   UNL     1       5.641   3.322  16.089  0.00  0.00    +0.000 C 
ATOM     10  C   UNL     1       5.900   4.150  14.837  0.00  0.00    +0.000 C 
ATOM     11  C   UNL     1       7.052   5.125  15.061  0.00  0.00    +0.000 C 
ATOM     12  C   UNL     1       6.803   5.992  16.296  0.00  0.00    +0.000 C 
ATOM     13  C   UNL     1       6.484   5.140  17.521  0.00  0.00    +0.000 C 
ATOM     14  N   UNL     1       3.784   5.152  18.628  0.00  0.00    +0.000 NA
ATOM     15  N   UNL     1       2.692   4.896  19.418  0.00  0.00    +0.000 N 
ENDROOT
BRANCH   1  16
ATOM     16  C   UNL     1       2.088   7.279  20.055  0.00  0.00    +0.000 C 
BRANCH  16  17
ATOM     17  C   UNL     1       1.669   7.936  21.376  0.00  0.00    +0.000 C 
BRANCH  17  25
ATOM     18  C   UNL     1       1.396   9.973  17.878  0.00  0.00    +0.000 C 
ATOM     19  C   UNL     1       1.303  11.149  18.857  0.00  0.00    +0.000 C 
ATOM     20  C   UNL     1      -0.022  11.912  18.695  0.00  0.00    +0.000 C 
ATOM     21  C   UNL     1      -1.221  11.081  19.180  0.00  0.00    +0.000 C 
ATOM     22  C   UNL     1      -2.520  11.871  19.051  0.00  0.00    +0.000 C 
ATOM     23  C   UNL     1      -0.988  10.608  20.623  0.00  0.00    +0.000 C 
ATOM     24  N   UNL     1       0.293   9.911  20.749  0.00  0.00    +0.000 N 
ATOM     25  C   UNL     1       0.316   8.618  21.264  0.00  0.00    +0.000 C 
ATOM     26  O   UNL     1      -0.712   8.037  21.612  0.00  0.00    +0.000 OA
ATOM     27  C   UNL     1       1.465  10.673  20.309  0.00  0.00    +0.000 C 
ENDBRANCH  17  25
ENDBRANCH  16  17
ENDBRANCH   1  16
TORSDOF 3
ENDMDL
MODEL 5
REMARK VINA RESULT:      -7.8      2.754      8.991
REMARK  Name = 
REMARK  5 active torsions:
REMARK  status: ('A' for Active; 'I' for Inactive)
REMARK    1  A    between atoms: C_1  and  C_2
REMARK    2  A    between atoms: C_4  and  C_5
REMARK    3  A    between atoms: C_8  and  C_10
REMARK    4  A    between atoms: C_10  and  C_11
REMARK    5  A    between atoms: C_11  and  C_12
REMARK                            x       y       z     vdW  Elec       q    Type
REMARK                         _______ _______ _______ _____ _____    ______ ____
ROOT
ATOM      1  C   UNL     1       0.601   9.656  22.264  0.00  0.00    +0.000 A 
ATOM      2  N   UNL     1      -0.303   9.348  23.178  0.00  0.00    +0.000 NA
ATOM      3  N   UNL     1      -1.121  10.433  23.363  0.00  0.00    +0.000 NA
ATOM      4  C   UNL     1      -0.702  11.383  22.559  0.00  0.00    +0.000 A 
ATOM      5  C   UNL     1      -1.134  12.700  22.359  0.00  0.00    +0.000 A 
ATOM      6  C   UNL     1      -0.494  13.451  21.464  0.00  0.00    +0.000 A 
ATOM      7  C   UNL     1       0.648  12.870  20.681  0.00  0.00    +0.000 A 
ATOM      8  N   UNL     1       1.271  13.677  19.742  0.00  0.00    +0.000 N 
ATOM      9  C   UNL     1       1.367  15.130  19.883  0.00  0.00    +0.000 C 
ATOM     10  C   UNL     1       2.813  15.558  19.679  0.00  0.00    +0.000 C 
ATOM     11  C   UNL     1       3.336  15.079  18.328  0.00  0.00    +0.000 C 
ATOM     12  C   UNL     1       3.145  13.570  18.172  0.00  0.00    +0.000 C 
ATOM     13  C   UNL     1       1.700  13.159  18.442  0.00  0.00    +0.000 C 
ATOM     14  N   UNL     1       1.056  11.633  20.846  0.00  0.00    +0.000 NA
ATOM     15  N   UNL     1       0.372  10.941  21.812  0.00  0.00    +0.000 N 
ENDROOT
BRANCH   1  16
ATOM     16  C   UNL     1       1.712   8.784  21.786  0.00  0.00    +0.000 C 
BRANCH  16  17
ATOM     17  C   UNL     1       1.179   7.598  20.972  0.00  0.00    +0.000 C 
BRANCH  17  25
ATOM     18  C   UNL     1       0.707   3.732  19.835  0.00  0.00    +0.000 C 
ATOM     19  C   UNL     1       2.179   3.686  20.262  0.00  0.00    +0.000 C 
ATOM     20  C   UNL     1       3.091   3.276  19.093  0.00  0.00    +0.000 C 
ATOM     21  C   UNL     1       3.169   4.375  18.020  0.00  0.00    +0.000 C 
ATOM     22  C   UNL     1       4.112   3.967  16.891  0.00  0.00    +0.000 C 
ATOM     23  C   UNL     1       3.594   5.707  18.657  0.00  0.00    +0.000 C 
ATOM     24  N   UNL     1       2.725   6.054  19.782  0.00  0.00    +0.000 N 
ATOM     25  C   UNL     1       2.071   7.283  19.783  0.00  0.00    +0.000 C 
ATOM     26  O   UNL     1       2.196   8.088  18.860  0.00  0.00    +0.000 OA
ATOM     27  C   UNL     1       2.630   5.038  20.835  0.00  0.00    +0.000 C 
ENDBRANCH  17  25
ENDBRANCH  16  17
ENDBRANCH   1  16
TORSDOF 3
ENDMDL
MODEL 6
REMARK VINA RESULT:      -7.7      4.835      6.136
REMARK  Name = 
REMARK  5 active torsions:
REMARK  status: ('A' for Active; 'I' for Inactive)
REMARK    1  A    between atoms: C_1  and  C_2
REMARK    2  A    between atoms: C_4  and  C_5
REMARK    3  A    between atoms: C_8  and  C_10
REMARK    4  A    between atoms: C_10  and  C_11
REMARK    5  A    between atoms: C_11  and  C_12
REMARK                            x       y       z     vdW  Elec       q    Type
REMARK                         _______ _______ _______ _____ _____    ______ ____
ROOT
ATOM      1  C   UNL     1       7.130   6.983  17.098  0.00  0.00    +0.000 A 
ATOM      2  N   UNL     1       7.958   6.752  16.094  0.00  0.00    +0.000 NA
ATOM      3  N   UNL     1       7.532   5.630  15.430  0.00  0.00    +0.000 NA
ATOM      4  C   UNL     1       6.453   5.198  16.040  0.00  0.00    +0.000 A 
ATOM      5  C   UNL     1       5.633   4.084  15.818  0.00  0.00    +0.000 A 
ATOM      6  C   UNL     1       4.591   3.890  16.625  0.00  0.00    +0.000 A 
ATOM      7  C   UNL     1       4.305   4.871  17.726  0.00  0.00    +0.000 A 
ATOM      8  N   UNL     1       3.197   4.645  18.527  0.00  0.00    +0.000 N 
ATOM      9  C   UNL     1       2.689   3.306  18.820  0.00  0.00    +0.000 C 
ATOM     10  C   UNL     1       2.508   3.157  20.325  0.00  0.00    +0.000 C 
ATOM     11  C   UNL     1       1.593   4.249  20.872  0.00  0.00    +0.000 C 
ATOM     12  C   UNL     1       2.100   5.636  20.477  0.00  0.00    +0.000 C 
ATOM     13  C   UNL     1       2.332   5.739  18.972  0.00  0.00    +0.000 C 
ATOM     14  N   UNL     1       5.055   5.927  17.938  0.00  0.00    +0.000 NA
ATOM     15  N   UNL     1       6.129   6.033  17.091  0.00  0.00    +0.000 N 
ENDROOT
BRANCH   1  16
ATOM     16  C   UNL     1       7.241   8.078  18.105  0.00  0.00    +0.000 C 
BRANCH  16  17
ATOM     17  C   UNL     1       8.359   9.062  17.738  0.00  0.00    +0.000 C 
BRANCH  17  25
ATOM     18  C   UNL     1       7.926  13.084  17.436  0.00  0.00    +0.000 C 
ATOM     19  C   UNL     1       9.457  13.000  17.436  0.00  0.00    +0.000 C 
ATOM     20  C   UNL     1      10.063  13.771  18.620  0.00  0.00    +0.000 C 
ATOM     21  C   UNL     1       9.768  13.079  19.961  0.00  0.00    +0.000 C 
ATOM     22  C   UNL     1      10.414  13.835  21.118  0.00  0.00    +0.000 C 
ATOM     23  C   UNL     1      10.234  11.615  19.914  0.00  0.00    +0.000 C 
ATOM     24  N   UNL     1       9.662  10.917  18.760  0.00  0.00    +0.000 N 
ATOM     25  C   UNL     1       8.932   9.750  18.965  0.00  0.00    +0.000 C 
ATOM     26  O   UNL     1       8.745   9.287  20.090  0.00  0.00    +0.000 OA
ATOM     27  C   UNL     1       9.929  11.538  17.460  0.00  0.00    +0.000 C 
ENDBRANCH  17  25
ENDBRANCH  16  17
ENDBRANCH   1  16
TORSDOF 3
ENDMDL
MODEL 7
REMARK VINA RESULT:      -7.7      2.321      3.774
REMARK  Name = 
REMARK  5 active torsions:
REMARK  status: ('A' for Active; 'I' for Inactive)
REMARK    1  A    between atoms: C_1  and  C_2
REMARK    2  A    between atoms: C_4  and  C_5
REMARK    3  A    between atoms: C_8  and  C_10
REMARK    4  A    between atoms: C_10  and  C_11
REMARK    5  A    between atoms: C_11  and  C_12
REMARK                            x       y       z     vdW  Elec       q    Type
REMARK                         _______ _______ _______ _____ _____    ______ ____
ROOT
ATOM      1  C   UNL     1       1.216   9.217  19.446  0.00  0.00    +0.000 A 
ATOM      2  N   UNL     1       1.567  10.208  18.645  0.00  0.00    +0.000 NA
ATOM      3  N   UNL     1       2.436   9.717  17.704  0.00  0.00    +0.000 NA
ATOM      4  C   UNL     1       2.599   8.438  17.948  0.00  0.00    +0.000 A 
ATOM      5  C   UNL     1       3.394   7.461  17.336  0.00  0.00    +0.000 A 
ATOM      6  C   UNL     1       3.364   6.220  17.820  0.00  0.00    +0.000 A 
ATOM      7  C   UNL     1       2.468   5.893  18.981  0.00  0.00    +0.000 A 
ATOM      8  N   UNL     1       2.447   4.585  19.438  0.00  0.00    +0.000 N 
ATOM      9  C   UNL     1       3.604   3.694  19.350  0.00  0.00    +0.000 C 
ATOM     10  C   UNL     1       3.857   3.067  20.714  0.00  0.00    +0.000 C 
ATOM     11  C   UNL     1       2.614   2.340  21.217  0.00  0.00    +0.000 C 
ATOM     12  C   UNL     1       1.400   3.270  21.216  0.00  0.00    +0.000 C 
ATOM     13  C   UNL     1       1.205   3.934  19.856  0.00  0.00    +0.000 C 
ATOM     14  N   UNL     1       1.706   6.793  19.556  0.00  0.00    +0.000 NA
ATOM     15  N   UNL     1       1.826   8.052  19.026  0.00  0.00    +0.000 N 
ENDROOT
BRANCH   1  16
ATOM     16  C   UNL     1       0.318   9.312  20.633  0.00  0.00    +0.000 C 
BRANCH  16  17
ATOM     17  C   UNL     1       0.736  10.463  21.558  0.00  0.00    +0.000 C 
BRANCH  17  25
ATOM     18  C   UNL     1      -2.425  11.892  19.454  0.00  0.00    +0.000 C 
ATOM     19  C   UNL     1      -2.048  13.162  20.227  0.00  0.00    +0.000 C 
ATOM     20  C   UNL     1      -3.207  13.644  21.116  0.00  0.00    +0.000 C 
ATOM     21  C   UNL     1      -3.455  12.690  22.295  0.00  0.00    +0.000 C 
ATOM     22  C   UNL     1      -4.579  13.208  23.188  0.00  0.00    +0.000 C 
ATOM     23  C   UNL     1      -2.156  12.480  23.088  0.00  0.00    +0.000 C 
ATOM     24  N   UNL     1      -1.066  12.049  22.210  0.00  0.00    +0.000 N 
ATOM     25  C   UNL     1      -0.387  10.869  22.498  0.00  0.00    +0.000 C 
ATOM     26  O   UNL     1      -0.678  10.170  23.468  0.00  0.00    +0.000 OA
ATOM     27  C   UNL     1      -0.789  12.937  21.077  0.00  0.00    +0.000 C 
ENDBRANCH  17  25
ENDBRANCH  16  17
ENDBRANCH   1  16
TORSDOF 3
ENDMDL
MODEL 8
REMARK VINA RESULT:      -7.7      2.654      9.154
REMARK  Name = 
REMARK  5 active torsions:
REMARK  status: ('A' for Active; 'I' for Inactive)
REMARK    1  A    between atoms: C_1  and  C_2
REMARK    2  A    between atoms: C_4  and  C_5
REMARK    3  A    between atoms: C_8  and  C_10
REMARK    4  A    between atoms: C_10  and  C_11
REMARK    5  A    between atoms: C_11  and  C_12
REMARK                            x       y       z     vdW  Elec       q    Type
REMARK                         _______ _______ _______ _____ _____    ______ ____
ROOT
ATOM      1  C   UNL     1       0.545   9.356  20.604  0.00  0.00    +0.000 A 
ATOM      2  N   UNL     1       0.188   8.383  21.424  0.00  0.00    +0.000 NA
ATOM      3  N   UNL     1      -0.507   8.932  22.472  0.00  0.00    +0.000 NA
ATOM      4  C   UNL     1      -0.561  10.228  22.272  0.00  0.00    +0.000 A 
ATOM      5  C   UNL     1      -1.106  11.272  23.030  0.00  0.00    +0.000 A 
ATOM      6  C   UNL     1      -0.997  12.517  22.571  0.00  0.00    +0.000 A 
ATOM      7  C   UNL     1      -0.322  12.771  21.254  0.00  0.00    +0.000 A 
ATOM      8  N   UNL     1      -0.251  14.078  20.800  0.00  0.00    +0.000 N 
ATOM      9  C   UNL     1      -0.178  15.229  21.700  0.00  0.00    +0.000 C 
ATOM     10  C   UNL     1       0.982  16.121  21.281  0.00  0.00    +0.000 C 
ATOM     11  C   UNL     1       0.841  16.545  19.823  0.00  0.00    +0.000 C 
ATOM     12  C   UNL     1       0.680  15.327  18.912  0.00  0.00    +0.000 C 
ATOM     13  C   UNL     1      -0.449  14.418  19.390  0.00  0.00    +0.000 C 
ATOM     14  N   UNL     1       0.181  11.803  20.524  0.00  0.00    +0.000 NA
ATOM     15  N   UNL     1       0.064  10.557  21.085  0.00  0.00    +0.000 N 
ENDROOT
BRANCH   1  16
ATOM     16  C   UNL     1       1.351   9.214  19.357  0.00  0.00    +0.000 C 
BRANCH  16  17
ATOM     17  C   UNL     1       1.935   7.801  19.230  0.00  0.00    +0.000 C 
BRANCH  17  25
ATOM     18  C   UNL     1       2.295   3.940  18.038  0.00  0.00    +0.000 C 
ATOM     19  C   UNL     1       3.733   4.188  18.510  0.00  0.00    +0.000 C 
ATOM     20  C   UNL     1       4.742   3.992  17.366  0.00  0.00    +0.000 C 
ATOM     21  C   UNL     1       4.625   5.101  16.307  0.00  0.00    +0.000 C 
ATOM     22  C   UNL     1       5.663   4.913  15.205  0.00  0.00    +0.000 C 
ATOM     23  C   UNL     1       4.751   6.481  16.971  0.00  0.00    +0.000 C 
ATOM     24  N   UNL     1       3.797   6.625  18.073  0.00  0.00    +0.000 N 
ATOM     25  C   UNL     1       2.906   7.694  18.065  0.00  0.00    +0.000 C 
ATOM     26  O   UNL     1       2.890   8.523  17.156  0.00  0.00    +0.000 OA
ATOM     27  C   UNL     1       3.882   5.594  19.111  0.00  0.00    +0.000 C 
ENDBRANCH  17  25
ENDBRANCH  16  17
ENDBRANCH   1  16
TORSDOF 3
ENDMDL
MODEL 9
REMARK VINA RESULT:      -7.7      1.899      4.606
REMARK  Name = 
REMARK  5 active torsions:
REMARK  status: ('A' for Active; 'I' for Inactive)
REMARK    1  A    between atoms: C_1  and  C_2
REMARK    2  A    between atoms: C_4  and  C_5
REMARK    3  A    between atoms: C_8  and  C_10
REMARK    4  A    between atoms: C_10  and  C_11
REMARK    5  A    between atoms: C_11  and  C_12
REMARK                            x       y       z     vdW  Elec       q    Type
REMARK                         _______ _______ _______ _____ _____    ______ ____
ROOT
ATOM      1  C   UNL     1       2.110   4.311  20.504  0.00  0.00    +0.000 A 
ATOM      2  N   UNL     1       1.201   3.442  20.912  0.00  0.00    +0.000 NA
ATOM      3  N   UNL     1       1.314   2.306  20.152  0.00  0.00    +0.000 NA
ATOM      4  C   UNL     1       2.290   2.503  19.296  0.00  0.00    +0.000 A 
ATOM      5  C   UNL     1       2.809   1.705  18.268  0.00  0.00    +0.000 A 
ATOM      6  C   UNL     1       3.815   2.183  17.537  0.00  0.00    +0.000 A 
ATOM      7  C   UNL     1       4.381   3.540  17.843  0.00  0.00    +0.000 A 
ATOM      8  N   UNL     1       5.443   3.991  17.075  0.00  0.00    +0.000 N 
ATOM      9  C   UNL     1       5.634   3.603  15.678  0.00  0.00    +0.000 C 
ATOM     10  C   UNL     1       5.850   4.853  14.836  0.00  0.00    +0.000 C 
ATOM     11  C   UNL     1       7.024   5.669  15.368  0.00  0.00    +0.000 C 
ATOM     12  C   UNL     1       6.841   5.987  16.853  0.00  0.00    +0.000 C 
ATOM     13  C   UNL     1       6.564   4.724  17.665  0.00  0.00    +0.000 C 
ATOM     14  N   UNL     1       3.915   4.294  18.811  0.00  0.00    +0.000 NA
ATOM     15  N   UNL     1       2.855   3.747  19.488  0.00  0.00    +0.000 N 
ENDROOT
BRANCH   1  16
ATOM     16  C   UNL     1       2.313   5.693  21.027  0.00  0.00    +0.000 C 
BRANCH  16  17
ATOM     17  C   UNL     1       1.053   6.549  20.846  0.00  0.00    +0.000 C 
BRANCH  17  25
ATOM     18  C   UNL     1       0.446   9.485  23.579  0.00  0.00    +0.000 C 
ATOM     19  C   UNL     1      -0.618   9.883  22.548  0.00  0.00    +0.000 C 
ATOM     20  C   UNL     1      -0.364  11.296  21.995  0.00  0.00    +0.000 C 
ATOM     21  C   UNL     1       0.887  11.342  21.103  0.00  0.00    +0.000 C 
ATOM     22  C   UNL     1       1.097  12.740  20.530  0.00  0.00    +0.000 C 
ATOM     23  C   UNL     1       0.784  10.286  19.992  0.00  0.00    +0.000 C 
ATOM     24  N   UNL     1       0.514   8.959  20.549  0.00  0.00    +0.000 N 
ATOM     25  C   UNL     1       1.374   7.907  20.245  0.00  0.00    +0.000 C 
ATOM     26  O   UNL     1       2.360   8.058  19.525  0.00  0.00    +0.000 OA
ATOM     27  C   UNL     1      -0.677   8.868  21.397  0.00  0.00    +0.000 C 
ENDBRANCH  17  25
ENDBRANCH  16  17
ENDBRANCH   1  16
TORSDOF 3
ENDMDL
