MODEL 1
REMARK VINA RESULT:      -7.8      0.000      0.000
REMARK  Name = 
REMARK  3 active torsions:
REMARK  status: ('A' for Active; 'I' for Inactive)
REMARK    1  A    between atoms: C_2  and  C_11
REMARK    2  A    between atoms: N_3  and  C_4
REMARK    3  A    between atoms: C_20  and  O_21
REMARK                            x       y       z     vdW  Elec       q    Type
REMARK                         _______ _______ _______ _____ _____    ______ ____
ROOT
ATOM      1  C   UNL     1       1.391   8.827  19.536  0.00  0.00    +0.000 A 
ATOM      2  C   UNL     1       1.484   8.193  20.783  0.00  0.00    +0.000 A 
ATOM      3  C   UNL     1       0.786   8.688  21.885  0.00  0.00    +0.000 A 
ATOM      4  C   UNL     1      -0.002   9.840  21.758  0.00  0.00    +0.000 A 
ATOM      5  C   UNL     1      -0.703  10.380  22.841  0.00  0.00    +0.000 A 
ATOM      6  C   UNL     1      -1.460  11.533  22.668  0.00  0.00    +0.000 A 
ATOM      7  C   UNL     1      -1.492  12.108  21.411  0.00  0.00    +0.000 A 
ATOM      8  N   UNL     1      -0.836  11.614  20.337  0.00  0.00    +0.000 NA
ATOM      9  C   UNL     1      -0.100  10.495  20.513  0.00  0.00    +0.000 A 
ATOM     10  C   UNL     1       0.590   9.971  19.424  0.00  0.00    +0.000 A 
ENDROOT
BRANCH   1  12
ATOM     11  O   UNL     1       2.166   8.832  17.338  0.00  0.00    +0.000 OA
ATOM     12  C   UNL     1       2.180   8.240  18.414  0.00  0.00    +0.000 C 
ATOM     13  N   UNL     1       2.864   7.074  18.692  0.00  0.00    +0.000 N 
ATOM     14  H   UNL     1       2.670   6.654  19.599  0.00  0.00    +0.000 HD
BRANCH  13  15
ATOM     15  C   UNL     1       3.670   6.333  17.807  0.00  0.00    +0.000 A 
ATOM     16  C   UNL     1       4.673   6.901  17.015  0.00  0.00    +0.000 A 
ATOM     17  C   UNL     1       5.393   6.119  16.106  0.00  0.00    +0.000 A 
ATOM     18  C   UNL     1       5.116   4.760  15.994  0.00  0.00    +0.000 A 
ATOM     19 CL   UNL     1       5.972   3.808  14.845  0.00  0.00    +0.000 Cl
ATOM     20  C   UNL     1       4.147   4.173  16.801  0.00  0.00    +0.000 A 
ATOM     21  C   UNL     1       3.432   4.957  17.713  0.00  0.00    +0.000 A 
ENDBRANCH  13  15
ENDBRANCH   1  12
BRANCH  10  22
ATOM     22  O   UNL     1       0.461  10.635  18.220  0.00  0.00    +0.000 OA
ATOM     23  H   UNL     1       1.285  11.172  18.162  0.00  0.00    +0.000 HD
ENDBRANCH  10  22
TORSDOF 3
ENDMDL
MODEL 2
REMARK VINA RESULT:      -7.7      0.194      1.068
REMARK  Name = 
REMARK  3 active torsions:
REMARK  status: ('A' for Active; 'I' for Inactive)
REMARK    1  A    between atoms: C_2  and  C_11
REMARK    2  A    between atoms: N_3  and  C_4
REMARK    3  A    between atoms: C_20  and  O_21
REMARK                            x       y       z     vdW  Elec       q    Type
REMARK                         _______ _______ _______ _____ _____    ______ ____
ROOT
ATOM      1  C   UNL     1       1.323   8.862  19.594  0.00  0.00    +0.000 A 
ATOM      2  C   UNL     1       1.502   8.324  20.876  0.00  0.00    +0.000 A 
ATOM      3  C   UNL     1       0.830   8.864  21.973  0.00  0.00    +0.000 A 
ATOM      4  C   UNL     1      -0.020   9.966  21.803  0.00  0.00    +0.000 A 
ATOM      5  C   UNL     1      -0.699  10.549  22.878  0.00  0.00    +0.000 A 
ATOM      6  C   UNL     1      -1.520  11.650  22.660  0.00  0.00    +0.000 A 
ATOM      7  C   UNL     1      -1.636  12.131  21.368  0.00  0.00    +0.000 A 
ATOM      8  N   UNL     1      -1.003  11.591  20.302  0.00  0.00    +0.000 NA
ATOM      9  C   UNL     1      -0.205  10.524  20.521  0.00  0.00    +0.000 A 
ATOM     10  C   UNL     1       0.462   9.955  19.440  0.00  0.00    +0.000 A 
ENDROOT
BRANCH   1  12
ATOM     11  O   UNL     1       2.146   8.840  17.414  0.00  0.00    +0.000 OA
ATOM     12  C   UNL     1       2.092   8.233  18.480  0.00  0.00    +0.000 C 
ATOM     13  N   UNL     1       2.679   7.015  18.754  0.00  0.00    +0.000 N 
ATOM     14  H   UNL     1       2.433   6.597  19.649  0.00  0.00    +0.000 HD
BRANCH  13  15
ATOM     15  C   UNL     1       3.447   6.228  17.874  0.00  0.00    +0.000 A 
ATOM     16  C   UNL     1       3.236   4.860  17.676  0.00  0.00    +0.000 A 
ATOM     17  C   UNL     1       4.077   4.123  16.837  0.00  0.00    +0.000 A 
ATOM     18  C   UNL     1       5.130   4.756  16.185  0.00  0.00    +0.000 A 
ATOM     19 CL   UNL     1       6.190   3.840  15.187  0.00  0.00    +0.000 Cl
ATOM     20  C   UNL     1       5.330   6.124  16.342  0.00  0.00    +0.000 A 
ATOM     21  C   UNL     1       4.484   6.861  17.178  0.00  0.00    +0.000 A 
ENDBRANCH  13  15
ENDBRANCH   1  12
BRANCH  10  22
ATOM     22  O   UNL     1       0.248  10.525  18.200  0.00  0.00    +0.000 OA
ATOM     23  H   UNL     1       0.850  11.304  18.195  0.00  0.00    +0.000 HD
ENDBRANCH  10  22
TORSDOF 3
ENDMDL
MODEL 3
REMARK VINA RESULT:      -7.4      1.263      1.863
REMARK  Name = 
REMARK  3 active torsions:
REMARK  status: ('A' for Active; 'I' for Inactive)
REMARK    1  A    between atoms: C_2  and  C_11
REMARK    2  A    between atoms: N_3  and  C_4
REMARK    3  A    between atoms: C_20  and  O_21
REMARK                            x       y       z     vdW  Elec       q    Type
REMARK                         _______ _______ _______ _____ _____    ______ ____
ROOT
ATOM      1  C   UNL     1       1.346   9.250  19.115  0.00  0.00    +0.000 A 
ATOM      2  C   UNL     1       0.653  10.366  18.627  0.00  0.00    +0.000 A 
ATOM      3  C   UNL     1      -0.171  11.114  19.470  0.00  0.00    +0.000 A 
ATOM      4  C   UNL     1      -0.327  10.741  20.812  0.00  0.00    +0.000 A 
ATOM      5  C   UNL     1      -1.157  11.452  21.685  0.00  0.00    +0.000 A 
ATOM      6  C   UNL     1      -1.289  11.034  23.004  0.00  0.00    +0.000 A 
ATOM      7  C   UNL     1      -0.582   9.916  23.408  0.00  0.00    +0.000 A 
ATOM      8  N   UNL     1       0.236   9.207  22.598  0.00  0.00    +0.000 NA
ATOM      9  C   UNL     1       0.358   9.616  21.317  0.00  0.00    +0.000 A 
ATOM     10  C   UNL     1       1.189   8.898  20.462  0.00  0.00    +0.000 A 
ENDROOT
BRANCH   1  12
ATOM     11  O   UNL     1       2.328   8.976  17.019  0.00  0.00    +0.000 OA
ATOM     12  C   UNL     1       2.194   8.499  18.143  0.00  0.00    +0.000 C 
ATOM     13  N   UNL     1       2.759   7.327  18.603  0.00  0.00    +0.000 N 
ATOM     14  H   UNL     1       2.447   7.017  19.520  0.00  0.00    +0.000 HD
BRANCH  13  15
ATOM     15  C   UNL     1       3.589   6.447  17.881  0.00  0.00    +0.000 A 
ATOM     16  C   UNL     1       4.780   6.840  17.262  0.00  0.00    +0.000 A 
ATOM     17  C   UNL     1       5.523   5.930  16.504  0.00  0.00    +0.000 A 
ATOM     18  C   UNL     1       5.081   4.618  16.370  0.00  0.00    +0.000 A 
ATOM     19 CL   UNL     1       5.973   3.511  15.403  0.00  0.00    +0.000 Cl
ATOM     20  C   UNL     1       3.918   4.202  17.011  0.00  0.00    +0.000 A 
ATOM     21  C   UNL     1       3.178   5.113  17.773  0.00  0.00    +0.000 A 
ENDBRANCH  13  15
ENDBRANCH   1  12
BRANCH  10  22
ATOM     22  O   UNL     1       1.849   7.808  20.995  0.00  0.00    +0.000 OA
ATOM     23  H   UNL     1       2.146   7.306  20.202  0.00  0.00    +0.000 HD
ENDBRANCH  10  22
TORSDOF 3
ENDMDL
MODEL 4
REMARK VINA RESULT:      -7.3      1.275      2.145
REMARK  Name = 
REMARK  3 active torsions:
REMARK  status: ('A' for Active; 'I' for Inactive)
REMARK    1  A    between atoms: C_2  and  C_11
REMARK    2  A    between atoms: N_3  and  C_4
REMARK    3  A    between atoms: C_20  and  O_21
REMARK                            x       y       z     vdW  Elec       q    Type
REMARK                         _______ _______ _______ _____ _____    ______ ____
ROOT
ATOM      1  C   UNL     1       1.315   9.227  19.135  0.00  0.00    +0.000 A 
ATOM      2  C   UNL     1       0.624  10.346  18.649  0.00  0.00    +0.000 A 
ATOM      3  C   UNL     1      -0.178  11.109  19.499  0.00  0.00    +0.000 A 
ATOM      4  C   UNL     1      -0.313  10.751  20.847  0.00  0.00    +0.000 A 
ATOM      5  C   UNL     1      -1.120  11.477  21.728  0.00  0.00    +0.000 A 
ATOM      6  C   UNL     1      -1.234  11.073  23.053  0.00  0.00    +0.000 A 
ATOM      7  C   UNL     1      -0.530   9.951  23.454  0.00  0.00    +0.000 A 
ATOM      8  N   UNL     1       0.266   9.226  22.637  0.00  0.00    +0.000 NA
ATOM      9  C   UNL     1       0.369   9.623  21.350  0.00  0.00    +0.000 A 
ATOM     10  C   UNL     1       1.177   8.890  20.487  0.00  0.00    +0.000 A 
ENDROOT
BRANCH   1  12
ATOM     11  O   UNL     1       2.359   8.982  17.065  0.00  0.00    +0.000 OA
ATOM     12  C   UNL     1       2.138   8.459  18.155  0.00  0.00    +0.000 C 
ATOM     13  N   UNL     1       2.584   7.221  18.569  0.00  0.00    +0.000 N 
ATOM     14  H   UNL     1       2.208   6.890  19.455  0.00  0.00    +0.000 HD
BRANCH  13  15
ATOM     15  C   UNL     1       3.367   6.313  17.831  0.00  0.00    +0.000 A 
ATOM     16  C   UNL     1       3.080   4.948  17.729  0.00  0.00    +0.000 A 
ATOM     17  C   UNL     1       3.937   4.089  17.035  0.00  0.00    +0.000 A 
ATOM     18  C   UNL     1       5.082   4.595  16.431  0.00  0.00    +0.000 A 
ATOM     19 CL   UNL     1       6.158   3.530  15.613  0.00  0.00    +0.000 Cl
ATOM     20  C   UNL     1       5.363   5.957  16.491  0.00  0.00    +0.000 A 
ATOM     21  C   UNL     1       4.502   6.816  17.182  0.00  0.00    +0.000 A 
ENDBRANCH  13  15
ENDBRANCH   1  12
BRANCH  10  22
ATOM     22  O   UNL     1       1.836   7.798  21.019  0.00  0.00    +0.000 OA
ATOM     23  H   UNL     1       2.125   8.111  21.907  0.00  0.00    +0.000 HD
ENDBRANCH  10  22
TORSDOF 3
ENDMDL
MODEL 5
REMARK VINA RESULT:      -7.2      3.441      7.915
REMARK  Name = 
REMARK  3 active torsions:
REMARK  status: ('A' for Active; 'I' for Inactive)
REMARK    1  A    between atoms: C_2  and  C_11
REMARK    2  A    between atoms: N_3  and  C_4
REMARK    3  A    between atoms: C_20  and  O_21
REMARK                            x       y       z     vdW  Elec       q    Type
REMARK                         _______ _______ _______ _____ _____    ______ ____
ROOT
ATOM      1  C   UNL     1       2.994   5.779  18.963  0.00  0.00    +0.000 A 
ATOM      2  C   UNL     1       3.173   4.397  19.120  0.00  0.00    +0.000 A 
ATOM      3  C   UNL     1       3.980   3.681  18.234  0.00  0.00    +0.000 A 
ATOM      4  C   UNL     1       4.604   4.338  17.165  0.00  0.00    +0.000 A 
ATOM      5  C   UNL     1       5.406   3.655  16.244  0.00  0.00    +0.000 A 
ATOM      6  C   UNL     1       5.992   4.348  15.192  0.00  0.00    +0.000 A 
ATOM      7  C   UNL     1       5.758   5.708  15.097  0.00  0.00    +0.000 A 
ATOM      8  N   UNL     1       4.997   6.406  15.970  0.00  0.00    +0.000 NA
ATOM      9  C   UNL     1       4.427   5.726  16.988  0.00  0.00    +0.000 A 
ATOM     10  C   UNL     1       3.634   6.421  17.895  0.00  0.00    +0.000 A 
ENDROOT
BRANCH   1  12
ATOM     11  O   UNL     1       1.533   5.765  20.779  0.00  0.00    +0.000 OA
ATOM     12  C   UNL     1       2.104   6.464  19.945  0.00  0.00    +0.000 C 
ATOM     13  N   UNL     1       2.006   7.835  19.829  0.00  0.00    +0.000 N 
ATOM     14  H   UNL     1       2.450   8.241  19.008  0.00  0.00    +0.000 HD
BRANCH  13  15
ATOM     15  C   UNL     1       1.235   8.700  20.629  0.00  0.00    +0.000 A 
ATOM     16  C   UNL     1       1.229   8.661  22.027  0.00  0.00    +0.000 A 
ATOM     17  C   UNL     1       0.389   9.504  22.760  0.00  0.00    +0.000 A 
ATOM     18  C   UNL     1      -0.444  10.399  22.095  0.00  0.00    +0.000 A 
ATOM     19 CL   UNL     1      -1.508  11.405  22.997  0.00  0.00    +0.000 Cl
ATOM     20  C   UNL     1      -0.423  10.476  20.706  0.00  0.00    +0.000 A 
ATOM     21  C   UNL     1       0.422   9.635  19.974  0.00  0.00    +0.000 A 
ENDBRANCH  13  15
ENDBRANCH   1  12
BRANCH  10  22
ATOM     22  O   UNL     1       3.493   7.780  17.694  0.00  0.00    +0.000 OA
ATOM     23  H   UNL     1       2.586   7.972  18.029  0.00  0.00    +0.000 HD
ENDBRANCH  10  22
TORSDOF 3
ENDMDL
MODEL 6
REMARK VINA RESULT:      -7.1      3.727      7.968
REMARK  Name = 
REMARK  3 active torsions:
REMARK  status: ('A' for Active; 'I' for Inactive)
REMARK    1  A    between atoms: C_2  and  C_11
REMARK    2  A    between atoms: N_3  and  C_4
REMARK    3  A    between atoms: C_20  and  O_21
REMARK                            x       y       z     vdW  Elec       q    Type
REMARK                         _______ _______ _______ _____ _____    ______ ____
ROOT
ATOM      1  C   UNL     1       2.220   7.872  18.988  0.00  0.00    +0.000 A 
ATOM      2  C   UNL     1       2.932   8.125  17.807  0.00  0.00    +0.000 A 
ATOM      3  C   UNL     1       3.819   7.177  17.296  0.00  0.00    +0.000 A 
ATOM      4  C   UNL     1       4.019   5.966  17.973  0.00  0.00    +0.000 A 
ATOM      5  C   UNL     1       4.911   4.996  17.504  0.00  0.00    +0.000 A 
ATOM      6  C   UNL     1       5.086   3.816  18.219  0.00  0.00    +0.000 A 
ATOM      7  C   UNL     1       4.356   3.645  19.381  0.00  0.00    +0.000 A 
ATOM      8  N   UNL     1       3.478   4.553  19.863  0.00  0.00    +0.000 NA
ATOM      9  C   UNL     1       3.317   5.699  19.166  0.00  0.00    +0.000 A 
ATOM     10  C   UNL     1       2.424   6.653  19.645  0.00  0.00    +0.000 A 
ENDROOT
BRANCH   1  12
ATOM     11  O   UNL     1       0.672   9.577  18.628  0.00  0.00    +0.000 OA
ATOM     12  C   UNL     1       1.304   8.947  19.472  0.00  0.00    +0.000 C 
ATOM     13  N   UNL     1       1.248   9.132  20.838  0.00  0.00    +0.000 N 
ATOM     14  H   UNL     1       1.927   8.606  21.383  0.00  0.00    +0.000 HD
BRANCH  13  15
ATOM     15  C   UNL     1       0.468  10.077  21.533  0.00  0.00    +0.000 A 
ATOM     16  C   UNL     1      -0.385   9.748  22.590  0.00  0.00    +0.000 A 
ATOM     17  C   UNL     1      -1.183  10.724  23.194  0.00  0.00    +0.000 A 
ATOM     18  C   UNL     1      -1.123  12.040  22.746  0.00  0.00    +0.000 A 
ATOM     19 CL   UNL     1      -2.135  13.232  23.460  0.00  0.00    +0.000 Cl
ATOM     20  C   UNL     1      -0.251  12.391  21.719  0.00  0.00    +0.000 A 
ATOM     21  C   UNL     1       0.550  11.413  21.120  0.00  0.00    +0.000 A 
ENDBRANCH  13  15
ENDBRANCH   1  12
BRANCH  10  22
ATOM     22  O   UNL     1       1.748   6.350  20.812  0.00  0.00    +0.000 OA
ATOM     23  H   UNL     1       1.713   5.366  20.811  0.00  0.00    +0.000 HD
ENDBRANCH  10  22
TORSDOF 3
ENDMDL
MODEL 7
REMARK VINA RESULT:      -7.1      0.903      1.037
REMARK  Name = 
REMARK  3 active torsions:
REMARK  status: ('A' for Active; 'I' for Inactive)
REMARK    1  A    between atoms: C_2  and  C_11
REMARK    2  A    between atoms: N_3  and  C_4
REMARK    3  A    between atoms: C_20  and  O_21
REMARK                            x       y       z     vdW  Elec       q    Type
REMARK                         _______ _______ _______ _____ _____    ______ ____
ROOT
ATOM      1  C   UNL     1       0.901   9.559  19.523  0.00  0.00    +0.000 A 
ATOM      2  C   UNL     1       1.138   9.313  20.883  0.00  0.00    +0.000 A 
ATOM      3  C   UNL     1       0.385   9.961  21.863  0.00  0.00    +0.000 A 
ATOM      4  C   UNL     1      -0.607  10.880  21.494  0.00  0.00    +0.000 A 
ATOM      5  C   UNL     1      -1.372  11.564  22.444  0.00  0.00    +0.000 A 
ATOM      6  C   UNL     1      -2.334  12.477  22.029  0.00  0.00    +0.000 A 
ATOM      7  C   UNL     1      -2.500  12.674  20.670  0.00  0.00    +0.000 A 
ATOM      8  N   UNL     1      -1.788  12.028  19.719  0.00  0.00    +0.000 NA
ATOM      9  C   UNL     1      -0.852  11.145  20.131  0.00  0.00    +0.000 A 
ATOM     10  C   UNL     1      -0.101  10.472  19.172  0.00  0.00    +0.000 A 
ENDROOT
BRANCH   1  12
ATOM     11  O   UNL     1       1.943   9.364  17.448  0.00  0.00    +0.000 OA
ATOM     12  C   UNL     1       1.762   8.835  18.542  0.00  0.00    +0.000 C 
ATOM     13  N   UNL     1       2.283   7.628  18.959  0.00  0.00    +0.000 N 
ATOM     14  H   UNL     1       1.934   7.281  19.850  0.00  0.00    +0.000 HD
BRANCH  13  15
ATOM     15  C   UNL     1       3.114   6.764  18.221  0.00  0.00    +0.000 A 
ATOM     16  C   UNL     1       4.211   7.199  17.472  0.00  0.00    +0.000 A 
ATOM     17  C   UNL     1       4.956   6.296  16.707  0.00  0.00    +0.000 A 
ATOM     18  C   UNL     1       4.609   4.949  16.697  0.00  0.00    +0.000 A 
ATOM     19 CL   UNL     1       5.499   3.846  15.722  0.00  0.00    +0.000 Cl
ATOM     20  C   UNL     1       3.542   4.494  17.466  0.00  0.00    +0.000 A 
ATOM     21  C   UNL     1       2.802   5.398  18.235  0.00  0.00    +0.000 A 
ENDBRANCH  13  15
ENDBRANCH   1  12
BRANCH  10  22
ATOM     22  O   UNL     1      -0.377  10.752  17.847  0.00  0.00    +0.000 OA
ATOM     23  H   UNL     1       0.493  10.637  17.400  0.00  0.00    +0.000 HD
ENDBRANCH  10  22
TORSDOF 3
ENDMDL
MODEL 8
REMARK VINA RESULT:      -7.1      3.737      7.883
REMARK  Name = 
REMARK  3 active torsions:
REMARK  status: ('A' for Active; 'I' for Inactive)
REMARK    1  A    between atoms: C_2  and  C_11
REMARK    2  A    between atoms: N_3  and  C_4
REMARK    3  A    between atoms: C_20  and  O_21
REMARK                            x       y       z     vdW  Elec       q    Type
REMARK                         _______ _______ _______ _____ _____    ______ ____
ROOT
ATOM      1  C   UNL     1       2.255   7.866  18.935  0.00  0.00    +0.000 A 
ATOM      2  C   UNL     1       3.007   8.042  17.765  0.00  0.00    +0.000 A 
ATOM      3  C   UNL     1       3.873   7.042  17.321  0.00  0.00    +0.000 A 
ATOM      4  C   UNL     1       4.012   5.856  18.055  0.00  0.00    +0.000 A 
ATOM      5  C   UNL     1       4.882   4.836  17.655  0.00  0.00    +0.000 A 
ATOM      6  C   UNL     1       4.995   3.685  18.425  0.00  0.00    +0.000 A 
ATOM      7  C   UNL     1       4.229   3.590  19.573  0.00  0.00    +0.000 A 
ATOM      8  N   UNL     1       3.371   4.549  19.990  0.00  0.00    +0.000 NA
ATOM      9  C   UNL     1       3.269   5.667  19.239  0.00  0.00    +0.000 A 
ATOM     10  C   UNL     1       2.397   6.671  19.650  0.00  0.00    +0.000 A 
ENDROOT
BRANCH   1  12
ATOM     11  O   UNL     1       0.815   9.635  18.455  0.00  0.00    +0.000 OA
ATOM     12  C   UNL     1       1.364   8.991  19.346  0.00  0.00    +0.000 C 
ATOM     13  N   UNL     1       1.237   9.206  20.703  0.00  0.00    +0.000 N 
ATOM     14  H   UNL     1       1.857   8.660  21.296  0.00  0.00    +0.000 HD
BRANCH  13  15
ATOM     15  C   UNL     1       0.464  10.200  21.334  0.00  0.00    +0.000 A 
ATOM     16  C   UNL     1       0.523  11.556  20.998  0.00  0.00    +0.000 A 
ATOM     17  C   UNL     1      -0.223  12.500  21.709  0.00  0.00    +0.000 A 
ATOM     18  C   UNL     1      -1.040  12.088  22.757  0.00  0.00    +0.000 A 
ATOM     19 CL   UNL     1      -1.924  13.256  23.659  0.00  0.00    +0.000 Cl
ATOM     20  C   UNL     1      -1.139  10.738  23.080  0.00  0.00    +0.000 A 
ATOM     21  C   UNL     1      -0.396   9.794  22.363  0.00  0.00    +0.000 A 
ENDBRANCH  13  15
ENDBRANCH   1  12
BRANCH  10  22
ATOM     22  O   UNL     1       1.681   6.444  20.810  0.00  0.00    +0.000 OA
ATOM     23  H   UNL     1       2.265   6.803  21.517  0.00  0.00    +0.000 HD
ENDBRANCH  10  22
TORSDOF 3
ENDMDL
MODEL 9
REMARK VINA RESULT:      -7.0      3.465      7.869
REMARK  Name = 
REMARK  3 active torsions:
REMARK  status: ('A' for Active; 'I' for Inactive)
REMARK    1  A    between atoms: C_2  and  C_11
REMARK    2  A    between atoms: N_3  and  C_4
REMARK    3  A    between atoms: C_20  and  O_21
REMARK                            x       y       z     vdW  Elec       q    Type
REMARK                         _______ _______ _______ _____ _____    ______ ____
ROOT
ATOM      1  C   UNL     1       3.186   6.059  19.188  0.00  0.00    +0.000 A 
ATOM      2  C   UNL     1       3.786   4.887  19.670  0.00  0.00    +0.000 A 
ATOM      3  C   UNL     1       4.784   4.247  18.934  0.00  0.00    +0.000 A 
ATOM      4  C   UNL     1       5.183   4.763  17.693  0.00  0.00    +0.000 A 
ATOM      5  C   UNL     1       6.166   4.142  16.915  0.00  0.00    +0.000 A 
ATOM      6  C   UNL     1       6.517   4.685  15.685  0.00  0.00    +0.000 A 
ATOM      7  C   UNL     1       5.870   5.837  15.273  0.00  0.00    +0.000 A 
ATOM      8  N   UNL     1       4.921   6.471  15.997  0.00  0.00    +0.000 NA
ATOM      9  C   UNL     1       4.583   5.936  17.190  0.00  0.00    +0.000 A 
ATOM     10  C   UNL     1       3.604   6.567  17.952  0.00  0.00    +0.000 A 
ENDROOT
BRANCH   1  12
ATOM     11  O   UNL     1       1.408   5.912  20.688  0.00  0.00    +0.000 OA
ATOM     12  C   UNL     1       2.118   6.671  20.032  0.00  0.00    +0.000 C 
ATOM     13  N   UNL     1       2.026   8.047  19.999  0.00  0.00    +0.000 N 
ATOM     14  H   UNL     1       2.612   8.512  19.309  0.00  0.00    +0.000 HD
BRANCH  13  15
ATOM     15  C   UNL     1       1.106   8.851  20.700  0.00  0.00    +0.000 A 
ATOM     16  C   UNL     1       0.213   9.727  20.075  0.00  0.00    +0.000 A 
ATOM     17  C   UNL     1      -0.629  10.547  20.833  0.00  0.00    +0.000 A 
ATOM     18  C   UNL     1      -0.586  10.486  22.222  0.00  0.00    +0.000 A 
ATOM     19 CL   UNL     1      -1.591  11.526  23.153  0.00  0.00    +0.000 Cl
ATOM     20  C   UNL     1       0.271   9.593  22.858  0.00  0.00    +0.000 A 
ATOM     21  C   UNL     1       1.109   8.770  22.098  0.00  0.00    +0.000 A 
ENDBRANCH  13  15
ENDBRANCH   1  12
BRANCH  10  22
ATOM     22  O   UNL     1       3.047   7.719  17.430  0.00  0.00    +0.000 OA
ATOM     23  H   UNL     1       3.550   7.862  16.595  0.00  0.00    +0.000 HD
ENDBRANCH  10  22
TORSDOF 3
ENDMDL
