MODEL 1
REMARK VINA RESULT:      -8.3      0.000      0.000
REMARK  Name = 
REMARK  7 active torsions:
REMARK  status: ('A' for Active; 'I' for Inactive)
REMARK    1  A    between atoms: C_2  and  C_3
REMARK    2  A    between atoms: C_8  and  N_9
REMARK    3  A    between atoms: C_15  and  C_16
REMARK    4  A    between atoms: N_17  and  N_18
REMARK    5  A    between atoms: N_21  and  C_22
REMARK    6  A    between atoms: C_22  and  C_23
REMARK    7  A    between atoms: C_23  and  C_24
REMARK                            x       y       z     vdW  Elec       q    Type
REMARK                         _______ _______ _______ _____ _____    ______ ____
ROOT
ATOM      1  C   UNL     1      -2.997  13.556  21.702  0.00  0.00    +0.000 A 
ATOM      2  C   UNL     1      -2.363  12.956  20.605  0.00  0.00    +0.000 A 
ATOM      3  C   UNL     1      -1.446  11.892  20.770  0.00  0.00    +0.000 A 
ATOM      4  C   UNL     1      -1.173  11.437  22.073  0.00  0.00    +0.000 A 
ATOM      5  C   UNL     1      -1.821  12.056  23.169  0.00  0.00    +0.000 A 
ATOM      6  C   UNL     1      -2.703  13.134  23.010  0.00  0.00    +0.000 A 
ATOM      7  N   UNL     1      -0.270  10.372  22.268  0.00  0.00    +0.000 N 
ATOM      8  O   UNL     1      -0.013   9.962  23.454  0.00  0.00    +0.000 OA
ATOM      9  C   UNL     1       0.355   9.762  21.161  0.00  0.00    +0.000 A 
ATOM     10  C   UNL     1       1.256   8.694  21.340  0.00  0.00    +0.000 A 
ATOM     11  C   UNL     1       1.875   8.083  20.253  0.00  0.00    +0.000 A 
ATOM     12  C   UNL     1       1.610   8.524  18.955  0.00  0.00    +0.000 A 
ATOM     13  C   UNL     1       0.719   9.579  18.750  0.00  0.00    +0.000 A 
ATOM     14  C   UNL     1       0.081  10.212  19.849  0.00  0.00    +0.000 A 
ATOM     15  N   UNL     1      -0.819  11.279  19.661  0.00  0.00    +0.000 N 
ATOM     16  O   UNL     1      -1.075  11.696  18.477  0.00  0.00    +0.000 OA
ENDROOT
BRANCH   6  17
ATOM     17  N   UNL     1      -3.420  13.580  24.126  0.00  0.00    +0.000 N 
ATOM     18  H   UNL     1      -4.390  13.276  24.177  0.00  0.00    +0.000 HD
ATOM     19  H   UNL     1      -2.953  13.507  25.029  0.00  0.00    +0.000 HD
ENDBRANCH   6  17
BRANCH   1  21
ATOM     20  N   UNL     1      -4.674  15.488  21.246  0.00  0.00    +0.000 NA
ATOM     21  C   UNL     1      -3.930  14.619  21.459  0.00  0.00    +0.000 C 
ENDBRANCH   1  21
BRANCH  12  22
ATOM     22  C   UNL     1       2.283   7.864  17.812  0.00  0.00    +0.000 C 
ATOM     23  N   UNL     1       3.576   7.822  17.778  0.00  0.00    +0.000 NA
BRANCH  23  24
ATOM     24  N   UNL     1       4.137   7.202  16.704  0.00  0.00    +0.000 N 
ATOM     25  C   UNL     1       4.789   5.992  16.830  0.00  0.00    +0.000 C 
ATOM     26  O   UNL     1       5.279   5.418  15.864  0.00  0.00    +0.000 OA
ATOM     27  N   UNL     1       4.834   5.520  18.116  0.00  0.00    +0.000 N 
ATOM     28  H   UNL     1       4.081   7.596  15.770  0.00  0.00    +0.000 HD
ATOM     29  H   UNL     1       4.315   6.075  18.787  0.00  0.00    +0.000 HD
BRANCH  27  30
ATOM     30  C   UNL     1       5.410   4.235  18.439  0.00  0.00    +0.000 C 
BRANCH  30  31
ATOM     31  C   UNL     1       4.802   3.546  19.667  0.00  0.00    +0.000 C 
BRANCH  31  32
ATOM     32  C   UNL     1       3.299   3.391  19.625  0.00  0.00    +0.000 A 
ATOM     33  C   UNL     1       2.486   4.032  20.571  0.00  0.00    +0.000 A 
ATOM     34  C   UNL     1       1.101   3.860  20.551  0.00  0.00    +0.000 A 
ATOM     35  C   UNL     1       0.510   3.064  19.572  0.00  0.00    +0.000 A 
ATOM     36  C   UNL     1       1.303   2.457  18.600  0.00  0.00    +0.000 A 
ATOM     37  C   UNL     1       2.691   2.622  18.624  0.00  0.00    +0.000 A 
ENDBRANCH  31  32
ENDBRANCH  30  31
ENDBRANCH  27  30
ENDBRANCH  23  24
ENDBRANCH  12  22
TORSDOF 7
ENDMDL
MODEL 2
REMARK VINA RESULT:      -8.0      2.924      9.368
REMARK  Name = 
REMARK  7 active torsions:
REMARK  status: ('A' for Active; 'I' for Inactive)
REMARK    1  A    between atoms: C_2  and  C_3
REMARK    2  A    between atoms: C_8  and  N_9
REMARK    3  A    between atoms: C_15  and  C_16
REMARK    4  A    between atoms: N_17  and  N_18
REMARK    5  A    between atoms: N_21  and  C_22
REMARK    6  A    between atoms: C_22  and  C_23
REMARK    7  A    between atoms: C_23  and  C_24
REMARK                            x       y       z     vdW  Elec       q    Type
REMARK                         _______ _______ _______ _____ _____    ______ ____
ROOT
ATOM      1  C   UNL     1       4.475   5.950  17.054  0.00  0.00    +0.000 A 
ATOM      2  C   UNL     1       3.799   7.177  17.102  0.00  0.00    +0.000 A 
ATOM      3  C   UNL     1       2.939   7.508  18.173  0.00  0.00    +0.000 A 
ATOM      4  C   UNL     1       2.766   6.572  19.210  0.00  0.00    +0.000 A 
ATOM      5  C   UNL     1       3.455   5.337  19.145  0.00  0.00    +0.000 A 
ATOM      6  C   UNL     1       4.281   4.993  18.065  0.00  0.00    +0.000 A 
ATOM      7  N   UNL     1       1.921   6.878  20.295  0.00  0.00    +0.000 N 
ATOM      8  O   UNL     1       1.755   6.023  21.235  0.00  0.00    +0.000 OA
ATOM      9  C   UNL     1       1.254   8.119  20.346  0.00  0.00    +0.000 A 
ATOM     10  C   UNL     1       0.409   8.439  21.428  0.00  0.00    +0.000 A 
ATOM     11  C   UNL     1      -0.251   9.664  21.488  0.00  0.00    +0.000 A 
ATOM     12  C   UNL     1      -0.085  10.602  20.467  0.00  0.00    +0.000 A 
ATOM     13  C   UNL     1       0.747  10.310  19.385  0.00  0.00    +0.000 A 
ATOM     14  C   UNL     1       1.427   9.065  19.311  0.00  0.00    +0.000 A 
ATOM     15  N   UNL     1       2.269   8.752  18.225  0.00  0.00    +0.000 N 
ATOM     16  O   UNL     1       2.433   9.601  17.281  0.00  0.00    +0.000 OA
ENDROOT
BRANCH   6  17
ATOM     17  N   UNL     1       5.048   3.826  18.157  0.00  0.00    +0.000 N 
ATOM     18  H   UNL     1       6.019   3.912  17.865  0.00  0.00    +0.000 HD
ATOM     19  H   UNL     1       4.958   3.286  19.016  0.00  0.00    +0.000 HD
ENDBRANCH   6  17
BRANCH   1  21
ATOM     20  N   UNL     1       6.068   5.496  15.052  0.00  0.00    +0.000 NA
ATOM     21  C   UNL     1       5.348   5.689  15.945  0.00  0.00    +0.000 C 
ENDBRANCH   1  21
BRANCH  12  22
ATOM     22  C   UNL     1      -0.802  11.897  20.547  0.00  0.00    +0.000 C 
ATOM     23  N   UNL     1      -2.027  11.917  20.964  0.00  0.00    +0.000 NA
BRANCH  23  24
ATOM     24  N   UNL     1      -2.631  13.136  21.017  0.00  0.00    +0.000 N 
ATOM     25  C   UNL     1      -3.887  13.340  20.485  0.00  0.00    +0.000 C 
ATOM     26  O   UNL     1      -4.446  14.430  20.546  0.00  0.00    +0.000 OA
ATOM     27  N   UNL     1      -4.423  12.228  19.890  0.00  0.00    +0.000 N 
ATOM     28  H   UNL     1      -2.189  13.932  21.465  0.00  0.00    +0.000 HD
ATOM     29  H   UNL     1      -3.867  11.386  19.993  0.00  0.00    +0.000 HD
BRANCH  27  30
ATOM     30  C   UNL     1      -5.759  12.223  19.340  0.00  0.00    +0.000 C 
BRANCH  30  31
ATOM     31  C   UNL     1      -5.884  11.576  17.954  0.00  0.00    +0.000 C 
BRANCH  31  32
ATOM     32  C   UNL     1      -4.591  11.031  17.393  0.00  0.00    +0.000 A 
ATOM     33  C   UNL     1      -3.805  10.141  18.140  0.00  0.00    +0.000 A 
ATOM     34  C   UNL     1      -2.594   9.667  17.634  0.00  0.00    +0.000 A 
ATOM     35  C   UNL     1      -2.165  10.057  16.367  0.00  0.00    +0.000 A 
ATOM     36  C   UNL     1      -2.958  10.906  15.598  0.00  0.00    +0.000 A 
ATOM     37  C   UNL     1      -4.167  11.389  16.106  0.00  0.00    +0.000 A 
ENDBRANCH  31  32
ENDBRANCH  30  31
ENDBRANCH  27  30
ENDBRANCH  23  24
ENDBRANCH  12  22
TORSDOF 7
ENDMDL
MODEL 3
REMARK VINA RESULT:      -8.0      1.139      1.358
REMARK  Name = 
REMARK  7 active torsions:
REMARK  status: ('A' for Active; 'I' for Inactive)
REMARK    1  A    between atoms: C_2  and  C_3
REMARK    2  A    between atoms: C_8  and  N_9
REMARK    3  A    between atoms: C_15  and  C_16
REMARK    4  A    between atoms: N_17  and  N_18
REMARK    5  A    between atoms: N_21  and  C_22
REMARK    6  A    between atoms: C_22  and  C_23
REMARK    7  A    between atoms: C_23  and  C_24
REMARK                            x       y       z     vdW  Elec       q    Type
REMARK                         _______ _______ _______ _____ _____    ______ ____
ROOT
ATOM      1  C   UNL     1      -1.510  13.390  21.365  0.00  0.00    +0.000 A 
ATOM      2  C   UNL     1      -0.796  12.775  20.327  0.00  0.00    +0.000 A 
ATOM      3  C   UNL     1      -0.228  11.490  20.478  0.00  0.00    +0.000 A 
ATOM      4  C   UNL     1      -0.391  10.823  21.706  0.00  0.00    +0.000 A 
ATOM      5  C   UNL     1      -1.113  11.460  22.744  0.00  0.00    +0.000 A 
ATOM      6  C   UNL     1      -1.646  12.750  22.608  0.00  0.00    +0.000 A 
ATOM      7  N   UNL     1       0.157   9.537  21.883  0.00  0.00    +0.000 N 
ATOM      8  O   UNL     1       0.018   8.933  23.004  0.00  0.00    +0.000 OA
ATOM      9  C   UNL     1       0.862   8.917  20.831  0.00  0.00    +0.000 A 
ATOM     10  C   UNL     1       1.411   7.629  20.993  0.00  0.00    +0.000 A 
ATOM     11  C   UNL     1       2.105   7.007  19.958  0.00  0.00    +0.000 A 
ATOM     12  C   UNL     1       2.271   7.657  18.734  0.00  0.00    +0.000 A 
ATOM     13  C   UNL     1       1.735   8.933  18.547  0.00  0.00    +0.000 A 
ATOM     14  C   UNL     1       1.025   9.579  19.593  0.00  0.00    +0.000 A 
ATOM     15  N   UNL     1       0.479  10.867  19.424  0.00  0.00    +0.000 N 
ATOM     16  O   UNL     1       0.621  11.477  18.306  0.00  0.00    +0.000 OA
ENDROOT
BRANCH   6  17
ATOM     17  N   UNL     1      -2.480  13.237  23.621  0.00  0.00    +0.000 N 
ATOM     18  H   UNL     1      -2.560  14.250  23.677  0.00  0.00    +0.000 HD
ATOM     19  H   UNL     1      -3.384  12.780  23.728  0.00  0.00    +0.000 HD
ENDBRANCH   6  17
BRANCH   1  21
ATOM     20  N   UNL     1      -2.518  15.746  20.932  0.00  0.00    +0.000 NA
ATOM     21  C   UNL     1      -2.075  14.689  21.135  0.00  0.00    +0.000 C 
ENDBRANCH   1  21
BRANCH  12  22
ATOM     22  C   UNL     1       3.019   6.980  17.648  0.00  0.00    +0.000 C 
ATOM     23  N   UNL     1       4.142   7.483  17.244  0.00  0.00    +0.000 NA
BRANCH  23  24
ATOM     24  N   UNL     1       4.782   6.816  16.245  0.00  0.00    +0.000 N 
ATOM     25  C   UNL     1       5.169   5.500  16.391  0.00  0.00    +0.000 C 
ATOM     26  O   UNL     1       5.729   4.887  15.489  0.00  0.00    +0.000 OA
ATOM     27  N   UNL     1       4.875   4.970  17.620  0.00  0.00    +0.000 N 
ATOM     28  H   UNL     1       4.982   7.256  15.353  0.00  0.00    +0.000 HD
ATOM     29  H   UNL     1       4.342   5.584  18.226  0.00  0.00    +0.000 HD
BRANCH  27  30
ATOM     30  C   UNL     1       5.137   3.585  17.938  0.00  0.00    +0.000 C 
BRANCH  30  31
ATOM     31  C   UNL     1       3.898   2.680  17.946  0.00  0.00    +0.000 C 
BRANCH  31  32
ATOM     32  C   UNL     1       2.974   2.885  19.124  0.00  0.00    +0.000 A 
ATOM     33  C   UNL     1       3.415   2.638  20.433  0.00  0.00    +0.000 A 
ATOM     34  C   UNL     1       2.550   2.795  21.516  0.00  0.00    +0.000 A 
ATOM     35  C   UNL     1       1.239   3.221  21.308  0.00  0.00    +0.000 A 
ATOM     36  C   UNL     1       0.802   3.511  20.017  0.00  0.00    +0.000 A 
ATOM     37  C   UNL     1       1.665   3.347  18.930  0.00  0.00    +0.000 A 
ENDBRANCH  31  32
ENDBRANCH  30  31
ENDBRANCH  27  30
ENDBRANCH  23  24
ENDBRANCH  12  22
TORSDOF 7
ENDMDL
MODEL 4
REMARK VINA RESULT:      -8.0      1.864      3.809
REMARK  Name = 
REMARK  7 active torsions:
REMARK  status: ('A' for Active; 'I' for Inactive)
REMARK    1  A    between atoms: C_2  and  C_3
REMARK    2  A    between atoms: C_8  and  N_9
REMARK    3  A    between atoms: C_15  and  C_16
REMARK    4  A    between atoms: N_17  and  N_18
REMARK    5  A    between atoms: N_21  and  C_22
REMARK    6  A    between atoms: C_22  and  C_23
REMARK    7  A    between atoms: C_23  and  C_24
REMARK                            x       y       z     vdW  Elec       q    Type
REMARK                         _______ _______ _______ _____ _____    ______ ____
ROOT
ATOM      1  C   UNL     1      -2.276  13.275  22.611  0.00  0.00    +0.000 A 
ATOM      2  C   UNL     1      -1.725  11.995  22.772  0.00  0.00    +0.000 A 
ATOM      3  C   UNL     1      -0.970  11.379  21.748  0.00  0.00    +0.000 A 
ATOM      4  C   UNL     1      -0.776  12.079  20.542  0.00  0.00    +0.000 A 
ATOM      5  C   UNL     1      -1.340  13.369  20.396  0.00  0.00    +0.000 A 
ATOM      6  C   UNL     1      -2.119  13.967  21.398  0.00  0.00    +0.000 A 
ATOM      7  N   UNL     1      -0.021  11.493  19.507  0.00  0.00    +0.000 N 
ATOM      8  O   UNL     1       0.149  12.125  18.405  0.00  0.00    +0.000 OA
ATOM      9  C   UNL     1       0.543  10.212  19.678  0.00  0.00    +0.000 A 
ATOM     10  C   UNL     1       1.304   9.616  18.653  0.00  0.00    +0.000 A 
ATOM     11  C   UNL     1       1.868   8.354  18.815  0.00  0.00    +0.000 A 
ATOM     12  C   UNL     1       1.684   7.651  20.007  0.00  0.00    +0.000 A 
ATOM     13  C   UNL     1       0.936   8.219  21.040  0.00  0.00    +0.000 A 
ATOM     14  C   UNL     1       0.355   9.506  20.888  0.00  0.00    +0.000 A 
ATOM     15  N   UNL     1      -0.404  10.095  21.919  0.00  0.00    +0.000 N 
ATOM     16  O   UNL     1      -0.582   9.465  23.019  0.00  0.00    +0.000 OA
ENDROOT
BRANCH   6  17
ATOM     17  N   UNL     1      -2.502  15.303  21.236  0.00  0.00    +0.000 N 
ATOM     18  H   UNL     1      -2.464  15.661  20.284  0.00  0.00    +0.000 HD
ATOM     19  H   UNL     1      -3.352  15.597  21.716  0.00  0.00    +0.000 HD
ENDBRANCH   6  17
BRANCH   1  21
ATOM     20  N   UNL     1      -3.594  14.321  24.590  0.00  0.00    +0.000 NA
ATOM     21  C   UNL     1      -3.014  13.847  23.700  0.00  0.00    +0.000 C 
ENDBRANCH   1  21
BRANCH  12  22
ATOM     22  C   UNL     1       2.287   6.305  20.157  0.00  0.00    +0.000 C 
ATOM     23  N   UNL     1       2.877   5.760  19.142  0.00  0.00    +0.000 NA
BRANCH  23  24
ATOM     24  N   UNL     1       3.412   4.524  19.341  0.00  0.00    +0.000 N 
ATOM     25  C   UNL     1       4.774   4.341  19.462  0.00  0.00    +0.000 C 
ATOM     26  O   UNL     1       5.262   3.234  19.661  0.00  0.00    +0.000 OA
ATOM     27  N   UNL     1       5.501   5.495  19.330  0.00  0.00    +0.000 N 
ATOM     28  H   UNL     1       2.830   3.697  19.427  0.00  0.00    +0.000 HD
ATOM     29  H   UNL     1       4.943   6.337  19.246  0.00  0.00    +0.000 HD
BRANCH  27  30
ATOM     30  C   UNL     1       6.936   5.518  19.498  0.00  0.00    +0.000 C 
BRANCH  30  31
ATOM     31  C   UNL     1       7.736   5.641  18.194  0.00  0.00    +0.000 C 
BRANCH  31  32
ATOM     32  C   UNL     1       6.932   5.408  16.936  0.00  0.00    +0.000 A 
ATOM     33  C   UNL     1       7.079   4.221  16.202  0.00  0.00    +0.000 A 
ATOM     34  C   UNL     1       6.361   4.022  15.022  0.00  0.00    +0.000 A 
ATOM     35  C   UNL     1       5.471   4.996  14.572  0.00  0.00    +0.000 A 
ATOM     36  C   UNL     1       5.285   6.160  15.315  0.00  0.00    +0.000 A 
ATOM     37  C   UNL     1       6.008   6.364  16.493  0.00  0.00    +0.000 A 
ENDBRANCH  31  32
ENDBRANCH  30  31
ENDBRANCH  27  30
ENDBRANCH  23  24
ENDBRANCH  12  22
TORSDOF 7
ENDMDL
MODEL 5
REMARK VINA RESULT:      -7.9      2.060      4.056
REMARK  Name = 
REMARK  7 active torsions:
REMARK  status: ('A' for Active; 'I' for Inactive)
REMARK    1  A    between atoms: C_2  and  C_3
REMARK    2  A    between atoms: C_8  and  N_9
REMARK    3  A    between atoms: C_15  and  C_16
REMARK    4  A    between atoms: N_17  and  N_18
REMARK    5  A    between atoms: N_21  and  C_22
REMARK    6  A    between atoms: C_22  and  C_23
REMARK    7  A    between atoms: C_23  and  C_24
REMARK                            x       y       z     vdW  Elec       q    Type
REMARK                         _______ _______ _______ _____ _____    ______ ____
ROOT
ATOM      1  C   UNL     1      -1.403  14.321  22.559  0.00  0.00    +0.000 A 
ATOM      2  C   UNL     1      -1.004  13.006  22.838  0.00  0.00    +0.000 A 
ATOM      3  C   UNL     1      -0.424  12.182  21.848  0.00  0.00    +0.000 A 
ATOM      4  C   UNL     1      -0.248  12.707  20.554  0.00  0.00    +0.000 A 
ATOM      5  C   UNL     1      -0.658  14.037  20.290  0.00  0.00    +0.000 A 
ATOM      6  C   UNL     1      -1.267  14.844  21.262  0.00  0.00    +0.000 A 
ATOM      7  N   UNL     1       0.336  11.912  19.548  0.00  0.00    +0.000 N 
ATOM      8  O   UNL     1       0.488  12.386  18.367  0.00  0.00    +0.000 OA
ATOM      9  C   UNL     1       0.748  10.595  19.836  0.00  0.00    +0.000 A 
ATOM     10  C   UNL     1       1.337   9.790  18.841  0.00  0.00    +0.000 A 
ATOM     11  C   UNL     1       1.751   8.490  19.118  0.00  0.00    +0.000 A 
ATOM     12  C   UNL     1       1.584   7.957  20.398  0.00  0.00    +0.000 A 
ATOM     13  C   UNL     1       1.005   8.735  21.403  0.00  0.00    +0.000 A 
ATOM     14  C   UNL     1       0.579  10.062  21.135  0.00  0.00    +0.000 A 
ATOM     15  N   UNL     1      -0.010  10.861  22.136  0.00  0.00    +0.000 N 
ATOM     16  O   UNL     1      -0.169  10.389  23.316  0.00  0.00    +0.000 OA
ENDROOT
BRANCH   6  17
ATOM     17  N   UNL     1      -1.493  16.192  20.964  0.00  0.00    +0.000 N 
ATOM     18  H   UNL     1      -1.280  16.850  21.710  0.00  0.00    +0.000 HD
ATOM     19  H   UNL     1      -1.157  16.523  20.061  0.00  0.00    +0.000 HD
ENDBRANCH   6  17
BRANCH   1  21
ATOM     20  N   UNL     1      -2.405  15.752  24.483  0.00  0.00    +0.000 NA
ATOM     21  C   UNL     1      -1.968  15.107  23.619  0.00  0.00    +0.000 C 
ENDBRANCH   1  21
BRANCH  12  22
ATOM     22  C   UNL     1       2.025   6.569  20.670  0.00  0.00    +0.000 C 
ATOM     23  N   UNL     1       2.008   5.700  19.712  0.00  0.00    +0.000 NA
BRANCH  23  24
ATOM     24  N   UNL     1       2.425   4.442  20.022  0.00  0.00    +0.000 N 
ATOM     25  C   UNL     1       3.163   3.689  19.133  0.00  0.00    +0.000 C 
ATOM     26  O   UNL     1       3.560   2.563  19.413  0.00  0.00    +0.000 OA
ATOM     27  N   UNL     1       3.392   4.314  17.935  0.00  0.00    +0.000 N 
ATOM     28  H   UNL     1       2.225   4.021  20.923  0.00  0.00    +0.000 HD
ATOM     29  H   UNL     1       3.063   5.272  17.891  0.00  0.00    +0.000 HD
BRANCH  27  30
ATOM     30  C   UNL     1       4.207   3.715  16.903  0.00  0.00    +0.000 C 
BRANCH  30  31
ATOM     31  C   UNL     1       5.099   4.698  16.134  0.00  0.00    +0.000 C 
BRANCH  31  32
ATOM     32  C   UNL     1       6.102   5.440  16.987  0.00  0.00    +0.000 A 
ATOM     33  C   UNL     1       6.272   6.826  16.851  0.00  0.00    +0.000 A 
ATOM     34  C   UNL     1       7.224   7.503  17.615  0.00  0.00    +0.000 A 
ATOM     35  C   UNL     1       8.001   6.808  18.540  0.00  0.00    +0.000 A 
ATOM     36  C   UNL     1       7.811   5.439  18.715  0.00  0.00    +0.000 A 
ATOM     37  C   UNL     1       6.864   4.758  17.945  0.00  0.00    +0.000 A 
ENDBRANCH  31  32
ENDBRANCH  30  31
ENDBRANCH  27  30
ENDBRANCH  23  24
ENDBRANCH  12  22
TORSDOF 7
ENDMDL
MODEL 6
REMARK VINA RESULT:      -7.9      2.483      4.497
REMARK  Name = 
REMARK  7 active torsions:
REMARK  status: ('A' for Active; 'I' for Inactive)
REMARK    1  A    between atoms: C_2  and  C_3
REMARK    2  A    between atoms: C_8  and  N_9
REMARK    3  A    between atoms: C_15  and  C_16
REMARK    4  A    between atoms: N_17  and  N_18
REMARK    5  A    between atoms: N_21  and  C_22
REMARK    6  A    between atoms: C_22  and  C_23
REMARK    7  A    between atoms: C_23  and  C_24
REMARK                            x       y       z     vdW  Elec       q    Type
REMARK                         _______ _______ _______ _____ _____    ______ ____
ROOT
ATOM      1  C   UNL     1      -1.878  12.921  22.621  0.00  0.00    +0.000 A 
ATOM      2  C   UNL     1      -1.415  11.602  22.727  0.00  0.00    +0.000 A 
ATOM      3  C   UNL     1      -0.629  11.009  21.713  0.00  0.00    +0.000 A 
ATOM      4  C   UNL     1      -0.312  11.773  20.575  0.00  0.00    +0.000 A 
ATOM      5  C   UNL     1      -0.789  13.103  20.484  0.00  0.00    +0.000 A 
ATOM      6  C   UNL     1      -1.599  13.681  21.472  0.00  0.00    +0.000 A 
ATOM      7  N   UNL     1       0.477  11.211  19.552  0.00  0.00    +0.000 N 
ATOM      8  O   UNL     1       0.759  11.902  18.510  0.00  0.00    +0.000 OA
ATOM      9  C   UNL     1       0.952   9.888  19.669  0.00  0.00    +0.000 A 
ATOM     10  C   UNL     1       1.746   9.315  18.656  0.00  0.00    +0.000 A 
ATOM     11  C   UNL     1       2.223   8.011  18.765  0.00  0.00    +0.000 A 
ATOM     12  C   UNL     1       1.917   7.244  19.891  0.00  0.00    +0.000 A 
ATOM     13  C   UNL     1       1.134   7.789  20.910  0.00  0.00    +0.000 A 
ATOM     14  C   UNL     1       0.641   9.117  20.812  0.00  0.00    +0.000 A 
ATOM     15  N   UNL     1      -0.152   9.683  21.830  0.00  0.00    +0.000 N 
ATOM     16  O   UNL     1      -0.442   8.993  22.870  0.00  0.00    +0.000 OA
ENDROOT
BRANCH   6  17
ATOM     17  N   UNL     1      -1.891  15.046  21.380  0.00  0.00    +0.000 N 
ATOM     18  H   UNL     1      -2.084  15.516  22.262  0.00  0.00    +0.000 HD
ATOM     19  H   UNL     1      -1.287  15.604  20.779  0.00  0.00    +0.000 HD
ENDBRANCH   6  17
BRANCH   1  21
ATOM     20  N   UNL     1      -3.288  13.926  24.558  0.00  0.00    +0.000 NA
ATOM     21  C   UNL     1      -2.656  13.465  23.697  0.00  0.00    +0.000 C 
ENDBRANCH   1  21
BRANCH  12  22
ATOM     22  C   UNL     1       2.429   5.856  19.984  0.00  0.00    +0.000 C 
ATOM     23  N   UNL     1       2.173   5.021  19.029  0.00  0.00    +0.000 NA
BRANCH  23  24
ATOM     24  N   UNL     1       2.670   3.762  19.171  0.00  0.00    +0.000 N 
ATOM     25  C   UNL     1       3.779   3.343  18.466  0.00  0.00    +0.000 C 
ATOM     26  O   UNL     1       4.245   2.217  18.603  0.00  0.00    +0.000 OA
ATOM     27  N   UNL     1       4.284   4.290  17.614  0.00  0.00    +0.000 N 
ATOM     28  H   UNL     1       2.256   3.094  19.813  0.00  0.00    +0.000 HD
ATOM     29  H   UNL     1       3.831   5.195  17.676  0.00  0.00    +0.000 HD
BRANCH  27  30
ATOM     30  C   UNL     1       5.485   4.064  16.844  0.00  0.00    +0.000 C 
BRANCH  30  31
ATOM     31  C   UNL     1       5.860   5.201  15.884  0.00  0.00    +0.000 C 
BRANCH  31  32
ATOM     32  C   UNL     1       6.224   4.754  14.488  0.00  0.00    +0.000 A 
ATOM     33  C   UNL     1       5.394   3.873  13.778  0.00  0.00    +0.000 A 
ATOM     34  C   UNL     1       5.750   3.434  12.502  0.00  0.00    +0.000 A 
ATOM     35  C   UNL     1       6.928   3.887  11.910  0.00  0.00    +0.000 A 
ATOM     36  C   UNL     1       7.739   4.795  12.587  0.00  0.00    +0.000 A 
ATOM     37  C   UNL     1       7.388   5.230  13.869  0.00  0.00    +0.000 A 
ENDBRANCH  31  32
ENDBRANCH  30  31
ENDBRANCH  27  30
ENDBRANCH  23  24
ENDBRANCH  12  22
TORSDOF 7
ENDMDL
MODEL 7
REMARK VINA RESULT:      -7.8      2.007      4.096
REMARK  Name = 
REMARK  7 active torsions:
REMARK  status: ('A' for Active; 'I' for Inactive)
REMARK    1  A    between atoms: C_2  and  C_3
REMARK    2  A    between atoms: C_8  and  N_9
REMARK    3  A    between atoms: C_15  and  C_16
REMARK    4  A    between atoms: N_17  and  N_18
REMARK    5  A    between atoms: N_21  and  C_22
REMARK    6  A    between atoms: C_22  and  C_23
REMARK    7  A    between atoms: C_23  and  C_24
REMARK                            x       y       z     vdW  Elec       q    Type
REMARK                         _______ _______ _______ _____ _____    ______ ____
ROOT
ATOM      1  C   UNL     1      -1.719  13.001  21.932  0.00  0.00    +0.000 A 
ATOM      2  C   UNL     1      -1.105  11.773  22.215  0.00  0.00    +0.000 A 
ATOM      3  C   UNL     1      -0.428  11.036  21.217  0.00  0.00    +0.000 A 
ATOM      4  C   UNL     1      -0.379  11.560  19.912  0.00  0.00    +0.000 A 
ATOM      5  C   UNL     1      -1.005  12.801  19.644  0.00  0.00    +0.000 A 
ATOM      6  C   UNL     1      -1.708  13.516  20.625  0.00  0.00    +0.000 A 
ATOM      7  N   UNL     1       0.296  10.851  18.898  0.00  0.00    +0.000 N 
ATOM      8  O   UNL     1       0.335  11.323  17.707  0.00  0.00    +0.000 OA
ATOM      9  C   UNL     1       0.925   9.623  19.190  0.00  0.00    +0.000 A 
ATOM     10  C   UNL     1       1.607   8.906  18.187  0.00  0.00    +0.000 A 
ATOM     11  C   UNL     1       2.233   7.695  18.467  0.00  0.00    +0.000 A 
ATOM     12  C   UNL     1       2.192   7.165  19.758  0.00  0.00    +0.000 A 
ATOM     13  C   UNL     1       1.525   7.857  20.771  0.00  0.00    +0.000 A 
ATOM     14  C   UNL     1       0.882   9.093  20.499  0.00  0.00    +0.000 A 
ATOM     15  N   UNL     1       0.202   9.804  21.508  0.00  0.00    +0.000 N 
ATOM     16  O   UNL     1       0.156   9.334  22.699  0.00  0.00    +0.000 OA
ENDROOT
BRANCH   6  17
ATOM     17  N   UNL     1      -2.157  14.805  20.317  0.00  0.00    +0.000 N 
ATOM     18  H   UNL     1      -1.475  15.415  19.873  0.00  0.00    +0.000 HD
ATOM     19  H   UNL     1      -3.073  14.876  19.875  0.00  0.00    +0.000 HD
ENDBRANCH   6  17
BRANCH   1  21
ATOM     20  N   UNL     1      -2.902  14.255  23.877  0.00  0.00    +0.000 NA
ATOM     21  C   UNL     1      -2.373  13.704  22.999  0.00  0.00    +0.000 C 
ENDBRANCH   1  21
BRANCH  12  22
ATOM     22  C   UNL     1       2.860   5.871  20.034  0.00  0.00    +0.000 C 
ATOM     23  N   UNL     1       2.137   4.817  20.239  0.00  0.00    +0.000 NA
BRANCH  23  24
ATOM     24  N   UNL     1       2.807   3.658  20.486  0.00  0.00    +0.000 N 
ATOM     25  C   UNL     1       3.581   3.054  19.517  0.00  0.00    +0.000 C 
ATOM     26  O   UNL     1       4.203   2.021  19.737  0.00  0.00    +0.000 OA
ATOM     27  N   UNL     1       3.573   3.711  18.314  0.00  0.00    +0.000 N 
ATOM     28  H   UNL     1       2.777   3.207  21.394  0.00  0.00    +0.000 HD
ATOM     29  H   UNL     1       3.071   4.591  18.318  0.00  0.00    +0.000 HD
BRANCH  27  30
ATOM     30  C   UNL     1       4.380   3.272  17.198  0.00  0.00    +0.000 C 
BRANCH  30  31
ATOM     31  C   UNL     1       4.941   4.402  16.325  0.00  0.00    +0.000 C 
BRANCH  31  32
ATOM     32  C   UNL     1       5.960   5.283  17.010  0.00  0.00    +0.000 A 
ATOM     33  C   UNL     1       5.979   6.668  16.783  0.00  0.00    +0.000 A 
ATOM     34  C   UNL     1       6.943   7.474  17.390  0.00  0.00    +0.000 A 
ATOM     35  C   UNL     1       7.885   6.912  18.249  0.00  0.00    +0.000 A 
ATOM     36  C   UNL     1       7.850   5.545  18.517  0.00  0.00    +0.000 A 
ATOM     37  C   UNL     1       6.890   4.734  17.903  0.00  0.00    +0.000 A 
ENDBRANCH  31  32
ENDBRANCH  30  31
ENDBRANCH  27  30
ENDBRANCH  23  24
ENDBRANCH  12  22
TORSDOF 7
ENDMDL
MODEL 8
REMARK VINA RESULT:      -7.8      1.873      3.997
REMARK  Name = 
REMARK  7 active torsions:
REMARK  status: ('A' for Active; 'I' for Inactive)
REMARK    1  A    between atoms: C_2  and  C_3
REMARK    2  A    between atoms: C_8  and  N_9
REMARK    3  A    between atoms: C_15  and  C_16
REMARK    4  A    between atoms: N_17  and  N_18
REMARK    5  A    between atoms: N_21  and  C_22
REMARK    6  A    between atoms: C_22  and  C_23
REMARK    7  A    between atoms: C_23  and  C_24
REMARK                            x       y       z     vdW  Elec       q    Type
REMARK                         _______ _______ _______ _____ _____    ______ ____
ROOT
ATOM      1  C   UNL     1      -2.332  14.207  22.930  0.00  0.00    +0.000 A 
ATOM      2  C   UNL     1      -1.862  12.903  23.146  0.00  0.00    +0.000 A 
ATOM      3  C   UNL     1      -1.174  12.187  22.140  0.00  0.00    +0.000 A 
ATOM      4  C   UNL     1      -0.964  12.810  20.896  0.00  0.00    +0.000 A 
ATOM      5  C   UNL     1      -1.445  14.126  20.695  0.00  0.00    +0.000 A 
ATOM      6  C   UNL     1      -2.160  14.825  21.679  0.00  0.00    +0.000 A 
ATOM      7  N   UNL     1      -0.273  12.124  19.877  0.00  0.00    +0.000 N 
ATOM      8  O   UNL     1      -0.088  12.687  18.741  0.00  0.00    +0.000 OA
ATOM      9  C   UNL     1       0.210  10.819  20.104  0.00  0.00    +0.000 A 
ATOM     10  C   UNL     1       0.905  10.122  19.095  0.00  0.00    +0.000 A 
ATOM     11  C   UNL     1       1.389   8.835  19.312  0.00  0.00    +0.000 A 
ATOM     12  C   UNL     1       1.188   8.207  20.542  0.00  0.00    +0.000 A 
ATOM     13  C   UNL     1       0.503   8.876  21.559  0.00  0.00    +0.000 A 
ATOM     14  C   UNL     1       0.005  10.189  21.352  0.00  0.00    +0.000 A 
ATOM     15  N   UNL     1      -0.690  10.878  22.366  0.00  0.00    +0.000 N 
ATOM     16  O   UNL     1      -0.882  10.318  23.502  0.00  0.00    +0.000 OA
ENDROOT
BRANCH   6  17
ATOM     17  N   UNL     1      -2.458  16.174  21.456  0.00  0.00    +0.000 N 
ATOM     18  H   UNL     1      -1.671  16.761  21.192  0.00  0.00    +0.000 HD
ATOM     19  H   UNL     1      -3.284  16.372  20.893  0.00  0.00    +0.000 HD
ENDBRANCH   6  17
BRANCH   1  21
ATOM     20  N   UNL     1      -3.533  15.439  24.877  0.00  0.00    +0.000 NA
ATOM     21  C   UNL     1      -3.006  14.881  24.002  0.00  0.00    +0.000 C 
ENDBRANCH   1  21
BRANCH  12  22
ATOM     22  C   UNL     1       1.705   6.833  20.750  0.00  0.00    +0.000 C 
ATOM     23  N   UNL     1       2.733   6.435  20.071  0.00  0.00    +0.000 NA
BRANCH  23  24
ATOM     24  N   UNL     1       3.162   5.165  20.306  0.00  0.00    +0.000 N 
ATOM     25  C   UNL     1       3.614   4.358  19.283  0.00  0.00    +0.000 C 
ATOM     26  O   UNL     1       4.021   3.219  19.489  0.00  0.00    +0.000 OA
ATOM     27  N   UNL     1       3.554   4.945  18.047  0.00  0.00    +0.000 N 
ATOM     28  H   UNL     1       3.182   4.773  21.241  0.00  0.00    +0.000 HD
ATOM     29  H   UNL     1       3.266   5.918  18.056  0.00  0.00    +0.000 HD
BRANCH  27  30
ATOM     30  C   UNL     1       4.051   4.286  16.861  0.00  0.00    +0.000 C 
BRANCH  30  31
ATOM     31  C   UNL     1       5.139   5.056  16.102  0.00  0.00    +0.000 C 
BRANCH  31  32
ATOM     32  C   UNL     1       6.199   5.680  16.979  0.00  0.00    +0.000 A 
ATOM     33  C   UNL     1       6.914   4.903  17.903  0.00  0.00    +0.000 A 
ATOM     34  C   UNL     1       7.867   5.489  18.736  0.00  0.00    +0.000 A 
ATOM     35  C   UNL     1       8.136   6.853  18.642  0.00  0.00    +0.000 A 
ATOM     36  C   UNL     1       7.464   7.627  17.699  0.00  0.00    +0.000 A 
ATOM     37  C   UNL     1       6.502   7.044  16.868  0.00  0.00    +0.000 A 
ENDBRANCH  31  32
ENDBRANCH  30  31
ENDBRANCH  27  30
ENDBRANCH  23  24
ENDBRANCH  12  22
TORSDOF 7
ENDMDL
MODEL 9
REMARK VINA RESULT:      -7.8      2.930      9.244
REMARK  Name = 
REMARK  7 active torsions:
REMARK  status: ('A' for Active; 'I' for Inactive)
REMARK    1  A    between atoms: C_2  and  C_3
REMARK    2  A    between atoms: C_8  and  N_9
REMARK    3  A    between atoms: C_15  and  C_16
REMARK    4  A    between atoms: N_17  and  N_18
REMARK    5  A    between atoms: N_21  and  C_22
REMARK    6  A    between atoms: C_22  and  C_23
REMARK    7  A    between atoms: C_23  and  C_24
REMARK                            x       y       z     vdW  Elec       q    Type
REMARK                         _______ _______ _______ _____ _____    ______ ____
ROOT
ATOM      1  C   UNL     1       2.600   4.490  20.567  0.00  0.00    +0.000 A 
ATOM      2  C   UNL     1       1.850   5.605  20.968  0.00  0.00    +0.000 A 
ATOM      3  C   UNL     1       1.840   6.801  20.215  0.00  0.00    +0.000 A 
ATOM      4  C   UNL     1       2.608   6.860  19.037  0.00  0.00    +0.000 A 
ATOM      5  C   UNL     1       3.360   5.725  18.648  0.00  0.00    +0.000 A 
ATOM      6  C   UNL     1       3.398   4.550  19.413  0.00  0.00    +0.000 A 
ATOM      7  N   UNL     1       2.611   8.036  18.261  0.00  0.00    +0.000 N 
ATOM      8  O   UNL     1       3.316   8.094  17.192  0.00  0.00    +0.000 OA
ATOM      9  C   UNL     1       1.845   9.150  18.660  0.00  0.00    +0.000 A 
ATOM     10  C   UNL     1       1.835  10.331  17.891  0.00  0.00    +0.000 A 
ATOM     11  C   UNL     1       1.078  11.435  18.276  0.00  0.00    +0.000 A 
ATOM     12  C   UNL     1       0.311  11.388  19.442  0.00  0.00    +0.000 A 
ATOM     13  C   UNL     1       0.302  10.229  20.220  0.00  0.00    +0.000 A 
ATOM     14  C   UNL     1       1.068   9.096  19.840  0.00  0.00    +0.000 A 
ATOM     15  N   UNL     1       1.072   7.919  20.614  0.00  0.00    +0.000 N 
ATOM     16  O   UNL     1       0.373   7.859  21.686  0.00  0.00    +0.000 OA
ENDROOT
BRANCH   6  17
ATOM     17  N   UNL     1       4.035   3.425  18.876  0.00  0.00    +0.000 N 
ATOM     18  H   UNL     1       3.557   2.978  18.097  0.00  0.00    +0.000 HD
ATOM     19  H   UNL     1       5.038   3.502  18.711  0.00  0.00    +0.000 HD
ENDBRANCH   6  17
BRANCH   1  21
ATOM     20  N   UNL     1       2.520   2.330  22.009  0.00  0.00    +0.000 NA
ATOM     21  C   UNL     1       2.547   3.302  21.371  0.00  0.00    +0.000 C 
ENDBRANCH   1  21
BRANCH  12  22
ATOM     22  C   UNL     1      -0.482  12.576  19.837  0.00  0.00    +0.000 C 
ATOM     23  N   UNL     1      -1.164  12.545  20.937  0.00  0.00    +0.000 NA
BRANCH  23  24
ATOM     24  N   UNL     1      -1.871  13.665  21.246  0.00  0.00    +0.000 N 
ATOM     25  C   UNL     1      -3.166  13.844  20.806  0.00  0.00    +0.000 C 
ATOM     26  O   UNL     1      -3.817  14.842  21.097  0.00  0.00    +0.000 OA
ATOM     27  N   UNL     1      -3.630  12.819  20.023  0.00  0.00    +0.000 N 
ATOM     28  H   UNL     1      -1.480  14.400  21.827  0.00  0.00    +0.000 HD
ATOM     29  H   UNL     1      -2.996  12.032  19.941  0.00  0.00    +0.000 HD
BRANCH  27  30
ATOM     30  C   UNL     1      -4.987  12.789  19.527  0.00  0.00    +0.000 C 
BRANCH  30  31
ATOM     31  C   UNL     1      -5.379  11.498  18.797  0.00  0.00    +0.000 C 
BRANCH  31  32
ATOM     32  C   UNL     1      -4.383  11.033  17.760  0.00  0.00    +0.000 A 
ATOM     33  C   UNL     1      -3.296  10.223  18.122  0.00  0.00    +0.000 A 
ATOM     34  C   UNL     1      -2.359   9.823  17.168  0.00  0.00    +0.000 A 
ATOM     35  C   UNL     1      -2.508  10.208  15.838  0.00  0.00    +0.000 A 
ATOM     36  C   UNL     1      -3.607  10.976  15.457  0.00  0.00    +0.000 A 
ATOM     37  C   UNL     1      -4.542  11.384  16.412  0.00  0.00    +0.000 A 
ENDBRANCH  31  32
ENDBRANCH  30  31
ENDBRANCH  27  30
ENDBRANCH  23  24
ENDBRANCH  12  22
TORSDOF 7
ENDMDL
