MODEL 1
REMARK VINA RESULT:      -8.2      0.000      0.000
REMARK  Name = 
REMARK  10 active torsions:
REMARK  status: ('A' for Active; 'I' for Inactive)
REMARK    1  A    between atoms: C_1  and  O_2
REMARK    2  A    between atoms: O_2  and  C_3
REMARK    3  A    between atoms: C_5  and  C_6
REMARK    4  A    between atoms: C_10  and  C_11
REMARK    5  A    between atoms: C_15  and  O_16
REMARK    6  A    between atoms: C_18  and  O_19
REMARK    7  A    between atoms: C_23  and  O_24
REMARK    8  A    between atoms: C_29  and  C_30
REMARK    9  A    between atoms: C_30  and  O_31
REMARK   10  A    between atoms: C_34  and  O_35
REMARK                            x       y       z     vdW  Elec       q    Type
REMARK                         _______ _______ _______ _____ _____    ______ ____
ROOT
ATOM      1  C   UNL     1       0.739  11.277  21.193  0.00  0.00    +0.000 C 
ATOM      2  O   UNL     1       0.864   9.835  21.156  0.00  0.00    +0.000 OA
ATOM      3  C   UNL     1       1.120   9.339  19.896  0.00  0.00    +0.000 A 
ATOM      4  C   UNL     1       1.973   8.237  19.718  0.00  0.00    +0.000 A 
ATOM      5  C   UNL     1       2.238   7.708  18.426  0.00  0.00    +0.000 A 
ATOM      6  C   UNL     1       1.543   8.261  17.340  0.00  0.00    +0.000 A 
ATOM      7  C   UNL     1       0.688   9.352  17.518  0.00  0.00    +0.000 A 
ATOM      8  C   UNL     1       0.533   9.913  18.783  0.00  0.00    +0.000 A 
ATOM      9  O   UNL     1      -0.182  11.071  18.869  0.00  0.00    +0.000 OA
ATOM     10  C   UNL     1       0.421  11.952  19.831  0.00  0.00    +0.000 C 
ENDROOT
BRANCH   5  11
ATOM     11  C   UNL     1       3.406   6.784  18.135  0.00  0.00    +0.000 A 
ATOM     12  O   UNL     1       4.185   7.116  17.012  0.00  0.00    +0.000 OA
ATOM     13  C   UNL     1       5.161   6.191  16.682  0.00  0.00    +0.000 A 
ATOM     14  C   UNL     1       5.339   5.810  15.357  0.00  0.00    +0.000 A 
ATOM     15  C   UNL     1       6.286   4.825  15.074  0.00  0.00    +0.000 A 
ATOM     16  C   UNL     1       7.182   4.372  16.039  0.00  0.00    +0.000 A 
ATOM     17  C   UNL     1       7.002   4.765  17.360  0.00  0.00    +0.000 A 
ATOM     18  C   UNL     1       5.904   5.564  17.684  0.00  0.00    +0.000 A 
ATOM     19  C   UNL     1       5.239   5.478  18.993  0.00  0.00    +0.000 A 
ATOM     20  O   UNL     1       5.782   5.109  20.023  0.00  0.00    +0.000 OA
ATOM     21  C   UNL     1       3.779   5.787  18.949  0.00  0.00    +0.000 A 
BRANCH  15  22
ATOM     22  O   UNL     1       6.326   4.224  13.851  0.00  0.00    +0.000 OA
ATOM     23  H   UNL     1       7.200   3.804  13.753  0.00  0.00    +0.000 HD
ENDBRANCH  15  22
BRANCH  17  24
ATOM     24  O   UNL     1       7.853   4.310  18.323  0.00  0.00    +0.000 OA
ATOM     25  H   UNL     1       8.077   5.027  18.939  0.00  0.00    +0.000 HD
ENDBRANCH  17  24
BRANCH  21  26
ATOM     26  O   UNL     1       2.893   4.989  19.639  0.00  0.00    +0.000 OA
ATOM     27  H   UNL     1       3.431   4.243  19.970  0.00  0.00    +0.000 HD
ENDBRANCH  21  26
ENDBRANCH   5  11
BRANCH   1  30
ATOM     28  C   UNL     1      -1.488  13.887  22.921  0.00  0.00    +0.000 A 
ATOM     29  C   UNL     1      -0.391  13.262  22.301  0.00  0.00    +0.000 A 
ATOM     30  C   UNL     1      -0.273  11.855  22.202  0.00  0.00    +0.000 A 
ATOM     31  C   UNL     1      -1.248  11.073  22.817  0.00  0.00    +0.000 A 
ATOM     32  C   UNL     1      -2.335  11.673  23.451  0.00  0.00    +0.000 A 
ATOM     33  C   UNL     1      -2.477  13.078  23.479  0.00  0.00    +0.000 A 
BRANCH  28  35
ATOM     34  C   UNL     1      -0.282  15.935  23.278  0.00  0.00    +0.000 C 
ATOM     35  O   UNL     1      -1.449  15.254  22.836  0.00  0.00    +0.000 OA
ENDBRANCH  28  35
BRANCH  33  36
ATOM     36  O   UNL     1      -3.606  13.617  24.030  0.00  0.00    +0.000 OA
ATOM     37  H   UNL     1      -3.439  14.543  24.269  0.00  0.00    +0.000 HD
ENDBRANCH  33  36
ENDBRANCH   1  30
BRANCH  10  38
ATOM     38  C   UNL     1       1.670  12.662  19.273  0.00  0.00    +0.000 C 
BRANCH  38  39
ATOM     39  O   UNL     1       1.499  13.036  17.907  0.00  0.00    +0.000 OA
ATOM     40  H   UNL     1       2.200  12.606  17.387  0.00  0.00    +0.000 HD
ENDBRANCH  38  39
ENDBRANCH  10  38
TORSDOF 9
ENDMDL
MODEL 2
REMARK VINA RESULT:      -8.1      1.011      1.033
REMARK  Name = 
REMARK  10 active torsions:
REMARK  status: ('A' for Active; 'I' for Inactive)
REMARK    1  A    between atoms: C_1  and  O_2
REMARK    2  A    between atoms: O_2  and  C_3
REMARK    3  A    between atoms: C_5  and  C_6
REMARK    4  A    between atoms: C_10  and  C_11
REMARK    5  A    between atoms: C_15  and  O_16
REMARK    6  A    between atoms: C_18  and  O_19
REMARK    7  A    between atoms: C_23  and  O_24
REMARK    8  A    between atoms: C_29  and  C_30
REMARK    9  A    between atoms: C_30  and  O_31
REMARK   10  A    between atoms: C_34  and  O_35
REMARK                            x       y       z     vdW  Elec       q    Type
REMARK                         _______ _______ _______ _____ _____    ______ ____
ROOT
ATOM      1  C   UNL     1       0.274  11.603  21.690  0.00  0.00    +0.000 C 
ATOM      2  O   UNL     1       0.257  10.172  21.475  0.00  0.00    +0.000 OA
ATOM      3  C   UNL     1       0.607   9.805  20.193  0.00  0.00    +0.000 A 
ATOM      4  C   UNL     1       1.361   8.643  19.958  0.00  0.00    +0.000 A 
ATOM      5  C   UNL     1       1.719   8.248  18.642  0.00  0.00    +0.000 A 
ATOM      6  C   UNL     1       1.213   9.004  17.573  0.00  0.00    +0.000 A 
ATOM      7  C   UNL     1       0.456  10.155  17.807  0.00  0.00    +0.000 A 
ATOM      8  C   UNL     1       0.213  10.573  19.112  0.00  0.00    +0.000 A 
ATOM      9  O   UNL     1      -0.389  11.786  19.277  0.00  0.00    +0.000 OA
ATOM     10  C   UNL     1       0.183  12.470  20.404  0.00  0.00    +0.000 C 
ENDROOT
BRANCH   5  11
ATOM     11  C   UNL     1       2.815   7.239  18.351  0.00  0.00    +0.000 A 
ATOM     12  O   UNL     1       3.845   7.681  17.502  0.00  0.00    +0.000 OA
ATOM     13  C   UNL     1       4.762   6.709  17.139  0.00  0.00    +0.000 A 
ATOM     14  C   UNL     1       5.174   6.600  15.816  0.00  0.00    +0.000 A 
ATOM     15  C   UNL     1       6.047   5.565  15.479  0.00  0.00    +0.000 A 
ATOM     16  C   UNL     1       6.664   4.782  16.451  0.00  0.00    +0.000 A 
ATOM     17  C   UNL     1       6.253   4.903  17.773  0.00  0.00    +0.000 A 
ATOM     18  C   UNL     1       5.205   5.774  18.077  0.00  0.00    +0.000 A 
ATOM     19  C   UNL     1       4.272   5.511  19.183  0.00  0.00    +0.000 A 
ATOM     20  O   UNL     1       4.542   4.850  20.174  0.00  0.00    +0.000 OA
ATOM     21  C   UNL     1       2.897   6.045  18.953  0.00  0.00    +0.000 A 
BRANCH  15  22
ATOM     22  O   UNL     1       6.279   5.243  14.174  0.00  0.00    +0.000 OA
ATOM     23  H   UNL     1       6.742   4.385  14.156  0.00  0.00    +0.000 HD
ENDBRANCH  15  22
BRANCH  17  24
ATOM     24  O   UNL     1       6.826   4.126  18.734  0.00  0.00    +0.000 OA
ATOM     25  H   UNL     1       7.638   4.544  19.064  0.00  0.00    +0.000 HD
ENDBRANCH  17  24
BRANCH  21  26
ATOM     26  O   UNL     1       1.804   5.264  19.258  0.00  0.00    +0.000 OA
ATOM     27  H   UNL     1       1.801   4.559  18.581  0.00  0.00    +0.000 HD
ENDBRANCH  21  26
ENDBRANCH   5  11
BRANCH   1  30
ATOM     28  C   UNL     1      -1.872  14.221  23.509  0.00  0.00    +0.000 A 
ATOM     29  C   UNL     1      -0.777  13.556  22.926  0.00  0.00    +0.000 A 
ATOM     30  C   UNL     1      -0.785  12.166  22.658  0.00  0.00    +0.000 A 
ATOM     31  C   UNL     1      -1.896  11.430  23.065  0.00  0.00    +0.000 A 
ATOM     32  C   UNL     1      -2.984  12.067  23.659  0.00  0.00    +0.000 A 
ATOM     33  C   UNL     1      -2.991  13.466  23.854  0.00  0.00    +0.000 A 
BRANCH  28  35
ATOM     34  C   UNL     1      -0.691  16.192  22.802  0.00  0.00    +0.000 C 
ATOM     35  O   UNL     1      -1.690  15.576  23.605  0.00  0.00    +0.000 OA
ENDBRANCH  28  35
BRANCH  33  36
ATOM     36  O   UNL     1      -4.118  14.057  24.354  0.00  0.00    +0.000 OA
ATOM     37  H   UNL     1      -4.724  14.268  23.624  0.00  0.00    +0.000 HD
ENDBRANCH  33  36
ENDBRANCH   1  30
BRANCH  10  38
ATOM     38  C   UNL     1       1.553  13.095  20.076  0.00  0.00    +0.000 C 
BRANCH  38  39
ATOM     39  O   UNL     1       2.375  13.207  21.237  0.00  0.00    +0.000 OA
ATOM     40  H   UNL     1       2.659  14.133  21.317  0.00  0.00    +0.000 HD
ENDBRANCH  38  39
ENDBRANCH  10  38
TORSDOF 9
ENDMDL
MODEL 3
REMARK VINA RESULT:      -7.9      1.686     10.710
REMARK  Name = 
REMARK  10 active torsions:
REMARK  status: ('A' for Active; 'I' for Inactive)
REMARK    1  A    between atoms: C_1  and  O_2
REMARK    2  A    between atoms: O_2  and  C_3
REMARK    3  A    between atoms: C_5  and  C_6
REMARK    4  A    between atoms: C_10  and  C_11
REMARK    5  A    between atoms: C_15  and  O_16
REMARK    6  A    between atoms: C_18  and  O_19
REMARK    7  A    between atoms: C_23  and  O_24
REMARK    8  A    between atoms: C_29  and  C_30
REMARK    9  A    between atoms: C_30  and  O_31
REMARK   10  A    between atoms: C_34  and  O_35
REMARK                            x       y       z     vdW  Elec       q    Type
REMARK                         _______ _______ _______ _____ _____    ______ ____
ROOT
ATOM      1  C   UNL     1       5.716   5.965  16.459  0.00  0.00    +0.000 C 
ATOM      2  O   UNL     1       4.369   6.485  16.351  0.00  0.00    +0.000 OA
ATOM      3  C   UNL     1       3.710   6.554  17.560  0.00  0.00    +0.000 A 
ATOM      4  C   UNL     1       2.834   7.616  17.840  0.00  0.00    +0.000 A 
ATOM      5  C   UNL     1       2.139   7.695  19.077  0.00  0.00    +0.000 A 
ATOM      6  C   UNL     1       2.281   6.625  19.974  0.00  0.00    +0.000 A 
ATOM      7  C   UNL     1       3.147   5.565  19.691  0.00  0.00    +0.000 A 
ATOM      8  C   UNL     1       3.892   5.572  18.517  0.00  0.00    +0.000 A 
ATOM      9  O   UNL     1       4.837   4.598  18.371  0.00  0.00    +0.000 OA
ATOM     10  C   UNL     1       6.010   5.141  17.743  0.00  0.00    +0.000 C 
ENDROOT
BRANCH   5  11
ATOM     11  C   UNL     1       1.485   8.970  19.578  0.00  0.00    +0.000 A 
ATOM     12  O   UNL     1       1.380   9.096  20.975  0.00  0.00    +0.000 OA
ATOM     13  C   UNL     1       0.662  10.196  21.411  0.00  0.00    +0.000 A 
ATOM     14  C   UNL     1      -0.278  10.058  22.426  0.00  0.00    +0.000 A 
ATOM     15  C   UNL     1      -1.028  11.177  22.789  0.00  0.00    +0.000 A 
ATOM     16  C   UNL     1      -0.721  12.449  22.314  0.00  0.00    +0.000 A 
ATOM     17  C   UNL     1       0.226  12.580  21.305  0.00  0.00    +0.000 A 
ATOM     18  C   UNL     1       0.807  11.429  20.771  0.00  0.00    +0.000 A 
ATOM     19  C   UNL     1       1.237  11.356  19.366  0.00  0.00    +0.000 A 
ATOM     20  O   UNL     1       1.566  12.319  18.692  0.00  0.00    +0.000 OA
ATOM     21  C   UNL     1       1.143   9.988  18.777  0.00  0.00    +0.000 A 
BRANCH  15  22
ATOM     22  O   UNL     1      -2.132  11.052  23.579  0.00  0.00    +0.000 OA
ATOM     23  H   UNL     1      -1.911  10.445  24.308  0.00  0.00    +0.000 HD
ENDBRANCH  15  22
BRANCH  17  24
ATOM     24  O   UNL     1       0.519  13.815  20.809  0.00  0.00    +0.000 OA
ATOM     25  H   UNL     1       0.094  13.939  19.944  0.00  0.00    +0.000 HD
ENDBRANCH  17  24
BRANCH  21  26
ATOM     26  O   UNL     1       0.620   9.825  17.513  0.00  0.00    +0.000 OA
ATOM     27  H   UNL     1       1.386   9.908  16.911  0.00  0.00    +0.000 HD
ENDBRANCH  21  26
ENDBRANCH   5  11
BRANCH   1  30
ATOM     28  C   UNL     1       5.551   3.784  13.301  0.00  0.00    +0.000 A 
ATOM     29  C   UNL     1       5.280   4.325  14.570  0.00  0.00    +0.000 A 
ATOM     30  C   UNL     1       6.221   5.111  15.279  0.00  0.00    +0.000 A 
ATOM     31  C   UNL     1       7.485   5.278  14.719  0.00  0.00    +0.000 A 
ATOM     32  C   UNL     1       7.779   4.735  13.470  0.00  0.00    +0.000 A 
ATOM     33  C   UNL     1       6.807   4.015  12.742  0.00  0.00    +0.000 A 
BRANCH  28  35
ATOM     34  C   UNL     1       4.075   3.458  11.431  0.00  0.00    +0.000 C 
ATOM     35  O   UNL     1       4.479   3.128  12.754  0.00  0.00    +0.000 OA
ENDBRANCH  28  35
BRANCH  33  36
ATOM     36  O   UNL     1       7.112   3.583  11.480  0.00  0.00    +0.000 OA
ATOM     37  H   UNL     1       7.340   4.346  10.924  0.00  0.00    +0.000 HD
ENDBRANCH  33  36
ENDBRANCH   1  30
BRANCH  10  38
ATOM     38  C   UNL     1       6.876   5.957  18.723  0.00  0.00    +0.000 C 
BRANCH  38  39
ATOM     39  O   UNL     1       7.088   5.257  19.948  0.00  0.00    +0.000 OA
ATOM     40  H   UNL     1       6.296   5.372  20.501  0.00  0.00    +0.000 HD
ENDBRANCH  38  39
ENDBRANCH  10  38
TORSDOF 9
ENDMDL
MODEL 4
REMARK VINA RESULT:      -7.5      1.945     10.560
REMARK  Name = 
REMARK  10 active torsions:
REMARK  status: ('A' for Active; 'I' for Inactive)
REMARK    1  A    between atoms: C_1  and  O_2
REMARK    2  A    between atoms: O_2  and  C_3
REMARK    3  A    between atoms: C_5  and  C_6
REMARK    4  A    between atoms: C_10  and  C_11
REMARK    5  A    between atoms: C_15  and  O_16
REMARK    6  A    between atoms: C_18  and  O_19
REMARK    7  A    between atoms: C_23  and  O_24
REMARK    8  A    between atoms: C_29  and  C_30
REMARK    9  A    between atoms: C_30  and  O_31
REMARK   10  A    between atoms: C_34  and  O_35
REMARK                            x       y       z     vdW  Elec       q    Type
REMARK                         _______ _______ _______ _____ _____    ______ ____
ROOT
ATOM      1  C   UNL     1       5.872   5.959  16.443  0.00  0.00    +0.000 C 
ATOM      2  O   UNL     1       4.519   6.463  16.343  0.00  0.00    +0.000 OA
ATOM      3  C   UNL     1       3.838   6.449  17.541  0.00  0.00    +0.000 A 
ATOM      4  C   UNL     1       2.940   7.479  17.869  0.00  0.00    +0.000 A 
ATOM      5  C   UNL     1       2.223   7.472  19.096  0.00  0.00    +0.000 A 
ATOM      6  C   UNL     1       2.368   6.353  19.930  0.00  0.00    +0.000 A 
ATOM      7  C   UNL     1       3.255   5.325  19.599  0.00  0.00    +0.000 A 
ATOM      8  C   UNL     1       4.020   5.414  18.440  0.00  0.00    +0.000 A 
ATOM      9  O   UNL     1       4.983   4.466  18.253  0.00  0.00    +0.000 OA
ATOM     10  C   UNL     1       6.158   5.063  17.680  0.00  0.00    +0.000 C 
ENDROOT
BRANCH   5  11
ATOM     11  C   UNL     1       1.541   8.705  19.661  0.00  0.00    +0.000 A 
ATOM     12  O   UNL     1       1.145   9.672  18.720  0.00  0.00    +0.000 OA
ATOM     13  C   UNL     1       0.649  10.846  19.261  0.00  0.00    +0.000 A 
ATOM     14  C   UNL     1       1.062  12.074  18.757  0.00  0.00    +0.000 A 
ATOM     15  C   UNL     1       0.590  13.234  19.374  0.00  0.00    +0.000 A 
ATOM     16  C   UNL     1      -0.422  13.195  20.329  0.00  0.00    +0.000 A 
ATOM     17  C   UNL     1      -0.835  11.962  20.822  0.00  0.00    +0.000 A 
ATOM     18  C   UNL     1      -0.192  10.807  20.375  0.00  0.00    +0.000 A 
ATOM     19  C   UNL     1      -0.032   9.625  21.236  0.00  0.00    +0.000 A 
ATOM     20  O   UNL     1      -0.776   9.336  22.161  0.00  0.00    +0.000 OA
ATOM     21  C   UNL     1       1.201   8.833  20.951  0.00  0.00    +0.000 A 
BRANCH  15  22
ATOM     22  O   UNL     1       1.152  14.446  19.105  0.00  0.00    +0.000 OA
ATOM     23  H   UNL     1       1.587  14.760  19.918  0.00  0.00    +0.000 HD
ENDBRANCH  15  22
BRANCH  17  24
ATOM     24  O   UNL     1      -1.806  11.906  21.777  0.00  0.00    +0.000 OA
ATOM     25  H   UNL     1      -1.832  11.022  22.177  0.00  0.00    +0.000 HD
ENDBRANCH  17  24
BRANCH  21  26
ATOM     26  O   UNL     1       1.974   8.376  21.996  0.00  0.00    +0.000 OA
ATOM     27  H   UNL     1       1.351   7.899  22.580  0.00  0.00    +0.000 HD
ENDBRANCH  21  26
ENDBRANCH   5  11
BRANCH   1  30
ATOM     28  C   UNL     1       5.797   3.819  13.253  0.00  0.00    +0.000 A 
ATOM     29  C   UNL     1       5.531   4.307  14.545  0.00  0.00    +0.000 A 
ATOM     30  C   UNL     1       6.410   5.185  15.224  0.00  0.00    +0.000 A 
ATOM     31  C   UNL     1       7.618   5.504  14.607  0.00  0.00    +0.000 A 
ATOM     32  C   UNL     1       7.908   5.017  13.334  0.00  0.00    +0.000 A 
ATOM     33  C   UNL     1       6.989   4.200  12.639  0.00  0.00    +0.000 A 
BRANCH  28  35
ATOM     34  C   UNL     1       4.263   3.365  11.459  0.00  0.00    +0.000 C 
ATOM     35  O   UNL     1       4.781   3.052  12.746  0.00  0.00    +0.000 OA
ENDBRANCH  28  35
BRANCH  33  36
ATOM     36  O   UNL     1       7.277   3.824  11.356  0.00  0.00    +0.000 OA
ATOM     37  H   UNL     1       8.216   3.995  11.173  0.00  0.00    +0.000 HD
ENDBRANCH  33  36
ENDBRANCH   1  30
BRANCH  10  38
ATOM     38  C   UNL     1       6.993   5.831  18.723  0.00  0.00    +0.000 C 
BRANCH  38  39
ATOM     39  O   UNL     1       7.049   5.138  19.969  0.00  0.00    +0.000 OA
ATOM     40  H   UNL     1       7.002   5.797  20.682  0.00  0.00    +0.000 HD
ENDBRANCH  38  39
ENDBRANCH  10  38
TORSDOF 9
ENDMDL
MODEL 5
REMARK VINA RESULT:      -7.5      1.617     10.433
REMARK  Name = 
REMARK  10 active torsions:
REMARK  status: ('A' for Active; 'I' for Inactive)
REMARK    1  A    between atoms: C_1  and  O_2
REMARK    2  A    between atoms: O_2  and  C_3
REMARK    3  A    between atoms: C_5  and  C_6
REMARK    4  A    between atoms: C_10  and  C_11
REMARK    5  A    between atoms: C_15  and  O_16
REMARK    6  A    between atoms: C_18  and  O_19
REMARK    7  A    between atoms: C_23  and  O_24
REMARK    8  A    between atoms: C_29  and  C_30
REMARK    9  A    between atoms: C_30  and  O_31
REMARK   10  A    between atoms: C_34  and  O_35
REMARK                            x       y       z     vdW  Elec       q    Type
REMARK                         _______ _______ _______ _____ _____    ______ ____
ROOT
ATOM      1  C   UNL     1       4.869   6.222  17.098  0.00  0.00    +0.000 C 
ATOM      2  O   UNL     1       3.634   6.978  17.070  0.00  0.00    +0.000 OA
ATOM      3  C   UNL     1       2.942   6.942  18.261  0.00  0.00    +0.000 A 
ATOM      4  C   UNL     1       2.245   8.072  18.721  0.00  0.00    +0.000 A 
ATOM      5  C   UNL     1       1.519   8.046  19.941  0.00  0.00    +0.000 A 
ATOM      6  C   UNL     1       1.439   6.824  20.628  0.00  0.00    +0.000 A 
ATOM      7  C   UNL     1       2.125   5.699  20.166  0.00  0.00    +0.000 A 
ATOM      8  C   UNL     1       2.914   5.787  19.022  0.00  0.00    +0.000 A 
ATOM      9  O   UNL     1       3.687   4.707  18.712  0.00  0.00    +0.000 OA
ATOM     10  C   UNL     1       4.962   5.141  18.211  0.00  0.00    +0.000 C 
ENDROOT
BRANCH   5  11
ATOM     11  C   UNL     1       1.066   9.304  20.661  0.00  0.00    +0.000 A 
ATOM     12  O   UNL     1       0.420  10.266  19.865  0.00  0.00    +0.000 OA
ATOM     13  C   UNL     1       0.136  11.460  20.506  0.00  0.00    +0.000 A 
ATOM     14  C   UNL     1       0.398  12.670  19.872  0.00  0.00    +0.000 A 
ATOM     15  C   UNL     1       0.161  13.850  20.577  0.00  0.00    +0.000 A 
ATOM     16  C   UNL     1      -0.509  13.852  21.797  0.00  0.00    +0.000 A 
ATOM     17  C   UNL     1      -0.775  12.638  22.420  0.00  0.00    +0.000 A 
ATOM     18  C   UNL     1      -0.322  11.460  21.825  0.00  0.00    +0.000 A 
ATOM     19  C   UNL     1       0.071  10.288  22.621  0.00  0.00    +0.000 A 
ATOM     20  O   UNL     1      -0.357  10.033  23.736  0.00  0.00    +0.000 OA
ATOM     21  C   UNL     1       1.142   9.461  21.990  0.00  0.00    +0.000 A 
BRANCH  15  22
ATOM     22  O   UNL     1       0.637  15.044  20.122  0.00  0.00    +0.000 OA
ATOM     23  H   UNL     1      -0.056  15.715  20.264  0.00  0.00    +0.000 HD
ENDBRANCH  15  22
BRANCH  17  24
ATOM     24  O   UNL     1      -1.406  12.622  23.629  0.00  0.00    +0.000 OA
ATOM     25  H   UNL     1      -1.120  13.377  24.167  0.00  0.00    +0.000 HD
ENDBRANCH  17  24
BRANCH  21  26
ATOM     26  O   UNL     1       2.189   9.001  22.757  0.00  0.00    +0.000 OA
ATOM     27  H   UNL     1       1.793   8.332  23.349  0.00  0.00    +0.000 HD
ENDBRANCH  21  26
ENDBRANCH   5  11
BRANCH   1  30
ATOM     28  C   UNL     1       7.132   5.076  14.212  0.00  0.00    +0.000 A 
ATOM     29  C   UNL     1       6.513   5.869  15.195  0.00  0.00    +0.000 A 
ATOM     30  C   UNL     1       5.275   5.519  15.787  0.00  0.00    +0.000 A 
ATOM     31  C   UNL     1       4.621   4.385  15.310  0.00  0.00    +0.000 A 
ATOM     32  C   UNL     1       5.210   3.595  14.325  0.00  0.00    +0.000 A 
ATOM     33  C   UNL     1       6.479   3.917  13.795  0.00  0.00    +0.000 A 
BRANCH  28  35
ATOM     34  C   UNL     1       8.539   5.996  12.494  0.00  0.00    +0.000 C 
ATOM     35  O   UNL     1       8.360   5.550  13.832  0.00  0.00    +0.000 OA
ENDBRANCH  28  35
BRANCH  33  36
ATOM     36  O   UNL     1       7.058   3.061  12.899  0.00  0.00    +0.000 OA
ATOM     37  H   UNL     1       6.534   3.047  12.081  0.00  0.00    +0.000 HD
ENDBRANCH  33  36
ENDBRANCH   1  30
BRANCH  10  38
ATOM     38  C   UNL     1       5.907   5.605  19.337  0.00  0.00    +0.000 C 
BRANCH  38  39
ATOM     39  O   UNL     1       7.158   4.920  19.292  0.00  0.00    +0.000 OA
ATOM     40  H   UNL     1       7.355   4.594  20.186  0.00  0.00    +0.000 HD
ENDBRANCH  38  39
ENDBRANCH  10  38
TORSDOF 9
ENDMDL
MODEL 6
REMARK VINA RESULT:      -7.3      1.820      2.213
REMARK  Name = 
REMARK  10 active torsions:
REMARK  status: ('A' for Active; 'I' for Inactive)
REMARK    1  A    between atoms: C_1  and  O_2
REMARK    2  A    between atoms: O_2  and  C_3
REMARK    3  A    between atoms: C_5  and  C_6
REMARK    4  A    between atoms: C_10  and  C_11
REMARK    5  A    between atoms: C_15  and  O_16
REMARK    6  A    between atoms: C_18  and  O_19
REMARK    7  A    between atoms: C_23  and  O_24
REMARK    8  A    between atoms: C_29  and  C_30
REMARK    9  A    between atoms: C_30  and  O_31
REMARK   10  A    between atoms: C_34  and  O_35
REMARK                            x       y       z     vdW  Elec       q    Type
REMARK                         _______ _______ _______ _____ _____    ______ ____
ROOT
ATOM      1  C   UNL     1      -0.243  11.420  21.408  0.00  0.00    +0.000 C 
ATOM      2  O   UNL     1      -0.369  10.154  20.717  0.00  0.00    +0.000 OA
ATOM      3  C   UNL     1       0.510  10.013  19.665  0.00  0.00    +0.000 A 
ATOM      4  C   UNL     1       1.092   8.767  19.377  0.00  0.00    +0.000 A 
ATOM      5  C   UNL     1       1.991   8.605  18.290  0.00  0.00    +0.000 A 
ATOM      6  C   UNL     1       2.206   9.709  17.450  0.00  0.00    +0.000 A 
ATOM      7  C   UNL     1       1.620  10.945  17.732  0.00  0.00    +0.000 A 
ATOM      8  C   UNL     1       0.828  11.096  18.866  0.00  0.00    +0.000 A 
ATOM      9  O   UNL     1       0.418  12.360  19.177  0.00  0.00    +0.000 OA
ATOM     10  C   UNL     1       0.452  12.551  20.601  0.00  0.00    +0.000 C 
ENDROOT
BRANCH   5  11
ATOM     11  C   UNL     1       2.918   7.410  18.154  0.00  0.00    +0.000 A 
ATOM     12  O   UNL     1       4.276   7.708  17.947  0.00  0.00    +0.000 OA
ATOM     13  C   UNL     1       5.083   6.613  17.690  0.00  0.00    +0.000 A 
ATOM     14  C   UNL     1       6.019   6.662  16.663  0.00  0.00    +0.000 A 
ATOM     15  C   UNL     1       6.765   5.514  16.393  0.00  0.00    +0.000 A 
ATOM     16  C   UNL     1       6.743   4.410  17.241  0.00  0.00    +0.000 A 
ATOM     17  C   UNL     1       5.810   4.372  18.270  0.00  0.00    +0.000 A 
ATOM     18  C   UNL     1       4.897   5.421  18.394  0.00  0.00    +0.000 A 
ATOM     19  C   UNL     1       3.539   5.212  18.919  0.00  0.00    +0.000 A 
ATOM     20  O   UNL     1       3.223   4.315  19.685  0.00  0.00    +0.000 OA
ATOM     21  C   UNL     1       2.522   6.144  18.348  0.00  0.00    +0.000 A 
BRANCH  15  22
ATOM     22  O   UNL     1       7.499   5.411  15.249  0.00  0.00    +0.000 OA
ATOM     23  H   UNL     1       8.440   5.379  15.500  0.00  0.00    +0.000 HD
ENDBRANCH  15  22
BRANCH  17  24
ATOM     24  O   UNL     1       5.755   3.287  19.094  0.00  0.00    +0.000 OA
ATOM     25  H   UNL     1       5.556   3.566  20.003  0.00  0.00    +0.000 HD
ENDBRANCH  17  24
BRANCH  21  26
ATOM     26  O   UNL     1       1.295   5.656  17.955  0.00  0.00    +0.000 OA
ATOM     27  H   UNL     1       1.478   4.756  17.620  0.00  0.00    +0.000 HD
ENDBRANCH  21  26
ENDBRANCH   5  11
BRANCH   1  30
ATOM     28  C   UNL     1      -3.842  12.763  21.421  0.00  0.00    +0.000 A 
ATOM     29  C   UNL     1      -2.511  12.503  21.049  0.00  0.00    +0.000 A 
ATOM     30  C   UNL     1      -1.542  12.031  21.968  0.00  0.00    +0.000 A 
ATOM     31  C   UNL     1      -1.918  11.901  23.303  0.00  0.00    +0.000 A 
ATOM     32  C   UNL     1      -3.229  12.169  23.694  0.00  0.00    +0.000 A 
ATOM     33  C   UNL     1      -4.202  12.569  22.753  0.00  0.00    +0.000 A 
BRANCH  28  35
ATOM     34  C   UNL     1      -4.742  12.254  19.250  0.00  0.00    +0.000 C 
ATOM     35  O   UNL     1      -4.635  13.131  20.365  0.00  0.00    +0.000 OA
ENDBRANCH  28  35
BRANCH  33  36
ATOM     36  O   UNL     1      -5.496  12.729  23.168  0.00  0.00    +0.000 OA
ATOM     37  H   UNL     1      -5.560  13.521  23.727  0.00  0.00    +0.000 HD
ENDBRANCH  33  36
ENDBRANCH   1  30
BRANCH  10  38
ATOM     38  C   UNL     1       1.881  12.791  21.126  0.00  0.00    +0.000 C 
BRANCH  38  39
ATOM     39  O   UNL     1       2.414  14.030  20.661  0.00  0.00    +0.000 OA
ATOM     40  H   UNL     1       3.232  13.841  20.171  0.00  0.00    +0.000 HD
ENDBRANCH  38  39
ENDBRANCH  10  38
TORSDOF 9
ENDMDL
MODEL 7
REMARK VINA RESULT:      -7.2      1.158      1.811
REMARK  Name = 
REMARK  10 active torsions:
REMARK  status: ('A' for Active; 'I' for Inactive)
REMARK    1  A    between atoms: C_1  and  O_2
REMARK    2  A    between atoms: O_2  and  C_3
REMARK    3  A    between atoms: C_5  and  C_6
REMARK    4  A    between atoms: C_10  and  C_11
REMARK    5  A    between atoms: C_15  and  O_16
REMARK    6  A    between atoms: C_18  and  O_19
REMARK    7  A    between atoms: C_23  and  O_24
REMARK    8  A    between atoms: C_29  and  C_30
REMARK    9  A    between atoms: C_30  and  O_31
REMARK   10  A    between atoms: C_34  and  O_35
REMARK                            x       y       z     vdW  Elec       q    Type
REMARK                         _______ _______ _______ _____ _____    ______ ____
ROOT
ATOM      1  C   UNL     1       0.378  12.337  20.815  0.00  0.00    +0.000 C 
ATOM      2  O   UNL     1       0.457  10.906  21.019  0.00  0.00    +0.000 OA
ATOM      3  C   UNL     1       0.580  10.190  19.848  0.00  0.00    +0.000 A 
ATOM      4  C   UNL     1       1.381   9.037  19.791  0.00  0.00    +0.000 A 
ATOM      5  C   UNL     1       1.508   8.284  18.593  0.00  0.00    +0.000 A 
ATOM      6  C   UNL     1       0.731   8.673  17.491  0.00  0.00    +0.000 A 
ATOM      7  C   UNL     1      -0.072   9.816  17.551  0.00  0.00    +0.000 A 
ATOM      8  C   UNL     1      -0.092  10.591  18.707  0.00  0.00    +0.000 A 
ATOM      9  O   UNL     1      -0.763  11.777  18.651  0.00  0.00    +0.000 OA
ATOM     10  C   UNL     1      -0.048  12.782  19.388  0.00  0.00    +0.000 C 
ENDROOT
BRANCH   5  11
ATOM     11  C   UNL     1       2.617   7.272  18.366  0.00  0.00    +0.000 A 
ATOM     12  O   UNL     1       3.710   7.722  17.605  0.00  0.00    +0.000 OA
ATOM     13  C   UNL     1       4.646   6.751  17.293  0.00  0.00    +0.000 A 
ATOM     14  C   UNL     1       5.154   6.661  16.003  0.00  0.00    +0.000 A 
ATOM     15  C   UNL     1       6.045   5.626  15.713  0.00  0.00    +0.000 A 
ATOM     16  C   UNL     1       6.583   4.822  16.714  0.00  0.00    +0.000 A 
ATOM     17  C   UNL     1       6.075   4.923  18.004  0.00  0.00    +0.000 A 
ATOM     18  C   UNL     1       5.012   5.796  18.245  0.00  0.00    +0.000 A 
ATOM     19  C   UNL     1       3.998   5.520  19.274  0.00  0.00    +0.000 A 
ATOM     20  O   UNL     1       4.190   4.840  20.270  0.00  0.00    +0.000 OA
ATOM     21  C   UNL     1       2.647   6.067  18.951  0.00  0.00    +0.000 A 
BRANCH  15  22
ATOM     22  O   UNL     1       6.371   5.325  14.424  0.00  0.00    +0.000 OA
ATOM     23  H   UNL     1       6.172   4.383  14.278  0.00  0.00    +0.000 HD
ENDBRANCH  15  22
BRANCH  17  24
ATOM     24  O   UNL     1       6.571   4.125  18.991  0.00  0.00    +0.000 OA
ATOM     25  H   UNL     1       7.358   4.532  19.388  0.00  0.00    +0.000 HD
ENDBRANCH  17  24
BRANCH  21  26
ATOM     26  O   UNL     1       1.530   5.289  19.160  0.00  0.00    +0.000 OA
ATOM     27  H   UNL     1       0.780   5.837  18.853  0.00  0.00    +0.000 HD
ENDBRANCH  21  26
ENDBRANCH   5  11
BRANCH   1  30
ATOM     28  C   UNL     1      -2.366  12.962  23.430  0.00  0.00    +0.000 A 
ATOM     29  C   UNL     1      -1.675  12.485  22.302  0.00  0.00    +0.000 A 
ATOM     30  C   UNL     1      -0.518  13.123  21.792  0.00  0.00    +0.000 A 
ATOM     31  C   UNL     1      -0.110  14.311  22.394  0.00  0.00    +0.000 A 
ATOM     32  C   UNL     1      -0.791  14.809  23.503  0.00  0.00    +0.000 A 
ATOM     33  C   UNL     1      -1.900  14.123  24.044  0.00  0.00    +0.000 A 
BRANCH  28  35
ATOM     34  C   UNL     1      -4.724  12.688  23.809  0.00  0.00    +0.000 C 
ATOM     35  O   UNL     1      -3.406  12.153  23.807  0.00  0.00    +0.000 OA
ENDBRANCH  28  35
BRANCH  33  36
ATOM     36  O   UNL     1      -2.478  14.601  25.189  0.00  0.00    +0.000 OA
ATOM     37  H   UNL     1      -3.059  15.347  24.970  0.00  0.00    +0.000 HD
ENDBRANCH  33  36
ENDBRANCH   1  30
BRANCH  10  38
ATOM     38  C   UNL     1       1.164  13.330  18.609  0.00  0.00    +0.000 C 
BRANCH  38  39
ATOM     39  O   UNL     1       2.358  13.281  19.387  0.00  0.00    +0.000 OA
ATOM     40  H   UNL     1       2.199  12.696  20.147  0.00  0.00    +0.000 HD
ENDBRANCH  38  39
ENDBRANCH  10  38
TORSDOF 9
ENDMDL
MODEL 8
REMARK VINA RESULT:      -7.1      3.297      5.211
REMARK  Name = 
REMARK  10 active torsions:
REMARK  status: ('A' for Active; 'I' for Inactive)
REMARK    1  A    between atoms: C_1  and  O_2
REMARK    2  A    between atoms: O_2  and  C_3
REMARK    3  A    between atoms: C_5  and  C_6
REMARK    4  A    between atoms: C_10  and  C_11
REMARK    5  A    between atoms: C_15  and  O_16
REMARK    6  A    between atoms: C_18  and  O_19
REMARK    7  A    between atoms: C_23  and  O_24
REMARK    8  A    between atoms: C_29  and  C_30
REMARK    9  A    between atoms: C_30  and  O_31
REMARK   10  A    between atoms: C_34  and  O_35
REMARK                            x       y       z     vdW  Elec       q    Type
REMARK                         _______ _______ _______ _____ _____    ______ ____
ROOT
ATOM      1  C   UNL     1       0.348  12.860  18.985  0.00  0.00    +0.000 C 
ATOM      2  O   UNL     1       1.458  11.986  19.300  0.00  0.00    +0.000 OA
ATOM      3  C   UNL     1       1.092  10.874  20.027  0.00  0.00    +0.000 A 
ATOM      4  C   UNL     1       1.711   9.633  19.803  0.00  0.00    +0.000 A 
ATOM      5  C   UNL     1       1.351   8.481  20.553  0.00  0.00    +0.000 A 
ATOM      6  C   UNL     1       0.423   8.643  21.593  0.00  0.00    +0.000 A 
ATOM      7  C   UNL     1      -0.187   9.879  21.820  0.00  0.00    +0.000 A 
ATOM      8  C   UNL     1       0.111  10.962  20.999  0.00  0.00    +0.000 A 
ATOM      9  O   UNL     1      -0.632  12.094  21.164  0.00  0.00    +0.000 OA
ATOM     10  C   UNL     1      -0.907  12.694  19.887  0.00  0.00    +0.000 C 
ENDROOT
BRANCH   5  11
ATOM     11  C   UNL     1       1.705   7.070  20.120  0.00  0.00    +0.000 A 
ATOM     12  O   UNL     1       1.243   6.039  20.957  0.00  0.00    +0.000 OA
ATOM     13  C   UNL     1       1.688   4.771  20.623  0.00  0.00    +0.000 A 
ATOM     14  C   UNL     1       2.153   3.913  21.614  0.00  0.00    +0.000 A 
ATOM     15  C   UNL     1       2.655   2.669  21.228  0.00  0.00    +0.000 A 
ATOM     16  C   UNL     1       2.515   2.195  19.926  0.00  0.00    +0.000 A 
ATOM     17  C   UNL     1       2.042   3.056  18.944  0.00  0.00    +0.000 A 
ATOM     18  C   UNL     1       1.763   4.381  19.284  0.00  0.00    +0.000 A 
ATOM     19  C   UNL     1       1.928   5.482  18.323  0.00  0.00    +0.000 A 
ATOM     20  O   UNL     1       1.858   5.358  17.110  0.00  0.00    +0.000 OA
ATOM     21  C   UNL     1       2.299   6.783  18.954  0.00  0.00    +0.000 A 
BRANCH  15  22
ATOM     22  O   UNL     1       3.359   1.897  22.104  0.00  0.00    +0.000 OA
ATOM     23  H   UNL     1       4.279   1.847  21.785  0.00  0.00    +0.000 HD
ENDBRANCH  15  22
BRANCH  17  24
ATOM     24  O   UNL     1       1.924   2.618  17.659  0.00  0.00    +0.000 OA
ATOM     25  H   UNL     1       1.478   3.288  17.115  0.00  0.00    +0.000 HD
ENDBRANCH  17  24
BRANCH  21  26
ATOM     26  O   UNL     1       3.286   7.558  18.386  0.00  0.00    +0.000 OA
ATOM     27  H   UNL     1       3.324   8.363  18.940  0.00  0.00    +0.000 HD
ENDBRANCH  21  26
ENDBRANCH   5  11
BRANCH   1  30
ATOM     28  C   UNL     1       2.316  16.095  18.337  0.00  0.00    +0.000 A 
ATOM     29  C   UNL     1       1.984  14.783  18.719  0.00  0.00    +0.000 A 
ATOM     30  C   UNL     1       0.649  14.371  18.949  0.00  0.00    +0.000 A 
ATOM     31  C   UNL     1      -0.354  15.335  18.866  0.00  0.00    +0.000 A 
ATOM     32  C   UNL     1      -0.044  16.644  18.505  0.00  0.00    +0.000 A 
ATOM     33  C   UNL     1       1.284  17.023  18.208  0.00  0.00    +0.000 A 
BRANCH  28  35
ATOM     34  C   UNL     1       4.515  15.135  18.190  0.00  0.00    +0.000 C 
ATOM     35  O   UNL     1       3.653  16.262  18.085  0.00  0.00    +0.000 OA
ENDBRANCH  28  35
BRANCH  33  36
ATOM     36  O   UNL     1       1.525  18.295  17.767  0.00  0.00    +0.000 OA
ATOM     37  H   UNL     1       2.404  18.580  18.067  0.00  0.00    +0.000 HD
ENDBRANCH  33  36
ENDBRANCH   1  30
BRANCH  10  38
ATOM     38  C   UNL     1      -2.029  11.963  19.124  0.00  0.00    +0.000 C 
BRANCH  38  39
ATOM     39  O   UNL     1      -2.041  12.311  17.741  0.00  0.00    +0.000 OA
ATOM     40  H   UNL     1      -2.963  12.282  17.432  0.00  0.00    +0.000 HD
ENDBRANCH  38  39
ENDBRANCH  10  38
TORSDOF 9
ENDMDL
MODEL 9
REMARK VINA RESULT:      -7.1      3.336      4.807
REMARK  Name = 
REMARK  10 active torsions:
REMARK  status: ('A' for Active; 'I' for Inactive)
REMARK    1  A    between atoms: C_1  and  O_2
REMARK    2  A    between atoms: O_2  and  C_3
REMARK    3  A    between atoms: C_5  and  C_6
REMARK    4  A    between atoms: C_10  and  C_11
REMARK    5  A    between atoms: C_15  and  O_16
REMARK    6  A    between atoms: C_18  and  O_19
REMARK    7  A    between atoms: C_23  and  O_24
REMARK    8  A    between atoms: C_29  and  C_30
REMARK    9  A    between atoms: C_30  and  O_31
REMARK   10  A    between atoms: C_34  and  O_35
REMARK                            x       y       z     vdW  Elec       q    Type
REMARK                         _______ _______ _______ _____ _____    ______ ____
ROOT
ATOM      1  C   UNL     1       0.445  12.101  18.980  0.00  0.00    +0.000 C 
ATOM      2  O   UNL     1       1.566  11.247  19.312  0.00  0.00    +0.000 OA
ATOM      3  C   UNL     1       1.195  10.065  19.916  0.00  0.00    +0.000 A 
ATOM      4  C   UNL     1       1.885   8.872  19.644  0.00  0.00    +0.000 A 
ATOM      5  C   UNL     1       1.520   7.648  20.268  0.00  0.00    +0.000 A 
ATOM      6  C   UNL     1       0.508   7.687  21.240  0.00  0.00    +0.000 A 
ATOM      7  C   UNL     1      -0.172   8.876  21.516  0.00  0.00    +0.000 A 
ATOM      8  C   UNL     1       0.140  10.034  20.810  0.00  0.00    +0.000 A 
ATOM      9  O   UNL     1      -0.664  11.120  21.006  0.00  0.00    +0.000 OA
ATOM     10  C   UNL     1      -0.866  11.813  19.763  0.00  0.00    +0.000 C 
ENDROOT
BRANCH   5  11
ATOM     11  C   UNL     1       1.968   6.292  19.753  0.00  0.00    +0.000 A 
ATOM     12  O   UNL     1       2.056   5.270  20.715  0.00  0.00    +0.000 OA
ATOM     13  C   UNL     1       2.595   4.080  20.256  0.00  0.00    +0.000 A 
ATOM     14  C   UNL     1       3.547   3.409  21.014  0.00  0.00    +0.000 A 
ATOM     15  C   UNL     1       4.114   2.248  20.486  0.00  0.00    +0.000 A 
ATOM     16  C   UNL     1       3.612   1.646  19.335  0.00  0.00    +0.000 A 
ATOM     17  C   UNL     1       2.653   2.320  18.588  0.00  0.00    +0.000 A 
ATOM     18  C   UNL     1       2.257   3.597  18.990  0.00  0.00    +0.000 A 
ATOM     19  C   UNL     1       1.840   4.622  18.022  0.00  0.00    +0.000 A 
ATOM     20  O   UNL     1       1.363   4.384  16.923  0.00  0.00    +0.000 OA
ATOM     21  C   UNL     1       2.145   6.019  18.453  0.00  0.00    +0.000 A 
BRANCH  15  22
ATOM     22  O   UNL     1       5.227   1.695  21.048  0.00  0.00    +0.000 OA
ATOM     23  H   UNL     1       5.355   0.814  20.652  0.00  0.00    +0.000 HD
ENDBRANCH  15  22
BRANCH  17  24
ATOM     24  O   UNL     1       2.170   1.758  17.444  0.00  0.00    +0.000 OA
ATOM     25  H   UNL     1       2.509   2.233  16.668  0.00  0.00    +0.000 HD
ENDBRANCH  17  24
BRANCH  21  26
ATOM     26  O   UNL     1       2.684   6.908  17.550  0.00  0.00    +0.000 OA
ATOM     27  H   UNL     1       1.965   7.086  16.912  0.00  0.00    +0.000 HD
ENDBRANCH  21  26
ENDBRANCH   5  11
BRANCH   1  30
ATOM     28  C   UNL     1       2.349  15.436  18.879  0.00  0.00    +0.000 A 
ATOM     29  C   UNL     1       2.016  14.091  19.117  0.00  0.00    +0.000 A 
ATOM     30  C   UNL     1       0.681  13.620  19.089  0.00  0.00    +0.000 A 
ATOM     31  C   UNL     1      -0.335  14.553  18.895  0.00  0.00    +0.000 A 
ATOM     32  C   UNL     1      -0.027  15.894  18.673  0.00  0.00    +0.000 A 
ATOM     33  C   UNL     1       1.313  16.336  18.633  0.00  0.00    +0.000 A 
BRANCH  28  35
ATOM     34  C   UNL     1       4.464  15.214  17.759  0.00  0.00    +0.000 C 
ATOM     35  O   UNL     1       3.700  15.664  18.871  0.00  0.00    +0.000 OA
ENDBRANCH  28  35
BRANCH  33  36
ATOM     36  O   UNL     1       1.569  17.642  18.319  0.00  0.00    +0.000 OA
ATOM     37  H   UNL     1       0.945  17.939  17.636  0.00  0.00    +0.000 HD
ENDBRANCH  33  36
ENDBRANCH   1  30
BRANCH  10  38
ATOM     38  C   UNL     1      -1.892  11.105  18.857  0.00  0.00    +0.000 C 
BRANCH  38  39
ATOM     39  O   UNL     1      -1.310  10.688  17.623  0.00  0.00    +0.000 OA
ATOM     40  H   UNL     1      -2.010  10.674  16.949  0.00  0.00    +0.000 HD
ENDBRANCH  38  39
ENDBRANCH  10  38
TORSDOF 9
ENDMDL
