MODEL 1
REMARK VINA RESULT:      -7.9      0.000      0.000
REMARK  Name = 
REMARK  4 active torsions:
REMARK  status: ('A' for Active; 'I' for Inactive)
REMARK    1  A    between atoms: C_2  and  O_3
REMARK    2  A    between atoms: C_2  and  C_4
REMARK    3  A    between atoms: C_7  and  C_8
REMARK    4  A    between atoms: C_8  and  N_9
REMARK                            x       y       z     vdW  Elec       q    Type
REMARK                         _______ _______ _______ _____ _____    ______ ____
ROOT
ATOM      1  N   UNL     1       2.584   5.872  18.361  0.00  0.00    +0.000 N 
ATOM      2  C   UNL     1       2.254   6.823  19.346  0.00  0.00    +0.000 C 
ATOM      3  N   UNL     1       2.123   8.118  19.295  0.00  0.00    +0.000 NA
ATOM      4  C   UNL     1       1.529   8.399  20.653  0.00  0.00    +0.000 C 
ATOM      5  C   UNL     1       0.923   7.054  21.130  0.00  0.00    +0.000 C 
ATOM      6  N   UNL     1       1.908   6.181  20.537  0.00  0.00    +0.000 N 
ATOM      7  C   UNL     1       1.689   4.849  20.236  0.00  0.00    +0.000 A 
ATOM      8  C   UNL     1       1.371   3.775  21.030  0.00  0.00    +0.000 A 
ATOM      9  C   UNL     1       1.133   2.554  20.393  0.00  0.00    +0.000 A 
ATOM     10  C   UNL     1       1.145   2.459  18.986  0.00  0.00    +0.000 A 
ATOM     11  C   UNL     1       1.575   3.533  18.203  0.00  0.00    +0.000 A 
ATOM     12  C   UNL     1       1.962   4.676  18.865  0.00  0.00    +0.000 A 
ENDROOT
BRANCH   1  13
ATOM     13  C   UNL     1       4.061   5.701  18.351  0.00  0.00    +0.000 C 
BRANCH  13  17
ATOM     14  C   UNL     1       6.130   4.768  14.687  0.00  0.00    +0.000 A 
ATOM     15  C   UNL     1       5.726   6.083  14.950  0.00  0.00    +0.000 A 
ATOM     16  C   UNL     1       5.002   6.372  16.107  0.00  0.00    +0.000 A 
ATOM     17  C   UNL     1       4.712   5.359  17.029  0.00  0.00    +0.000 A 
ATOM     18  C   UNL     1       5.153   4.046  16.772  0.00  0.00    +0.000 A 
ATOM     19  C   UNL     1       5.856   3.746  15.606  0.00  0.00    +0.000 A 
BRANCH  14  21
ATOM     20  O   UNL     1       7.763   5.267  13.032  0.00  0.00    +0.000 OA
ATOM     21  C   UNL     1       6.918   4.505  13.463  0.00  0.00    +0.000 C 
BRANCH  21  22
ATOM     22  O   UNL     1       6.553   3.371  12.830  0.00  0.00    +0.000 OA
ATOM     23  H   UNL     1       5.764   3.457  12.251  0.00  0.00    +0.000 HD
ENDBRANCH  21  22
ENDBRANCH  14  21
ENDBRANCH  13  17
ENDBRANCH   1  13
TORSDOF 4
ENDMDL
MODEL 2
REMARK VINA RESULT:      -7.8      0.287      1.073
REMARK  Name = 
REMARK  4 active torsions:
REMARK  status: ('A' for Active; 'I' for Inactive)
REMARK    1  A    between atoms: C_2  and  O_3
REMARK    2  A    between atoms: C_2  and  C_4
REMARK    3  A    between atoms: C_7  and  C_8
REMARK    4  A    between atoms: C_8  and  N_9
REMARK                            x       y       z     vdW  Elec       q    Type
REMARK                         _______ _______ _______ _____ _____    ______ ____
ROOT
ATOM      1  N   UNL     1       2.734   5.856  18.264  0.00  0.00    +0.000 N 
ATOM      2  C   UNL     1       2.350   6.833  19.203  0.00  0.00    +0.000 C 
ATOM      3  N   UNL     1       2.219   8.126  19.109  0.00  0.00    +0.000 NA
ATOM      4  C   UNL     1       1.551   8.442  20.425  0.00  0.00    +0.000 C 
ATOM      5  C   UNL     1       0.923   7.108  20.905  0.00  0.00    +0.000 C 
ATOM      6  N   UNL     1       1.940   6.222  20.391  0.00  0.00    +0.000 N 
ATOM      7  C   UNL     1       1.741   4.882  20.115  0.00  0.00    +0.000 A 
ATOM      8  C   UNL     1       1.382   3.830  20.920  0.00  0.00    +0.000 A 
ATOM      9  C   UNL     1       1.182   2.590  20.305  0.00  0.00    +0.000 A 
ATOM     10  C   UNL     1       1.270   2.457  18.904  0.00  0.00    +0.000 A 
ATOM     11  C   UNL     1       1.740   3.510  18.116  0.00  0.00    +0.000 A 
ATOM     12  C   UNL     1       2.089   4.673  18.767  0.00  0.00    +0.000 A 
ENDROOT
BRANCH   1  13
ATOM     13  C   UNL     1       4.210   5.690  18.339  0.00  0.00    +0.000 C 
BRANCH  13  17
ATOM     14  C   UNL     1       6.051   4.566  14.608  0.00  0.00    +0.000 A 
ATOM     15  C   UNL     1       5.814   3.599  15.593  0.00  0.00    +0.000 A 
ATOM     16  C   UNL     1       5.274   3.975  16.823  0.00  0.00    +0.000 A 
ATOM     17  C   UNL     1       4.932   5.311  17.064  0.00  0.00    +0.000 A 
ATOM     18  C   UNL     1       5.143   6.269  16.054  0.00  0.00    +0.000 A 
ATOM     19  C   UNL     1       5.704   5.905  14.832  0.00  0.00    +0.000 A 
BRANCH  14  21
ATOM     20  O   UNL     1       7.377   4.788  12.646  0.00  0.00    +0.000 OA
ATOM     21  C   UNL     1       6.600   4.124  13.307  0.00  0.00    +0.000 C 
BRANCH  21  22
ATOM     22  O   UNL     1       6.093   2.946  12.889  0.00  0.00    +0.000 OA
ATOM     23  H   UNL     1       5.115   2.876  12.940  0.00  0.00    +0.000 HD
ENDBRANCH  21  22
ENDBRANCH  14  21
ENDBRANCH  13  17
ENDBRANCH   1  13
TORSDOF 4
ENDMDL
MODEL 3
REMARK VINA RESULT:      -7.7      1.332      1.872
REMARK  Name = 
REMARK  4 active torsions:
REMARK  status: ('A' for Active; 'I' for Inactive)
REMARK    1  A    between atoms: C_2  and  O_3
REMARK    2  A    between atoms: C_2  and  C_4
REMARK    3  A    between atoms: C_7  and  C_8
REMARK    4  A    between atoms: C_8  and  N_9
REMARK                            x       y       z     vdW  Elec       q    Type
REMARK                         _______ _______ _______ _____ _____    ______ ____
ROOT
ATOM      1  N   UNL     1       3.284   4.563  17.742  0.00  0.00    +0.000 N 
ATOM      2  C   UNL     1       3.255   5.942  18.027  0.00  0.00    +0.000 C 
ATOM      3  N   UNL     1       3.348   6.990  17.257  0.00  0.00    +0.000 NA
ATOM      4  C   UNL     1       2.990   8.088  18.229  0.00  0.00    +0.000 C 
ATOM      5  C   UNL     1       2.222   7.392  19.382  0.00  0.00    +0.000 C 
ATOM      6  N   UNL     1       2.955   6.149  19.375  0.00  0.00    +0.000 N 
ATOM      7  C   UNL     1       2.469   4.954  19.874  0.00  0.00    +0.000 A 
ATOM      8  C   UNL     1       2.071   4.589  21.136  0.00  0.00    +0.000 A 
ATOM      9  C   UNL     1       1.542   3.304  21.296  0.00  0.00    +0.000 A 
ATOM     10  C   UNL     1       1.359   2.456  20.185  0.00  0.00    +0.000 A 
ATOM     11  C   UNL     1       1.868   2.803  18.931  0.00  0.00    +0.000 A 
ATOM     12  C   UNL     1       2.531   4.006  18.835  0.00  0.00    +0.000 A 
ENDROOT
BRANCH   1  13
ATOM     13  C   UNL     1       4.695   4.099  17.820  0.00  0.00    +0.000 C 
BRANCH  13  17
ATOM     14  C   UNL     1       7.028   4.845  14.274  0.00  0.00    +0.000 A 
ATOM     15  C   UNL     1       5.855   4.084  14.195  0.00  0.00    +0.000 A 
ATOM     16  C   UNL     1       5.134   3.792  15.353  0.00  0.00    +0.000 A 
ATOM     17  C   UNL     1       5.558   4.290  16.592  0.00  0.00    +0.000 A 
ATOM     18  C   UNL     1       6.719   5.083  16.654  0.00  0.00    +0.000 A 
ATOM     19  C   UNL     1       7.457   5.359  15.505  0.00  0.00    +0.000 A 
BRANCH  14  21
ATOM     20  O   UNL     1       7.472   4.661  11.945  0.00  0.00    +0.000 OA
ATOM     21  C   UNL     1       7.750   5.157  13.021  0.00  0.00    +0.000 C 
BRANCH  21  22
ATOM     22  O   UNL     1       8.796   5.988  13.204  0.00  0.00    +0.000 OA
ATOM     23  H   UNL     1       9.633   5.548  13.469  0.00  0.00    +0.000 HD
ENDBRANCH  21  22
ENDBRANCH  14  21
ENDBRANCH  13  17
ENDBRANCH   1  13
TORSDOF 4
ENDMDL
MODEL 4
REMARK VINA RESULT:      -7.6      4.470      6.998
REMARK  Name = 
REMARK  4 active torsions:
REMARK  status: ('A' for Active; 'I' for Inactive)
REMARK    1  A    between atoms: C_2  and  O_3
REMARK    2  A    between atoms: C_2  and  C_4
REMARK    3  A    between atoms: C_7  and  C_8
REMARK    4  A    between atoms: C_8  and  N_9
REMARK                            x       y       z     vdW  Elec       q    Type
REMARK                         _______ _______ _______ _____ _____    ______ ____
ROOT
ATOM      1  N   UNL     1       3.209   6.212  18.982  0.00  0.00    +0.000 N 
ATOM      2  C   UNL     1       4.143   5.839  17.996  0.00  0.00    +0.000 C 
ATOM      3  N   UNL     1       5.327   6.299  17.702  0.00  0.00    +0.000 NA
ATOM      4  C   UNL     1       5.800   5.259  16.716  0.00  0.00    +0.000 C 
ATOM      5  C   UNL     1       4.926   4.006  16.979  0.00  0.00    +0.000 C 
ATOM      6  N   UNL     1       3.706   4.694  17.327  0.00  0.00    +0.000 N 
ATOM      7  C   UNL     1       2.687   4.144  18.082  0.00  0.00    +0.000 A 
ATOM      8  C   UNL     1       1.884   3.050  17.869  0.00  0.00    +0.000 A 
ATOM      9  C   UNL     1       0.987   2.705  18.884  0.00  0.00    +0.000 A 
ATOM     10  C   UNL     1       0.972   3.411  20.105  0.00  0.00    +0.000 A 
ATOM     11  C   UNL     1       1.717   4.582  20.260  0.00  0.00    +0.000 A 
ATOM     12  C   UNL     1       2.470   4.994  19.183  0.00  0.00    +0.000 A 
ENDROOT
BRANCH   1  13
ATOM     13  C   UNL     1       2.313   7.251  18.409  0.00  0.00    +0.000 C 
BRANCH  13  17
ATOM     14  C   UNL     1       0.459  10.069  21.091  0.00  0.00    +0.000 A 
ATOM     15  C   UNL     1       0.563  10.364  19.726  0.00  0.00    +0.000 A 
ATOM     16  C   UNL     1       1.218   9.479  18.870  0.00  0.00    +0.000 A 
ATOM     17  C   UNL     1       1.739   8.276  19.363  0.00  0.00    +0.000 A 
ATOM     18  C   UNL     1       1.597   7.973  20.731  0.00  0.00    +0.000 A 
ATOM     19  C   UNL     1       0.965   8.864  21.596  0.00  0.00    +0.000 A 
BRANCH  14  21
ATOM     20  O   UNL     1      -0.750  12.062  21.562  0.00  0.00    +0.000 OA
ATOM     21  C   UNL     1      -0.266  11.020  21.963  0.00  0.00    +0.000 C 
BRANCH  21  22
ATOM     22  O   UNL     1      -0.271  10.653  23.261  0.00  0.00    +0.000 OA
ATOM     23  H   UNL     1       0.541  10.890  23.760  0.00  0.00    +0.000 HD
ENDBRANCH  21  22
ENDBRANCH  14  21
ENDBRANCH  13  17
ENDBRANCH   1  13
TORSDOF 4
ENDMDL
MODEL 5
REMARK VINA RESULT:      -7.6      1.311      1.626
REMARK  Name = 
REMARK  4 active torsions:
REMARK  status: ('A' for Active; 'I' for Inactive)
REMARK    1  A    between atoms: C_2  and  O_3
REMARK    2  A    between atoms: C_2  and  C_4
REMARK    3  A    between atoms: C_7  and  C_8
REMARK    4  A    between atoms: C_8  and  N_9
REMARK                            x       y       z     vdW  Elec       q    Type
REMARK                         _______ _______ _______ _____ _____    ______ ____
ROOT
ATOM      1  N   UNL     1       3.153   4.406  17.924  0.00  0.00    +0.000 N 
ATOM      2  C   UNL     1       3.094   5.782  18.222  0.00  0.00    +0.000 C 
ATOM      3  N   UNL     1       3.075   6.836  17.456  0.00  0.00    +0.000 NA
ATOM      4  C   UNL     1       2.762   7.914  18.465  0.00  0.00    +0.000 C 
ATOM      5  C   UNL     1       2.130   7.182  19.677  0.00  0.00    +0.000 C 
ATOM      6  N   UNL     1       2.909   5.969  19.593  0.00  0.00    +0.000 N 
ATOM      7  C   UNL     1       2.519   4.753  20.124  0.00  0.00    +0.000 A 
ATOM      8  C   UNL     1       2.251   4.366  21.413  0.00  0.00    +0.000 A 
ATOM      9  C   UNL     1       1.792   3.060  21.610  0.00  0.00    +0.000 A 
ATOM     10  C   UNL     1       1.543   2.211  20.512  0.00  0.00    +0.000 A 
ATOM     11  C   UNL     1       1.922   2.584  19.221  0.00  0.00    +0.000 A 
ATOM     12  C   UNL     1       2.525   3.814  19.075  0.00  0.00    +0.000 A 
ENDROOT
BRANCH   1  13
ATOM     13  C   UNL     1       4.583   4.000  17.871  0.00  0.00    +0.000 C 
BRANCH  13  17
ATOM     14  C   UNL     1       6.921   4.878  14.358  0.00  0.00    +0.000 A 
ATOM     15  C   UNL     1       7.440   5.144  15.631  0.00  0.00    +0.000 A 
ATOM     16  C   UNL     1       6.659   4.917  16.764  0.00  0.00    +0.000 A 
ATOM     17  C   UNL     1       5.369   4.386  16.637  0.00  0.00    +0.000 A 
ATOM     18  C   UNL     1       4.870   4.090  15.354  0.00  0.00    +0.000 A 
ATOM     19  C   UNL     1       5.636   4.337  14.216  0.00  0.00    +0.000 A 
BRANCH  14  21
ATOM     20  O   UNL     1       8.730   5.879  13.183  0.00  0.00    +0.000 OA
ATOM     21  C   UNL     1       7.789   5.107  13.182  0.00  0.00    +0.000 C 
BRANCH  21  22
ATOM     22  O   UNL     1       7.387   4.432  12.086  0.00  0.00    +0.000 OA
ATOM     23  H   UNL     1       7.101   3.507  12.252  0.00  0.00    +0.000 HD
ENDBRANCH  21  22
ENDBRANCH  14  21
ENDBRANCH  13  17
ENDBRANCH   1  13
TORSDOF 4
ENDMDL
MODEL 6
REMARK VINA RESULT:      -7.6      4.151      6.949
REMARK  Name = 
REMARK  4 active torsions:
REMARK  status: ('A' for Active; 'I' for Inactive)
REMARK    1  A    between atoms: C_2  and  O_3
REMARK    2  A    between atoms: C_2  and  C_4
REMARK    3  A    between atoms: C_7  and  C_8
REMARK    4  A    between atoms: C_8  and  N_9
REMARK                            x       y       z     vdW  Elec       q    Type
REMARK                         _______ _______ _______ _____ _____    ______ ____
ROOT
ATOM      1  N   UNL     1       3.005   5.875  17.969  0.00  0.00    +0.000 N 
ATOM      2  C   UNL     1       2.739   4.494  18.050  0.00  0.00    +0.000 C 
ATOM      3  N   UNL     1       1.656   3.803  17.831  0.00  0.00    +0.000 NA
ATOM      4  C   UNL     1       2.200   2.396  17.879  0.00  0.00    +0.000 C 
ATOM      5  C   UNL     1       3.724   2.530  17.626  0.00  0.00    +0.000 C 
ATOM      6  N   UNL     1       3.919   3.791  18.301  0.00  0.00    +0.000 N 
ATOM      7  C   UNL     1       4.970   4.654  18.053  0.00  0.00    +0.000 A 
ATOM      8  C   UNL     1       6.328   4.497  18.181  0.00  0.00    +0.000 A 
ATOM      9  C   UNL     1       7.140   5.555  17.762  0.00  0.00    +0.000 A 
ATOM     10  C   UNL     1       6.579   6.700  17.160  0.00  0.00    +0.000 A 
ATOM     11  C   UNL     1       5.195   6.888  17.136  0.00  0.00    +0.000 A 
ATOM     12  C   UNL     1       4.419   5.902  17.706  0.00  0.00    +0.000 A 
ENDROOT
BRANCH   1  13
ATOM     13  C   UNL     1       2.732   6.482  19.299  0.00  0.00    +0.000 C 
BRANCH  13  17
ATOM     14  C   UNL     1       0.532  10.189  19.305  0.00  0.00    +0.000 A 
ATOM     15  C   UNL     1       1.121   9.723  18.122  0.00  0.00    +0.000 A 
ATOM     16  C   UNL     1       1.884   8.555  18.135  0.00  0.00    +0.000 A 
ATOM     17  C   UNL     1       2.032   7.824  19.320  0.00  0.00    +0.000 A 
ATOM     18  C   UNL     1       1.408   8.282  20.496  0.00  0.00    +0.000 A 
ATOM     19  C   UNL     1       0.664   9.461  20.495  0.00  0.00    +0.000 A 
BRANCH  14  21
ATOM     20  O   UNL     1      -1.008  11.788  20.156  0.00  0.00    +0.000 OA
ATOM     21  C   UNL     1      -0.291  11.416  19.245  0.00  0.00    +0.000 C 
BRANCH  21  22
ATOM     22  O   UNL     1      -0.227  12.041  18.052  0.00  0.00    +0.000 OA
ATOM     23  H   UNL     1       0.264  11.553  17.355  0.00  0.00    +0.000 HD
ENDBRANCH  21  22
ENDBRANCH  14  21
ENDBRANCH  13  17
ENDBRANCH   1  13
TORSDOF 4
ENDMDL
MODEL 7
REMARK VINA RESULT:      -7.5      4.471      7.022
REMARK  Name = 
REMARK  4 active torsions:
REMARK  status: ('A' for Active; 'I' for Inactive)
REMARK    1  A    between atoms: C_2  and  O_3
REMARK    2  A    between atoms: C_2  and  C_4
REMARK    3  A    between atoms: C_7  and  C_8
REMARK    4  A    between atoms: C_8  and  N_9
REMARK                            x       y       z     vdW  Elec       q    Type
REMARK                         _______ _______ _______ _____ _____    ______ ____
ROOT
ATOM      1  N   UNL     1       3.322   6.209  18.942  0.00  0.00    +0.000 N 
ATOM      2  C   UNL     1       4.312   5.838  18.012  0.00  0.00    +0.000 C 
ATOM      3  N   UNL     1       5.521   6.281  17.806  0.00  0.00    +0.000 NA
ATOM      4  C   UNL     1       6.040   5.252  16.832  0.00  0.00    +0.000 C 
ATOM      5  C   UNL     1       5.129   4.010  17.012  0.00  0.00    +0.000 C 
ATOM      6  N   UNL     1       3.900   4.714  17.293  0.00  0.00    +0.000 N 
ATOM      7  C   UNL     1       2.824   4.168  17.968  0.00  0.00    +0.000 A 
ATOM      8  C   UNL     1       2.019   3.094  17.681  0.00  0.00    +0.000 A 
ATOM      9  C   UNL     1       1.051   2.746  18.628  0.00  0.00    +0.000 A 
ATOM     10  C   UNL     1       0.967   3.429  19.859  0.00  0.00    +0.000 A 
ATOM     11  C   UNL     1       1.721   4.583  20.087  0.00  0.00    +0.000 A 
ATOM     12  C   UNL     1       2.550   5.001  19.069  0.00  0.00    +0.000 A 
ENDROOT
BRANCH   1  13
ATOM     13  C   UNL     1       2.483   7.275  18.333  0.00  0.00    +0.000 C 
BRANCH  13  17
ATOM     14  C   UNL     1       0.491   9.956  21.056  0.00  0.00    +0.000 A 
ATOM     15  C   UNL     1       1.053   8.764  21.530  0.00  0.00    +0.000 A 
ATOM     16  C   UNL     1       1.643   7.868  20.638  0.00  0.00    +0.000 A 
ATOM     17  C   UNL     1       1.711   8.175  19.273  0.00  0.00    +0.000 A 
ATOM     18  C   UNL     1       1.173   9.392  18.812  0.00  0.00    +0.000 A 
ATOM     19  C   UNL     1       0.561  10.280  19.695  0.00  0.00    +0.000 A 
BRANCH  14  21
ATOM     20  O   UNL     1      -0.501  12.004  21.745  0.00  0.00    +0.000 OA
ATOM     21  C   UNL     1      -0.103  10.892  22.036  0.00  0.00    +0.000 C 
BRANCH  21  22
ATOM     22  O   UNL     1      -0.089  10.418  23.299  0.00  0.00    +0.000 OA
ATOM     23  H   UNL     1      -0.716  10.859  23.912  0.00  0.00    +0.000 HD
ENDBRANCH  21  22
ENDBRANCH  14  21
ENDBRANCH  13  17
ENDBRANCH   1  13
TORSDOF 4
ENDMDL
MODEL 8
REMARK VINA RESULT:      -7.5      4.156      6.917
REMARK  Name = 
REMARK  4 active torsions:
REMARK  status: ('A' for Active; 'I' for Inactive)
REMARK    1  A    between atoms: C_2  and  O_3
REMARK    2  A    between atoms: C_2  and  C_4
REMARK    3  A    between atoms: C_7  and  C_8
REMARK    4  A    between atoms: C_8  and  N_9
REMARK                            x       y       z     vdW  Elec       q    Type
REMARK                         _______ _______ _______ _____ _____    ______ ____
ROOT
ATOM      1  N   UNL     1       3.046   5.870  17.911  0.00  0.00    +0.000 N 
ATOM      2  C   UNL     1       2.775   4.491  18.014  0.00  0.00    +0.000 C 
ATOM      3  N   UNL     1       1.698   3.797  17.775  0.00  0.00    +0.000 NA
ATOM      4  C   UNL     1       2.238   2.391  17.873  0.00  0.00    +0.000 C 
ATOM      5  C   UNL     1       3.770   2.517  17.670  0.00  0.00    +0.000 C 
ATOM      6  N   UNL     1       3.945   3.793  18.322  0.00  0.00    +0.000 N 
ATOM      7  C   UNL     1       5.005   4.649  18.090  0.00  0.00    +0.000 A 
ATOM      8  C   UNL     1       6.358   4.493  18.269  0.00  0.00    +0.000 A 
ATOM      9  C   UNL     1       7.185   5.541  17.853  0.00  0.00    +0.000 A 
ATOM     10  C   UNL     1       6.647   6.672  17.206  0.00  0.00    +0.000 A 
ATOM     11  C   UNL     1       5.265   6.861  17.131  0.00  0.00    +0.000 A 
ATOM     12  C   UNL     1       4.468   5.889  17.696  0.00  0.00    +0.000 A 
ENDROOT
BRANCH   1  13
ATOM     13  C   UNL     1       2.729   6.508  19.217  0.00  0.00    +0.000 C 
BRANCH  13  17
ATOM     14  C   UNL     1       0.884  10.402  19.194  0.00  0.00    +0.000 A 
ATOM     15  C   UNL     1       0.857   9.620  20.355  0.00  0.00    +0.000 A 
ATOM     16  C   UNL     1       1.400   8.335  20.343  0.00  0.00    +0.000 A 
ATOM     17  C   UNL     1       2.009   7.838  19.183  0.00  0.00    +0.000 A 
ATOM     18  C   UNL     1       2.062   8.647  18.032  0.00  0.00    +0.000 A 
ATOM     19  C   UNL     1       1.500   9.922  18.030  0.00  0.00    +0.000 A 
BRANCH  14  21
ATOM     20  O   UNL     1       0.108  12.362  20.294  0.00  0.00    +0.000 OA
ATOM     21  C   UNL     1       0.322  11.769  19.253  0.00  0.00    +0.000 C 
BRANCH  21  22
ATOM     22  O   UNL     1      -0.001  12.264  18.041  0.00  0.00    +0.000 OA
ATOM     23  H   UNL     1      -0.940  12.139  17.780  0.00  0.00    +0.000 HD
ENDBRANCH  21  22
ENDBRANCH  14  21
ENDBRANCH  13  17
ENDBRANCH   1  13
TORSDOF 4
ENDMDL
MODEL 9
REMARK VINA RESULT:      -7.4      4.343      6.717
REMARK  Name = 
REMARK  4 active torsions:
REMARK  status: ('A' for Active; 'I' for Inactive)
REMARK    1  A    between atoms: C_2  and  O_3
REMARK    2  A    between atoms: C_2  and  C_4
REMARK    3  A    between atoms: C_7  and  C_8
REMARK    4  A    between atoms: C_8  and  N_9
REMARK                            x       y       z     vdW  Elec       q    Type
REMARK                         _______ _______ _______ _____ _____    ______ ____
ROOT
ATOM      1  N   UNL     1       3.986   5.983  18.695  0.00  0.00    +0.000 N 
ATOM      2  C   UNL     1       5.027   5.864  17.754  0.00  0.00    +0.000 C 
ATOM      3  N   UNL     1       6.031   6.644  17.467  0.00  0.00    +0.000 NA
ATOM      4  C   UNL     1       6.832   5.751  16.550  0.00  0.00    +0.000 C 
ATOM      5  C   UNL     1       6.360   4.306  16.858  0.00  0.00    +0.000 C 
ATOM      6  N   UNL     1       4.977   4.612  17.137  0.00  0.00    +0.000 N 
ATOM      7  C   UNL     1       4.139   3.815  17.894  0.00  0.00    +0.000 A 
ATOM      8  C   UNL     1       3.707   2.524  17.721  0.00  0.00    +0.000 A 
ATOM      9  C   UNL     1       2.913   1.971  18.730  0.00  0.00    +0.000 A 
ATOM     10  C   UNL     1       2.639   2.693  19.910  0.00  0.00    +0.000 A 
ATOM     11  C   UNL     1       2.996   4.039  20.021  0.00  0.00    +0.000 A 
ATOM     12  C   UNL     1       3.635   4.609  18.942  0.00  0.00    +0.000 A 
ENDROOT
BRANCH   1  13
ATOM     13  C   UNL     1       2.844   6.680  18.044  0.00  0.00    +0.000 C 
BRANCH  13  17
ATOM     14  C   UNL     1       0.744   9.769  20.194  0.00  0.00    +0.000 A 
ATOM     15  C   UNL     1       1.019   9.926  18.830  0.00  0.00    +0.000 A 
ATOM     16  C   UNL     1       1.752   8.953  18.150  0.00  0.00    +0.000 A 
ATOM     17  C   UNL     1       2.182   7.800  18.817  0.00  0.00    +0.000 A 
ATOM     18  C   UNL     1       1.871   7.636  20.181  0.00  0.00    +0.000 A 
ATOM     19  C   UNL     1       1.159   8.615  20.872  0.00  0.00    +0.000 A 
BRANCH  14  21
ATOM     20  O   UNL     1      -0.980  11.399  20.344  0.00  0.00    +0.000 OA
ATOM     21  C   UNL     1      -0.058  10.809  20.875  0.00  0.00    +0.000 C 
BRANCH  21  22
ATOM     22  O   UNL     1       0.382  11.091  22.118  0.00  0.00    +0.000 OA
ATOM     23  H   UNL     1       1.225  10.653  22.367  0.00  0.00    +0.000 HD
ENDBRANCH  21  22
ENDBRANCH  14  21
ENDBRANCH  13  17
ENDBRANCH   1  13
TORSDOF 4
ENDMDL
