MODEL 1
REMARK VINA RESULT:      -9.1      0.000      0.000
REMARK  Name = 
REMARK  8 active torsions:
REMARK  status: ('A' for Active; 'I' for Inactive)
REMARK    1  A    between atoms: C_1  and  O_2
REMARK    2  A    between atoms: O_2  and  C_3
REMARK    3  A    between atoms: C_9  and  C_10
REMARK    4  A    between atoms: C_10  and  C_11
REMARK    5  A    between atoms: C_11  and  O_13
REMARK    6  A    between atoms: O_13  and  C_14
REMARK    7  A    between atoms: C_24  and  C_25
REMARK    8  A    between atoms: C_27  and  C_29
REMARK                            x       y       z     vdW  Elec       q    Type
REMARK                         _______ _______ _______ _____ _____    ______ ____
ROOT
ATOM      1  C   UNL     1      -2.894  10.260  16.869  0.00  0.00    +0.000 A 
ATOM      2  C   UNL     1      -3.574  11.292  17.495  0.00  0.00    +0.000 A 
ATOM      3  C   UNL     1      -2.964  12.035  18.498  0.00  0.00    +0.000 A 
ATOM      4  C   UNL     1      -1.681  11.671  18.947  0.00  0.00    +0.000 A 
ATOM      5  C   UNL     1      -0.963  10.633  18.338  0.00  0.00    +0.000 A 
ATOM      6  C   UNL     1      -1.586   9.935  17.273  0.00  0.00    +0.000 A 
ATOM      7  C   UNL     1       0.345  10.584  18.936  0.00  0.00    +0.000 A 
ATOM      8  C   UNL     1       0.391  11.667  19.832  0.00  0.00    +0.000 A 
ATOM      9  C   UNL     1       1.539  12.240  20.608  0.00  0.00    +0.000 C 
ATOM     10  N   UNL     1      -0.888  12.235  19.946  0.00  0.00    +0.000 N 
ATOM     11  C   UNL     1      -1.297  13.263  20.859  0.00  0.00    +0.000 C 
ATOM     12  O   UNL     1      -0.433  14.021  21.297  0.00  0.00    +0.000 OA
ENDROOT
BRANCH  11  13
ATOM     13  C   UNL     1      -2.693  13.491  21.348  0.00  0.00    +0.000 A 
ATOM     14  C   UNL     1      -3.327  12.574  22.198  0.00  0.00    +0.000 A 
ATOM     15  C   UNL     1      -4.649  12.791  22.602  0.00  0.00    +0.000 A 
ATOM     16  C   UNL     1      -5.325  13.938  22.197  0.00  0.00    +0.000 A 
ATOM     17 CL   UNL     1      -6.960  14.182  22.677  0.00  0.00    +0.000 Cl
ATOM     18  C   UNL     1      -4.689  14.891  21.407  0.00  0.00    +0.000 A 
ATOM     19  C   UNL     1      -3.363  14.666  20.981  0.00  0.00    +0.000 A 
ENDBRANCH  11  13
BRANCH   1  21
ATOM     20  C   UNL     1      -3.498  10.130  14.579  0.00  0.00    +0.000 C 
ATOM     21  O   UNL     1      -3.416   9.499  15.857  0.00  0.00    +0.000 OA
ENDBRANCH   1  21
BRANCH   7  22
ATOM     22  C   UNL     1       1.534   9.752  18.471  0.00  0.00    +0.000 C 
BRANCH  22  23
ATOM     23  C   UNL     1       1.887   8.347  18.953  0.00  0.00    +0.000 C 
ATOM     24  O   UNL     1       1.933   8.144  20.176  0.00  0.00    +0.000 OA
BRANCH  23  25
ATOM     25  O   UNL     1       2.176   7.359  18.062  0.00  0.00    +0.000 OA
BRANCH  25  26
ATOM     26  C   UNL     1       2.962   6.281  18.653  0.00  0.00    +0.000 C 
ATOM     27  O   UNL     1       3.954   5.816  17.705  0.00  0.00    +0.000 OA
ATOM     28  C   UNL     1       3.767   4.514  17.347  0.00  0.00    +0.000 C 
ATOM     29  O   UNL     1       4.544   3.805  16.741  0.00  0.00    +0.000 OA
ATOM     30  C   UNL     1       2.546   4.077  18.000  0.00  0.00    +0.000 A 
ATOM     31  C   UNL     1       1.976   2.805  17.927  0.00  0.00    +0.000 A 
ATOM     32  C   UNL     1       1.093   2.444  18.940  0.00  0.00    +0.000 A 
ATOM     33  C   UNL     1       0.887   3.320  20.018  0.00  0.00    +0.000 A 
ATOM     34  C   UNL     1       1.433   4.615  20.022  0.00  0.00    +0.000 A 
ATOM     35  C   UNL     1       2.199   5.015  18.930  0.00  0.00    +0.000 A 
ENDBRANCH  25  26
ENDBRANCH  23  25
ENDBRANCH  22  23
ENDBRANCH   7  22
TORSDOF 6
ENDMDL
MODEL 2
REMARK VINA RESULT:      -8.8      0.954      1.343
REMARK  Name = 
REMARK  8 active torsions:
REMARK  status: ('A' for Active; 'I' for Inactive)
REMARK    1  A    between atoms: C_1  and  O_2
REMARK    2  A    between atoms: O_2  and  C_3
REMARK    3  A    between atoms: C_9  and  C_10
REMARK    4  A    between atoms: C_10  and  C_11
REMARK    5  A    between atoms: C_11  and  O_13
REMARK    6  A    between atoms: O_13  and  C_14
REMARK    7  A    between atoms: C_24  and  C_25
REMARK    8  A    between atoms: C_27  and  C_29
REMARK                            x       y       z     vdW  Elec       q    Type
REMARK                         _______ _______ _______ _____ _____    ______ ____
ROOT
ATOM      1  C   UNL     1      -2.883  10.200  16.839  0.00  0.00    +0.000 A 
ATOM      2  C   UNL     1      -3.619  11.291  17.274  0.00  0.00    +0.000 A 
ATOM      3  C   UNL     1      -3.213  12.021  18.384  0.00  0.00    +0.000 A 
ATOM      4  C   UNL     1      -2.101  11.587  19.130  0.00  0.00    +0.000 A 
ATOM      5  C   UNL     1      -1.334  10.489  18.721  0.00  0.00    +0.000 A 
ATOM      6  C   UNL     1      -1.733   9.802  17.546  0.00  0.00    +0.000 A 
ATOM      7  C   UNL     1      -0.210  10.372  19.612  0.00  0.00    +0.000 A 
ATOM      8  C   UNL     1      -0.303  11.475  20.481  0.00  0.00    +0.000 A 
ATOM      9  C   UNL     1       0.667  11.994  21.500  0.00  0.00    +0.000 C 
ATOM     10  N   UNL     1      -1.529  12.127  20.281  0.00  0.00    +0.000 N 
ATOM     11  C   UNL     1      -2.070  13.204  21.059  0.00  0.00    +0.000 C 
ATOM     12  O   UNL     1      -1.284  13.917  21.681  0.00  0.00    +0.000 OA
ENDROOT
BRANCH  11  13
ATOM     13  C   UNL     1      -3.523  13.536  21.199  0.00  0.00    +0.000 A 
ATOM     14  C   UNL     1      -4.054  14.720  20.670  0.00  0.00    +0.000 A 
ATOM     15  C   UNL     1      -5.407  15.027  20.856  0.00  0.00    +0.000 A 
ATOM     16  C   UNL     1      -6.239  14.138  21.530  0.00  0.00    +0.000 A 
ATOM     17 CL   UNL     1      -7.895  14.537  21.778  0.00  0.00    +0.000 Cl
ATOM     18  C   UNL     1      -5.743  12.927  22.004  0.00  0.00    +0.000 A 
ATOM     19  C   UNL     1      -4.375  12.624  21.836  0.00  0.00    +0.000 A 
ENDBRANCH  11  13
BRANCH   1  21
ATOM     20  C   UNL     1      -3.047  10.088  14.476  0.00  0.00    +0.000 C 
ATOM     21  O   UNL     1      -3.203   9.446  15.742  0.00  0.00    +0.000 OA
ENDBRANCH   1  21
BRANCH   7  22
ATOM     22  C   UNL     1       0.994   9.452  19.454  0.00  0.00    +0.000 C 
BRANCH  22  23
ATOM     23  C   UNL     1       1.830   9.281  18.189  0.00  0.00    +0.000 C 
ATOM     24  O   UNL     1       2.336  10.294  17.682  0.00  0.00    +0.000 OA
BRANCH  23  25
ATOM     25  O   UNL     1       1.986   8.055  17.619  0.00  0.00    +0.000 OA
BRANCH  25  26
ATOM     26  C   UNL     1       2.941   7.217  18.338  0.00  0.00    +0.000 C 
ATOM     27  O   UNL     1       3.875   6.621  17.405  0.00  0.00    +0.000 OA
ATOM     28  C   UNL     1       3.796   5.261  17.381  0.00  0.00    +0.000 C 
ATOM     29  O   UNL     1       4.579   4.493  16.861  0.00  0.00    +0.000 OA
ATOM     30  C   UNL     1       2.702   4.894  18.264  0.00  0.00    +0.000 A 
ATOM     31  C   UNL     1       2.270   3.599  18.554  0.00  0.00    +0.000 A 
ATOM     32  C   UNL     1       1.539   3.421  19.726  0.00  0.00    +0.000 A 
ATOM     33  C   UNL     1       1.350   4.510  20.592  0.00  0.00    +0.000 A 
ATOM     34  C   UNL     1       1.750   5.808  20.231  0.00  0.00    +0.000 A 
ATOM     35  C   UNL     1       2.352   5.996  18.990  0.00  0.00    +0.000 A 
ENDBRANCH  25  26
ENDBRANCH  23  25
ENDBRANCH  22  23
ENDBRANCH   7  22
TORSDOF 6
ENDMDL
MODEL 3
REMARK VINA RESULT:      -8.6      1.207      1.646
REMARK  Name = 
REMARK  8 active torsions:
REMARK  status: ('A' for Active; 'I' for Inactive)
REMARK    1  A    between atoms: C_1  and  O_2
REMARK    2  A    between atoms: O_2  and  C_3
REMARK    3  A    between atoms: C_9  and  C_10
REMARK    4  A    between atoms: C_10  and  C_11
REMARK    5  A    between atoms: C_11  and  O_13
REMARK    6  A    between atoms: O_13  and  C_14
REMARK    7  A    between atoms: C_24  and  C_25
REMARK    8  A    between atoms: C_27  and  C_29
REMARK                            x       y       z     vdW  Elec       q    Type
REMARK                         _______ _______ _______ _____ _____    ______ ____
ROOT
ATOM      1  C   UNL     1      -3.233  10.881  16.795  0.00  0.00    +0.000 A 
ATOM      2  C   UNL     1      -3.687  11.765  17.761  0.00  0.00    +0.000 A 
ATOM      3  C   UNL     1      -2.919  12.040  18.885  0.00  0.00    +0.000 A 
ATOM      4  C   UNL     1      -1.715  11.339  19.091  0.00  0.00    +0.000 A 
ATOM      5  C   UNL     1      -1.225  10.438  18.136  0.00  0.00    +0.000 A 
ATOM      6  C   UNL     1      -1.999  10.227  16.966  0.00  0.00    +0.000 A 
ATOM      7  C   UNL     1       0.066   9.981  18.575  0.00  0.00    +0.000 A 
ATOM      8  C   UNL     1       0.342  10.704  19.750  0.00  0.00    +0.000 A 
ATOM      9  C   UNL     1       1.600  10.799  20.561  0.00  0.00    +0.000 C 
ATOM     10  N   UNL     1      -0.801  11.417  20.141  0.00  0.00    +0.000 N 
ATOM     11  C   UNL     1      -0.982  12.159  21.354  0.00  0.00    +0.000 C 
ATOM     12  O   UNL     1       0.021  12.582  21.926  0.00  0.00    +0.000 OA
ENDROOT
BRANCH  11  13
ATOM     13  C   UNL     1      -2.295  12.458  22.008  0.00  0.00    +0.000 A 
ATOM     14  C   UNL     1      -3.276  13.220  21.358  0.00  0.00    +0.000 A 
ATOM     15  C   UNL     1      -4.476  13.522  22.012  0.00  0.00    +0.000 A 
ATOM     16  C   UNL     1      -4.718  13.033  23.292  0.00  0.00    +0.000 A 
ATOM     17 CL   UNL     1      -6.185  13.433  24.099  0.00  0.00    +0.000 Cl
ATOM     18  C   UNL     1      -3.783  12.220  23.926  0.00  0.00    +0.000 A 
ATOM     19  C   UNL     1      -2.563  11.930  23.278  0.00  0.00    +0.000 A 
ENDBRANCH  11  13
BRANCH   1  21
ATOM     20  C   UNL     1      -3.145  10.018  14.588  0.00  0.00    +0.000 C 
ATOM     21  O   UNL     1      -3.919  10.578  15.649  0.00  0.00    +0.000 OA
ENDBRANCH   1  21
BRANCH   7  22
ATOM     22  C   UNL     1       1.062   9.147  17.779  0.00  0.00    +0.000 C 
BRANCH  22  23
ATOM     23  C   UNL     1       2.207   8.322  18.361  0.00  0.00    +0.000 C 
ATOM     24  O   UNL     1       3.343   8.485  17.887  0.00  0.00    +0.000 OA
BRANCH  23  25
ATOM     25  O   UNL     1       1.977   7.413  19.347  0.00  0.00    +0.000 OA
BRANCH  25  26
ATOM     26  C   UNL     1       2.697   6.160  19.137  0.00  0.00    +0.000 C 
ATOM     27  O   UNL     1       2.424   5.651  17.809  0.00  0.00    +0.000 OA
ATOM     28  C   UNL     1       1.787   4.446  17.832  0.00  0.00    +0.000 C 
ATOM     29  O   UNL     1       1.617   3.693  16.894  0.00  0.00    +0.000 OA
ATOM     30  C   UNL     1       1.524   4.142  19.227  0.00  0.00    +0.000 A 
ATOM     31  C   UNL     1       0.899   2.997  19.723  0.00  0.00    +0.000 A 
ATOM     32  C   UNL     1       1.132   2.673  21.057  0.00  0.00    +0.000 A 
ATOM     33  C   UNL     1       2.037   3.444  21.805  0.00  0.00    +0.000 A 
ATOM     34  C   UNL     1       2.597   4.622  21.284  0.00  0.00    +0.000 A 
ATOM     35  C   UNL     1       2.242   5.013  19.996  0.00  0.00    +0.000 A 
ENDBRANCH  25  26
ENDBRANCH  23  25
ENDBRANCH  22  23
ENDBRANCH   7  22
TORSDOF 6
ENDMDL
MODEL 4
REMARK VINA RESULT:      -8.6      0.992      1.334
REMARK  Name = 
REMARK  8 active torsions:
REMARK  status: ('A' for Active; 'I' for Inactive)
REMARK    1  A    between atoms: C_1  and  O_2
REMARK    2  A    between atoms: O_2  and  C_3
REMARK    3  A    between atoms: C_9  and  C_10
REMARK    4  A    between atoms: C_10  and  C_11
REMARK    5  A    between atoms: C_11  and  O_13
REMARK    6  A    between atoms: O_13  and  C_14
REMARK    7  A    between atoms: C_24  and  C_25
REMARK    8  A    between atoms: C_27  and  C_29
REMARK                            x       y       z     vdW  Elec       q    Type
REMARK                         _______ _______ _______ _____ _____    ______ ____
ROOT
ATOM      1  C   UNL     1      -2.938  10.334  17.520  0.00  0.00    +0.000 A 
ATOM      2  C   UNL     1      -3.526  11.402  18.181  0.00  0.00    +0.000 A 
ATOM      3  C   UNL     1      -2.848  12.067  19.194  0.00  0.00    +0.000 A 
ATOM      4  C   UNL     1      -1.594  11.588  19.619  0.00  0.00    +0.000 A 
ATOM      5  C   UNL     1      -0.969  10.513  18.975  0.00  0.00    +0.000 A 
ATOM      6  C   UNL     1      -1.657   9.895  17.900  0.00  0.00    +0.000 A 
ATOM      7  C   UNL     1       0.336  10.343  19.555  0.00  0.00    +0.000 A 
ATOM      8  C   UNL     1       0.478  11.395  20.478  0.00  0.00    +0.000 A 
ATOM      9  C   UNL     1       1.677  11.854  21.254  0.00  0.00    +0.000 C 
ATOM     10  N   UNL     1      -0.749  12.061  20.621  0.00  0.00    +0.000 N 
ATOM     11  C   UNL     1      -1.064  13.094  21.565  0.00  0.00    +0.000 C 
ATOM     12  O   UNL     1      -0.138  13.768  22.012  0.00  0.00    +0.000 OA
ENDROOT
BRANCH  11  13
ATOM     13  C   UNL     1      -2.433  13.421  22.077  0.00  0.00    +0.000 A 
ATOM     14  C   UNL     1      -3.061  14.631  21.753  0.00  0.00    +0.000 A 
ATOM     15  C   UNL     1      -4.321  14.931  22.284  0.00  0.00    +0.000 A 
ATOM     16  C   UNL     1      -4.973  14.011  23.098  0.00  0.00    +0.000 A 
ATOM     17 CL   UNL     1      -6.511  14.399  23.768  0.00  0.00    +0.000 Cl
ATOM     18  C   UNL     1      -4.393  12.777  23.376  0.00  0.00    +0.000 A 
ATOM     19  C   UNL     1      -3.114  12.480  22.860  0.00  0.00    +0.000 A 
ENDBRANCH  11  13
BRANCH   1  21
ATOM     20  C   UNL     1      -3.134  10.022  15.178  0.00  0.00    +0.000 C 
ATOM     21  O   UNL     1      -3.531   9.645  16.496  0.00  0.00    +0.000 OA
ENDBRANCH   1  21
BRANCH   7  22
ATOM     22  C   UNL     1       1.449   9.430  19.055  0.00  0.00    +0.000 C 
BRANCH  22  23
ATOM     23  C   UNL     1       1.782   8.043  19.597  0.00  0.00    +0.000 C 
ATOM     24  O   UNL     1       1.472   7.786  20.771  0.00  0.00    +0.000 OA
BRANCH  23  25
ATOM     25  O   UNL     1       2.428   7.131  18.821  0.00  0.00    +0.000 OA
BRANCH  25  26
ATOM     26  C   UNL     1       2.898   5.977  19.582  0.00  0.00    +0.000 C 
ATOM     27  O   UNL     1       4.340   5.875  19.483  0.00  0.00    +0.000 OA
ATOM     28  C   UNL     1       4.743   4.727  18.869  0.00  0.00    +0.000 C 
ATOM     29  O   UNL     1       5.870   4.278  18.828  0.00  0.00    +0.000 OA
ATOM     30  C   UNL     1       3.537   4.041  18.439  0.00  0.00    +0.000 A 
ATOM     31  C   UNL     1       3.472   2.815  17.777  0.00  0.00    +0.000 A 
ATOM     32  C   UNL     1       2.269   2.117  17.847  0.00  0.00    +0.000 A 
ATOM     33  C   UNL     1       1.225   2.623  18.640  0.00  0.00    +0.000 A 
ATOM     34  C   UNL     1       1.313   3.890  19.241  0.00  0.00    +0.000 A 
ATOM     35  C   UNL     1       2.468   4.641  19.042  0.00  0.00    +0.000 A 
ENDBRANCH  25  26
ENDBRANCH  23  25
ENDBRANCH  22  23
ENDBRANCH   7  22
TORSDOF 6
ENDMDL
MODEL 5
REMARK VINA RESULT:      -8.5      2.795      3.745
REMARK  Name = 
REMARK  8 active torsions:
REMARK  status: ('A' for Active; 'I' for Inactive)
REMARK    1  A    between atoms: C_1  and  O_2
REMARK    2  A    between atoms: O_2  and  C_3
REMARK    3  A    between atoms: C_9  and  C_10
REMARK    4  A    between atoms: C_10  and  C_11
REMARK    5  A    between atoms: C_11  and  O_13
REMARK    6  A    between atoms: O_13  and  C_14
REMARK    7  A    between atoms: C_24  and  C_25
REMARK    8  A    between atoms: C_27  and  C_29
REMARK                            x       y       z     vdW  Elec       q    Type
REMARK                         _______ _______ _______ _____ _____    ______ ____
ROOT
ATOM      1  C   UNL     1       2.194  13.129  18.576  0.00  0.00    +0.000 A 
ATOM      2  C   UNL     1       1.654  13.793  19.667  0.00  0.00    +0.000 A 
ATOM      3  C   UNL     1       0.891  13.109  20.604  0.00  0.00    +0.000 A 
ATOM      4  C   UNL     1       0.584  11.752  20.390  0.00  0.00    +0.000 A 
ATOM      5  C   UNL     1       1.112  11.048  19.300  0.00  0.00    +0.000 A 
ATOM      6  C   UNL     1       1.942  11.757  18.394  0.00  0.00    +0.000 A 
ATOM      7  C   UNL     1       0.716   9.671  19.423  0.00  0.00    +0.000 A 
ATOM      8  C   UNL     1       0.029   9.584  20.648  0.00  0.00    +0.000 A 
ATOM      9  C   UNL     1      -0.460   8.387  21.407  0.00  0.00    +0.000 C 
ATOM     10  N   UNL     1      -0.177  10.874  21.161  0.00  0.00    +0.000 N 
ATOM     11  C   UNL     1      -0.958  11.230  22.311  0.00  0.00    +0.000 C 
ATOM     12  O   UNL     1      -1.130  10.374  23.177  0.00  0.00    +0.000 OA
ENDROOT
BRANCH  11  13
ATOM     13  C   UNL     1      -1.605  12.559  22.550  0.00  0.00    +0.000 A 
ATOM     14  C   UNL     1      -1.103  13.451  23.507  0.00  0.00    +0.000 A 
ATOM     15  C   UNL     1      -1.755  14.667  23.743  0.00  0.00    +0.000 A 
ATOM     16  C   UNL     1      -2.878  15.013  22.997  0.00  0.00    +0.000 A 
ATOM     17 CL   UNL     1      -3.689  16.498  23.312  0.00  0.00    +0.000 Cl
ATOM     18  C   UNL     1      -3.351  14.169  21.997  0.00  0.00    +0.000 A 
ATOM     19  C   UNL     1      -2.707  12.933  21.771  0.00  0.00    +0.000 A 
ENDBRANCH  11  13
BRANCH   1  21
ATOM     20  C   UNL     1       3.246  15.115  17.818  0.00  0.00    +0.000 C 
ATOM     21  O   UNL     1       2.976  13.727  17.623  0.00  0.00    +0.000 OA
ENDBRANCH   1  21
BRANCH   7  22
ATOM     22  C   UNL     1       1.208   8.497  18.585  0.00  0.00    +0.000 C 
BRANCH  22  23
ATOM     23  C   UNL     1       2.565   7.811  18.712  0.00  0.00    +0.000 C 
ATOM     24  O   UNL     1       3.412   8.025  17.830  0.00  0.00    +0.000 OA
BRANCH  23  25
ATOM     25  O   UNL     1       2.822   6.965  19.747  0.00  0.00    +0.000 OA
BRANCH  25  26
ATOM     26  C   UNL     1       1.866   5.865  19.826  0.00  0.00    +0.000 C 
ATOM     27  O   UNL     1       1.842   5.327  21.170  0.00  0.00    +0.000 OA
ATOM     28  C   UNL     1       2.248   4.027  21.221  0.00  0.00    +0.000 C 
ATOM     29  O   UNL     1       2.138   3.264  22.160  0.00  0.00    +0.000 OA
ATOM     30  C   UNL     1       2.658   3.668  19.875  0.00  0.00    +0.000 A 
ATOM     31  C   UNL     1       3.133   2.424  19.458  0.00  0.00    +0.000 A 
ATOM     32  C   UNL     1       3.049   2.135  18.099  0.00  0.00    +0.000 A 
ATOM     33  C   UNL     1       2.418   3.048  17.238  0.00  0.00    +0.000 A 
ATOM     34  C   UNL     1       2.008   4.314  17.690  0.00  0.00    +0.000 A 
ATOM     35  C   UNL     1       2.231   4.647  19.024  0.00  0.00    +0.000 A 
ENDBRANCH  25  26
ENDBRANCH  23  25
ENDBRANCH  22  23
ENDBRANCH   7  22
TORSDOF 6
ENDMDL
MODEL 6
REMARK VINA RESULT:      -8.5      1.216      1.683
REMARK  Name = 
REMARK  8 active torsions:
REMARK  status: ('A' for Active; 'I' for Inactive)
REMARK    1  A    between atoms: C_1  and  O_2
REMARK    2  A    between atoms: O_2  and  C_3
REMARK    3  A    between atoms: C_9  and  C_10
REMARK    4  A    between atoms: C_10  and  C_11
REMARK    5  A    between atoms: C_11  and  O_13
REMARK    6  A    between atoms: O_13  and  C_14
REMARK    7  A    between atoms: C_24  and  C_25
REMARK    8  A    between atoms: C_27  and  C_29
REMARK                            x       y       z     vdW  Elec       q    Type
REMARK                         _______ _______ _______ _____ _____    ______ ____
ROOT
ATOM      1  C   UNL     1      -2.814  10.272  17.169  0.00  0.00    +0.000 A 
ATOM      2  C   UNL     1      -3.487  11.196  17.953  0.00  0.00    +0.000 A 
ATOM      3  C   UNL     1      -2.815  11.917  18.932  0.00  0.00    +0.000 A 
ATOM      4  C   UNL     1      -1.461  11.632  19.195  0.00  0.00    +0.000 A 
ATOM      5  C   UNL     1      -0.749  10.705  18.424  0.00  0.00    +0.000 A 
ATOM      6  C   UNL     1      -1.444  10.032  17.388  0.00  0.00    +0.000 A 
ATOM      7  C   UNL     1       0.624  10.725  18.856  0.00  0.00    +0.000 A 
ATOM      8  C   UNL     1       0.698  11.744  19.825  0.00  0.00    +0.000 A 
ATOM      9  C   UNL     1       1.887  12.357  20.502  0.00  0.00    +0.000 C 
ATOM     10  N   UNL     1      -0.595  12.191  20.134  0.00  0.00    +0.000 N 
ATOM     11  C   UNL     1      -0.964  13.113  21.169  0.00  0.00    +0.000 C 
ATOM     12  O   UNL     1      -0.113  13.910  21.561  0.00  0.00    +0.000 OA
ENDROOT
BRANCH  11  13
ATOM     13  C   UNL     1      -2.302  13.187  21.837  0.00  0.00    +0.000 A 
ATOM     14  C   UNL     1      -3.271  14.113  21.426  0.00  0.00    +0.000 A 
ATOM     15  C   UNL     1      -4.496  14.191  22.099  0.00  0.00    +0.000 A 
ATOM     16  C   UNL     1      -4.773  13.322  23.150  0.00  0.00    +0.000 A 
ATOM     17 CL   UNL     1      -6.271  13.444  23.989  0.00  0.00    +0.000 Cl
ATOM     18  C   UNL     1      -3.848  12.353  23.528  0.00  0.00    +0.000 A 
ATOM     19  C   UNL     1      -2.604  12.285  22.865  0.00  0.00    +0.000 A 
ENDBRANCH  11  13
BRANCH   1  21
ATOM     20  C   UNL     1      -3.422  10.155  14.881  0.00  0.00    +0.000 C 
ATOM     21  O   UNL     1      -3.399   9.542  16.169  0.00  0.00    +0.000 OA
ENDBRANCH   1  21
BRANCH   7  22
ATOM     22  C   UNL     1       1.805  10.033  18.189  0.00  0.00    +0.000 C 
BRANCH  22  23
ATOM     23  C   UNL     1       2.201   8.569  18.364  0.00  0.00    +0.000 C 
ATOM     24  O   UNL     1       1.958   8.025  19.452  0.00  0.00    +0.000 OA
BRANCH  23  25
ATOM     25  O   UNL     1       2.831   7.895  17.363  0.00  0.00    +0.000 OA
BRANCH  25  26
ATOM     26  C   UNL     1       4.004   7.162  17.829  0.00  0.00    +0.000 C 
ATOM     27  O   UNL     1       5.074   7.275  16.859  0.00  0.00    +0.000 OA
ATOM     28  C   UNL     1       5.425   6.071  16.325  0.00  0.00    +0.000 C 
ATOM     29  O   UNL     1       6.408   5.829  15.654  0.00  0.00    +0.000 OA
ATOM     30  C   UNL     1       4.506   5.090  16.874  0.00  0.00    +0.000 A 
ATOM     31  C   UNL     1       4.503   3.719  16.613  0.00  0.00    +0.000 A 
ATOM     32  C   UNL     1       3.870   2.896  17.540  0.00  0.00    +0.000 A 
ATOM     33  C   UNL     1       3.352   3.458  18.718  0.00  0.00    +0.000 A 
ATOM     34  C   UNL     1       3.323   4.849  18.913  0.00  0.00    +0.000 A 
ATOM     35  C   UNL     1       3.830   5.670  17.910  0.00  0.00    +0.000 A 
ENDBRANCH  25  26
ENDBRANCH  23  25
ENDBRANCH  22  23
ENDBRANCH   7  22
TORSDOF 6
ENDMDL
MODEL 7
REMARK VINA RESULT:      -8.4      2.454      3.206
REMARK  Name = 
REMARK  8 active torsions:
REMARK  status: ('A' for Active; 'I' for Inactive)
REMARK    1  A    between atoms: C_1  and  O_2
REMARK    2  A    between atoms: O_2  and  C_3
REMARK    3  A    between atoms: C_9  and  C_10
REMARK    4  A    between atoms: C_10  and  C_11
REMARK    5  A    between atoms: C_11  and  O_13
REMARK    6  A    between atoms: O_13  and  C_14
REMARK    7  A    between atoms: C_24  and  C_25
REMARK    8  A    between atoms: C_27  and  C_29
REMARK                            x       y       z     vdW  Elec       q    Type
REMARK                         _______ _______ _______ _____ _____    ______ ____
ROOT
ATOM      1  C   UNL     1       1.786  13.494  18.748  0.00  0.00    +0.000 A 
ATOM      2  C   UNL     1       0.965  14.186  19.625  0.00  0.00    +0.000 A 
ATOM      3  C   UNL     1       0.218  13.507  20.579  0.00  0.00    +0.000 A 
ATOM      4  C   UNL     1       0.221  12.100  20.588  0.00  0.00    +0.000 A 
ATOM      5  C   UNL     1       1.038  11.367  19.717  0.00  0.00    +0.000 A 
ATOM      6  C   UNL     1       1.840  12.089  18.798  0.00  0.00    +0.000 A 
ATOM      7  C   UNL     1       0.908   9.973  20.049  0.00  0.00    +0.000 A 
ATOM      8  C   UNL     1       0.073   9.932  21.181  0.00  0.00    +0.000 A 
ATOM      9  C   UNL     1      -0.281   8.792  22.088  0.00  0.00    +0.000 C 
ATOM     10  N   UNL     1      -0.461  11.208  21.416  0.00  0.00    +0.000 N 
ATOM     11  C   UNL     1      -1.463  11.560  22.380  0.00  0.00    +0.000 C 
ATOM     12  O   UNL     1      -1.594  10.836  23.365  0.00  0.00    +0.000 OA
ENDROOT
BRANCH  11  13
ATOM     13  C   UNL     1      -2.388  12.734  22.290  0.00  0.00    +0.000 A 
ATOM     14  C   UNL     1      -3.353  12.824  21.278  0.00  0.00    +0.000 A 
ATOM     15  C   UNL     1      -4.174  13.955  21.191  0.00  0.00    +0.000 A 
ATOM     16  C   UNL     1      -4.063  14.973  22.132  0.00  0.00    +0.000 A 
ATOM     17 CL   UNL     1      -5.058  16.372  22.001  0.00  0.00    +0.000 Cl
ATOM     18  C   UNL     1      -3.156  14.870  23.182  0.00  0.00    +0.000 A 
ATOM     19  C   UNL     1      -2.313  13.741  23.262  0.00  0.00    +0.000 A 
ENDBRANCH  11  13
BRANCH   1  21
ATOM     20  C   UNL     1       3.433  15.130  18.262  0.00  0.00    +0.000 C 
ATOM     21  O   UNL     1       2.571  14.092  17.798  0.00  0.00    +0.000 OA
ENDBRANCH   1  21
BRANCH   7  22
ATOM     22  C   UNL     1       1.744   8.820  19.508  0.00  0.00    +0.000 C 
BRANCH  22  23
ATOM     23  C   UNL     1       1.951   8.478  18.035  0.00  0.00    +0.000 C 
ATOM     24  O   UNL     1       2.126   9.412  17.238  0.00  0.00    +0.000 OA
BRANCH  23  25
ATOM     25  O   UNL     1       1.910   7.186  17.610  0.00  0.00    +0.000 OA
BRANCH  25  26
ATOM     26  C   UNL     1       2.832   6.322  18.343  0.00  0.00    +0.000 C 
ATOM     27  O   UNL     1       3.749   5.684  17.422  0.00  0.00    +0.000 OA
ATOM     28  C   UNL     1       3.622   4.327  17.412  0.00  0.00    +0.000 C 
ATOM     29  O   UNL     1       4.381   3.527  16.904  0.00  0.00    +0.000 OA
ATOM     30  C   UNL     1       2.512   4.009  18.292  0.00  0.00    +0.000 A 
ATOM     31  C   UNL     1       2.033   2.733  18.594  0.00  0.00    +0.000 A 
ATOM     32  C   UNL     1       1.289   2.594  19.763  0.00  0.00    +0.000 A 
ATOM     33  C   UNL     1       1.134   3.698  20.617  0.00  0.00    +0.000 A 
ATOM     34  C   UNL     1       1.582   4.977  20.245  0.00  0.00    +0.000 A 
ATOM     35  C   UNL     1       2.197   5.131  19.005  0.00  0.00    +0.000 A 
ENDBRANCH  25  26
ENDBRANCH  23  25
ENDBRANCH  22  23
ENDBRANCH   7  22
TORSDOF 6
ENDMDL
MODEL 8
REMARK VINA RESULT:      -8.4      1.190      1.332
REMARK  Name = 
REMARK  8 active torsions:
REMARK  status: ('A' for Active; 'I' for Inactive)
REMARK    1  A    between atoms: C_1  and  O_2
REMARK    2  A    between atoms: O_2  and  C_3
REMARK    3  A    between atoms: C_9  and  C_10
REMARK    4  A    between atoms: C_10  and  C_11
REMARK    5  A    between atoms: C_11  and  O_13
REMARK    6  A    between atoms: O_13  and  C_14
REMARK    7  A    between atoms: C_24  and  C_25
REMARK    8  A    between atoms: C_27  and  C_29
REMARK                            x       y       z     vdW  Elec       q    Type
REMARK                         _______ _______ _______ _____ _____    ______ ____
ROOT
ATOM      1  C   UNL     1      -2.380  10.261  16.998  0.00  0.00    +0.000 A 
ATOM      2  C   UNL     1      -2.895  11.398  17.599  0.00  0.00    +0.000 A 
ATOM      3  C   UNL     1      -2.315  11.914  18.751  0.00  0.00    +0.000 A 
ATOM      4  C   UNL     1      -1.258  11.217  19.366  0.00  0.00    +0.000 A 
ATOM      5  C   UNL     1      -0.712  10.064  18.788  0.00  0.00    +0.000 A 
ATOM      6  C   UNL     1      -1.281   9.598  17.576  0.00  0.00    +0.000 A 
ATOM      7  C   UNL     1       0.418   9.658  19.581  0.00  0.00    +0.000 A 
ATOM      8  C   UNL     1       0.559  10.649  20.570  0.00  0.00    +0.000 A 
ATOM      9  C   UNL     1       1.652  10.877  21.571  0.00  0.00    +0.000 C 
ATOM     10  N   UNL     1      -0.546  11.514  20.528  0.00  0.00    +0.000 N 
ATOM     11  C   UNL     1      -0.855  12.564  21.454  0.00  0.00    +0.000 C 
ATOM     12  O   UNL     1       0.071  13.058  22.094  0.00  0.00    +0.000 OA
ENDROOT
BRANCH  11  13
ATOM     13  C   UNL     1      -2.221  13.112  21.730  0.00  0.00    +0.000 A 
ATOM     14  C   UNL     1      -3.160  12.385  22.475  0.00  0.00    +0.000 A 
ATOM     15  C   UNL     1      -4.445  12.901  22.678  0.00  0.00    +0.000 A 
ATOM     16  C   UNL     1      -4.781  14.156  22.178  0.00  0.00    +0.000 A 
ATOM     17 CL   UNL     1      -6.372  14.771  22.410  0.00  0.00    +0.000 Cl
ATOM     18  C   UNL     1      -3.841  14.919  21.493  0.00  0.00    +0.000 A 
ATOM     19  C   UNL     1      -2.550  14.393  21.269  0.00  0.00    +0.000 A 
ENDBRANCH  11  13
BRANCH   1  21
ATOM     20  C   UNL     1      -3.337  10.627  14.859  0.00  0.00    +0.000 C 
ATOM     21  O   UNL     1      -2.878   9.706  15.849  0.00  0.00    +0.000 OA
ENDBRANCH   1  21
BRANCH   7  22
ATOM     22  C   UNL     1       1.437   8.579  19.240  0.00  0.00    +0.000 C 
BRANCH  22  23
ATOM     23  C   UNL     1       2.297   8.524  17.981  0.00  0.00    +0.000 C 
ATOM     24  O   UNL     1       2.330   9.529  17.254  0.00  0.00    +0.000 OA
BRANCH  23  25
ATOM     25  O   UNL     1       2.979   7.393  17.654  0.00  0.00    +0.000 OA
BRANCH  25  26
ATOM     26  C   UNL     1       3.079   6.453  18.767  0.00  0.00    +0.000 C 
ATOM     27  O   UNL     1       4.467   6.279  19.142  0.00  0.00    +0.000 OA
ATOM     28  C   UNL     1       4.901   4.999  18.963  0.00  0.00    +0.000 C 
ATOM     29  O   UNL     1       5.935   4.515  19.376  0.00  0.00    +0.000 OA
ATOM     30  C   UNL     1       3.802   4.270  18.355  0.00  0.00    +0.000 A 
ATOM     31  C   UNL     1       3.796   2.919  18.006  0.00  0.00    +0.000 A 
ATOM     32  C   UNL     1       2.554   2.305  17.863  0.00  0.00    +0.000 A 
ATOM     33  C   UNL     1       1.389   3.032  18.158  0.00  0.00    +0.000 A 
ATOM     34  C   UNL     1       1.438   4.406  18.447  0.00  0.00    +0.000 A 
ATOM     35  C   UNL     1       2.678   5.041  18.445  0.00  0.00    +0.000 A 
ENDBRANCH  25  26
ENDBRANCH  23  25
ENDBRANCH  22  23
ENDBRANCH   7  22
TORSDOF 6
ENDMDL
MODEL 9
REMARK VINA RESULT:      -8.3      2.511      3.421
REMARK  Name = 
REMARK  8 active torsions:
REMARK  status: ('A' for Active; 'I' for Inactive)
REMARK    1  A    between atoms: C_1  and  O_2
REMARK    2  A    between atoms: O_2  and  C_3
REMARK    3  A    between atoms: C_9  and  C_10
REMARK    4  A    between atoms: C_10  and  C_11
REMARK    5  A    between atoms: C_11  and  O_13
REMARK    6  A    between atoms: O_13  and  C_14
REMARK    7  A    between atoms: C_24  and  C_25
REMARK    8  A    between atoms: C_27  and  C_29
REMARK                            x       y       z     vdW  Elec       q    Type
REMARK                         _______ _______ _______ _____ _____    ______ ____
ROOT
ATOM      1  C   UNL     1       2.103  13.878  18.755  0.00  0.00    +0.000 A 
ATOM      2  C   UNL     1       1.587  14.503  19.880  0.00  0.00    +0.000 A 
ATOM      3  C   UNL     1       0.841  13.787  20.808  0.00  0.00    +0.000 A 
ATOM      4  C   UNL     1       0.523  12.440  20.550  0.00  0.00    +0.000 A 
ATOM      5  C   UNL     1       1.026  11.776  19.424  0.00  0.00    +0.000 A 
ATOM      6  C   UNL     1       1.840  12.515  18.528  0.00  0.00    +0.000 A 
ATOM      7  C   UNL     1       0.627  10.396  19.505  0.00  0.00    +0.000 A 
ATOM      8  C   UNL     1      -0.035  10.267  20.740  0.00  0.00    +0.000 A 
ATOM      9  C   UNL     1      -0.514   9.044  21.464  0.00  0.00    +0.000 C 
ATOM     10  N   UNL     1      -0.226  11.537  21.304  0.00  0.00    +0.000 N 
ATOM     11  C   UNL     1      -0.981  11.854  22.481  0.00  0.00    +0.000 C 
ATOM     12  O   UNL     1      -1.140  10.968  23.319  0.00  0.00    +0.000 OA
ENDROOT
BRANCH  11  13
ATOM     13  C   UNL     1      -1.617  13.175  22.782  0.00  0.00    +0.000 A 
ATOM     14  C   UNL     1      -1.129  14.003  23.803  0.00  0.00    +0.000 A 
ATOM     15  C   UNL     1      -1.772  15.212  24.093  0.00  0.00    +0.000 A 
ATOM     16  C   UNL     1      -2.871  15.617  23.342  0.00  0.00    +0.000 A 
ATOM     17 CL   UNL     1      -3.672  17.092  23.724  0.00  0.00    +0.000 Cl
ATOM     18  C   UNL     1      -3.329  14.839  22.282  0.00  0.00    +0.000 A 
ATOM     19  C   UNL     1      -2.695  13.610  22.000  0.00  0.00    +0.000 A 
ENDBRANCH  11  13
BRANCH   1  21
ATOM     20  C   UNL     1       4.238  14.713  18.151  0.00  0.00    +0.000 C 
ATOM     21  O   UNL     1       2.867  14.508  17.809  0.00  0.00    +0.000 OA
ENDBRANCH   1  21
BRANCH   7  22
ATOM     22  C   UNL     1       1.097   9.253  18.614  0.00  0.00    +0.000 C 
BRANCH  22  23
ATOM     23  C   UNL     1       1.967   8.077  19.049  0.00  0.00    +0.000 C 
ATOM     24  O   UNL     1       2.182   7.928  20.262  0.00  0.00    +0.000 OA
BRANCH  23  25
ATOM     25  O   UNL     1       2.515   7.239  18.127  0.00  0.00    +0.000 OA
BRANCH  25  26
ATOM     26  C   UNL     1       3.208   6.107  18.735  0.00  0.00    +0.000 C 
ATOM     27  O   UNL     1       4.208   5.592  17.822  0.00  0.00    +0.000 OA
ATOM     28  C   UNL     1       3.956   4.308  17.440  0.00  0.00    +0.000 C 
ATOM     29  O   UNL     1       4.713   3.559  16.857  0.00  0.00    +0.000 OA
ATOM     30  C   UNL     1       2.684   3.941  18.036  0.00  0.00    +0.000 A 
ATOM     31  C   UNL     1       2.040   2.708  17.921  0.00  0.00    +0.000 A 
ATOM     32  C   UNL     1       1.094   2.392  18.892  0.00  0.00    +0.000 A 
ATOM     33  C   UNL     1       0.897   3.268  19.973  0.00  0.00    +0.000 A 
ATOM     34  C   UNL     1       1.522   4.525  20.017  0.00  0.00    +0.000 A 
ATOM     35  C   UNL     1       2.357   4.889  18.963  0.00  0.00    +0.000 A 
ENDBRANCH  25  26
ENDBRANCH  23  25
ENDBRANCH  22  23
ENDBRANCH   7  22
TORSDOF 6
ENDMDL
