MODEL 1
REMARK VINA RESULT:      -8.9      0.000      0.000
REMARK  Name = 
REMARK  6 active torsions:
REMARK  status: ('A' for Active; 'I' for Inactive)
REMARK    1  A    between atoms: O_1  and  C_2
REMARK    2  A    between atoms: C_2  and  C_3
REMARK    3  A    between atoms: N_10  and  C_11
REMARK    4  A    between atoms: C_11  and  C_12
REMARK    5  A    between atoms: C_20  and  O_21
REMARK    6  A    between atoms: O_21  and  C_22
REMARK                            x       y       z     vdW  Elec       q    Type
REMARK                         _______ _______ _______ _____ _____    ______ ____
ROOT
ATOM      1  C   UNL     1       6.791   4.729  16.455  0.00  0.00    +0.000 C 
ATOM      2  C   UNL     1       5.498   4.132  17.045  0.00  0.00    +0.000 C 
ATOM      3  C   UNL     1       4.261   4.934  16.650  0.00  0.00    +0.000 C 
ATOM      4  N   UNL     1       4.479   6.337  16.959  0.00  0.00    +0.000 N 
ATOM      5  C   UNL     1       3.609   7.014  17.777  0.00  0.00    +0.000 A 
ATOM      6  N   UNL     1       2.959   6.334  18.718  0.00  0.00    +0.000 NA
ATOM      7  C   UNL     1       2.096   7.004  19.468  0.00  0.00    +0.000 A 
ATOM      8  N   UNL     1       1.428   6.368  20.499  0.00  0.00    +0.000 N 
ATOM      9  N   UNL     1       1.787   8.274  19.274  0.00  0.00    +0.000 NA
ATOM     10  C   UNL     1       2.453   8.854  18.285  0.00  0.00    +0.000 A 
ATOM     11  N   UNL     1       3.438   8.311  17.577  0.00  0.00    +0.000 NA
ATOM     12  C   UNL     1       5.631   7.002  16.386  0.00  0.00    +0.000 C 
ATOM     13  C   UNL     1       6.886   6.227  16.802  0.00  0.00    +0.000 C 
ATOM     14  H   UNL     1       0.936   7.054  21.058  0.00  0.00    +0.000 HD
ENDROOT
BRANCH   1  15
ATOM     15  C   UNL     1       6.910   4.510  14.941  0.00  0.00    +0.000 C 
BRANCH  15  16
ATOM     16  O   UNL     1       7.826   5.443  14.387  0.00  0.00    +0.000 OA
ATOM     17  H   UNL     1       7.578   5.568  13.455  0.00  0.00    +0.000 HD
ENDBRANCH  15  16
ENDBRANCH   1  15
BRANCH   8  18
ATOM     18  C   UNL     1       2.142   5.338  21.226  0.00  0.00    +0.000 C 
BRANCH  18  19
ATOM     19  C   UNL     1       2.212   4.053  20.426  0.00  0.00    +0.000 A 
ATOM     20  C   UNL     1       3.433   3.383  20.248  0.00  0.00    +0.000 A 
ATOM     21  C   UNL     1       3.508   2.223  19.468  0.00  0.00    +0.000 A 
ATOM     22  C   UNL     1       2.362   1.721  18.854  0.00  0.00    +0.000 A 
ATOM     23  C   UNL     1       1.151   2.378  19.032  0.00  0.00    +0.000 A 
ATOM     24  F   UNL     1       0.050   1.904  18.433  0.00  0.00    +0.000 F 
ATOM     25  C   UNL     1       1.065   3.531  19.807  0.00  0.00    +0.000 A 
ENDBRANCH  18  19
ENDBRANCH   8  18
BRANCH  10  26
ATOM     26  O   UNL     1       2.058  10.154  17.988  0.00  0.00    +0.000 OA
BRANCH  26  27
ATOM     27  C   UNL     1       0.854  10.594  18.489  0.00  0.00    +0.000 A 
ATOM     28  C   UNL     1      -0.400  10.124  18.082  0.00  0.00    +0.000 A 
ATOM     29  F   UNL     1      -0.507   9.149  17.166  0.00  0.00    +0.000 F 
ATOM     30  C   UNL     1      -1.567  10.632  18.644  0.00  0.00    +0.000 A 
ATOM     31  F   UNL     1      -2.761  10.203  18.210  0.00  0.00    +0.000 F 
ATOM     32  C   UNL     1      -1.499  11.572  19.662  0.00  0.00    +0.000 A 
ATOM     33  F   UNL     1      -2.622  12.047  20.214  0.00  0.00    +0.000 F 
ATOM     34  C   UNL     1      -0.261  12.001  20.119  0.00  0.00    +0.000 A 
ATOM     35  F   UNL     1      -0.191  12.878  21.131  0.00  0.00    +0.000 F 
ATOM     36  C   UNL     1       0.908  11.518  19.535  0.00  0.00    +0.000 A 
ATOM     37  F   UNL     1       2.094  11.941  19.994  0.00  0.00    +0.000 F 
ENDBRANCH  26  27
ENDBRANCH  10  26
TORSDOF 6
ENDMDL
MODEL 2
REMARK VINA RESULT:      -8.9      0.781      1.128
REMARK  Name = 
REMARK  6 active torsions:
REMARK  status: ('A' for Active; 'I' for Inactive)
REMARK    1  A    between atoms: O_1  and  C_2
REMARK    2  A    between atoms: C_2  and  C_3
REMARK    3  A    between atoms: N_10  and  C_11
REMARK    4  A    between atoms: C_11  and  C_12
REMARK    5  A    between atoms: C_20  and  O_21
REMARK    6  A    between atoms: O_21  and  C_22
REMARK                            x       y       z     vdW  Elec       q    Type
REMARK                         _______ _______ _______ _____ _____    ______ ____
ROOT
ATOM      1  C   UNL     1       6.631   4.642  16.391  0.00  0.00    +0.000 C 
ATOM      2  C   UNL     1       5.328   4.069  16.982  0.00  0.00    +0.000 C 
ATOM      3  C   UNL     1       4.112   4.921  16.629  0.00  0.00    +0.000 C 
ATOM      4  N   UNL     1       4.380   6.307  16.974  0.00  0.00    +0.000 N 
ATOM      5  C   UNL     1       3.543   6.987  17.824  0.00  0.00    +0.000 A 
ATOM      6  N   UNL     1       2.885   6.301  18.755  0.00  0.00    +0.000 NA
ATOM      7  C   UNL     1       2.054   6.975  19.536  0.00  0.00    +0.000 A 
ATOM      8  N   UNL     1       1.379   6.331  20.558  0.00  0.00    +0.000 N 
ATOM      9  N   UNL     1       1.783   8.260  19.384  0.00  0.00    +0.000 NA
ATOM     10  C   UNL     1       2.454   8.847  18.402  0.00  0.00    +0.000 A 
ATOM     11  N   UNL     1       3.411   8.294  17.665  0.00  0.00    +0.000 NA
ATOM     12  C   UNL     1       5.545   6.952  16.404  0.00  0.00    +0.000 C 
ATOM     13  C   UNL     1       6.779   6.125  16.779  0.00  0.00    +0.000 C 
ATOM     14  H   UNL     1       0.917   7.016  21.144  0.00  0.00    +0.000 HD
ENDROOT
BRANCH   1  15
ATOM     15  C   UNL     1       6.723   4.463  14.870  0.00  0.00    +0.000 C 
BRANCH  15  16
ATOM     16  O   UNL     1       7.737   5.305  14.343  0.00  0.00    +0.000 OA
ATOM     17  H   UNL     1       7.382   5.707  13.531  0.00  0.00    +0.000 HD
ENDBRANCH  15  16
ENDBRANCH   1  15
BRANCH   8  18
ATOM     18  C   UNL     1       2.070   5.258  21.245  0.00  0.00    +0.000 C 
BRANCH  18  19
ATOM     19  C   UNL     1       2.088   3.996  20.407  0.00  0.00    +0.000 A 
ATOM     20  C   UNL     1       0.909   3.503  19.824  0.00  0.00    +0.000 A 
ATOM     21  C   UNL     1       0.915   2.311  19.092  0.00  0.00    +0.000 A 
ATOM     22  C   UNL     1       2.100   1.595  18.935  0.00  0.00    +0.000 A 
ATOM     23  C   UNL     1       3.270   2.082  19.506  0.00  0.00    +0.000 A 
ATOM     24  F   UNL     1       4.408   1.389  19.367  0.00  0.00    +0.000 F 
ATOM     25  C   UNL     1       3.275   3.268  20.234  0.00  0.00    +0.000 A 
ENDBRANCH  18  19
ENDBRANCH   8  18
BRANCH  10  26
ATOM     26  O   UNL     1       2.097  10.167  18.149  0.00  0.00    +0.000 OA
BRANCH  26  27
ATOM     27  C   UNL     1       0.841  10.582  18.531  0.00  0.00    +0.000 A 
ATOM     28  C   UNL     1      -0.357  10.066  18.026  0.00  0.00    +0.000 A 
ATOM     29  F   UNL     1      -0.356   9.069  17.128  0.00  0.00    +0.000 F 
ATOM     30  C   UNL     1      -1.584  10.552  18.471  0.00  0.00    +0.000 A 
ATOM     31  F   UNL     1      -2.722  10.078  17.945  0.00  0.00    +0.000 F 
ATOM     32  C   UNL     1      -1.632  11.515  19.468  0.00  0.00    +0.000 A 
ATOM     33  F   UNL     1      -2.812  11.969  19.907  0.00  0.00    +0.000 F 
ATOM     34  C   UNL     1      -0.452  11.991  20.022  0.00  0.00    +0.000 A 
ATOM     35  F   UNL     1      -0.496  12.891  21.014  0.00  0.00    +0.000 F 
ATOM     36  C   UNL     1       0.777  11.530  19.555  0.00  0.00    +0.000 A 
ATOM     37  F   UNL     1       1.905  11.997  20.106  0.00  0.00    +0.000 F 
ENDBRANCH  26  27
ENDBRANCH  10  26
TORSDOF 6
ENDMDL
MODEL 3
REMARK VINA RESULT:      -8.8      0.812      2.130
REMARK  Name = 
REMARK  6 active torsions:
REMARK  status: ('A' for Active; 'I' for Inactive)
REMARK    1  A    between atoms: O_1  and  C_2
REMARK    2  A    between atoms: C_2  and  C_3
REMARK    3  A    between atoms: N_10  and  C_11
REMARK    4  A    between atoms: C_11  and  C_12
REMARK    5  A    between atoms: C_20  and  O_21
REMARK    6  A    between atoms: O_21  and  C_22
REMARK                            x       y       z     vdW  Elec       q    Type
REMARK                         _______ _______ _______ _____ _____    ______ ____
ROOT
ATOM      1  C   UNL     1       6.789   4.744  16.596  0.00  0.00    +0.000 C 
ATOM      2  C   UNL     1       5.476   4.135  17.127  0.00  0.00    +0.000 C 
ATOM      3  C   UNL     1       4.253   4.945  16.706  0.00  0.00    +0.000 C 
ATOM      4  N   UNL     1       4.461   6.342  17.052  0.00  0.00    +0.000 N 
ATOM      5  C   UNL     1       3.562   7.002  17.854  0.00  0.00    +0.000 A 
ATOM      6  N   UNL     1       2.880   6.302  18.757  0.00  0.00    +0.000 NA
ATOM      7  C   UNL     1       1.990   6.956  19.490  0.00  0.00    +0.000 A 
ATOM      8  N   UNL     1       1.286   6.298  20.482  0.00  0.00    +0.000 N 
ATOM      9  N   UNL     1       1.688   8.230  19.313  0.00  0.00    +0.000 NA
ATOM     10  C   UNL     1       2.388   8.830  18.360  0.00  0.00    +0.000 A 
ATOM     11  N   UNL     1       3.398   8.303  17.676  0.00  0.00    +0.000 NA
ATOM     12  C   UNL     1       5.632   7.018  16.535  0.00  0.00    +0.000 C 
ATOM     13  C   UNL     1       6.871   6.234  16.978  0.00  0.00    +0.000 C 
ATOM     14  H   UNL     1       0.774   6.973  21.039  0.00  0.00    +0.000 HD
ENDROOT
BRANCH   1  15
ATOM     15  C   UNL     1       6.962   4.557  15.083  0.00  0.00    +0.000 C 
BRANCH  15  16
ATOM     16  O   UNL     1       7.854   5.536  14.572  0.00  0.00    +0.000 OA
ATOM     17  H   UNL     1       7.614   6.384  14.984  0.00  0.00    +0.000 HD
ENDBRANCH  15  16
ENDBRANCH   1  15
BRANCH   8  18
ATOM     18  C   UNL     1       1.974   5.253  21.212  0.00  0.00    +0.000 C 
BRANCH  18  19
ATOM     19  C   UNL     1       2.086   3.990  20.382  0.00  0.00    +0.000 A 
ATOM     20  C   UNL     1       0.962   3.459  19.726  0.00  0.00    +0.000 A 
ATOM     21  C   UNL     1       1.053   2.266  19.001  0.00  0.00    +0.000 A 
ATOM     22  C   UNL     1       2.267   1.588  18.924  0.00  0.00    +0.000 A 
ATOM     23  C   UNL     1       3.382   2.112  19.567  0.00  0.00    +0.000 A 
ATOM     24  F   UNL     1       4.548   1.455  19.504  0.00  0.00    +0.000 F 
ATOM     25  C   UNL     1       3.304   3.299  20.289  0.00  0.00    +0.000 A 
ENDBRANCH  18  19
ENDBRANCH   8  18
BRANCH  10  26
ATOM     26  O   UNL     1       2.004  10.137  18.077  0.00  0.00    +0.000 OA
BRANCH  26  27
ATOM     27  C   UNL     1       0.917  10.651  18.749  0.00  0.00    +0.000 A 
ATOM     28  C   UNL     1       0.992  11.571  19.800  0.00  0.00    +0.000 A 
ATOM     29  F   UNL     1       2.174  12.056  20.211  0.00  0.00    +0.000 F 
ATOM     30  C   UNL     1      -0.164  12.034  20.424  0.00  0.00    +0.000 A 
ATOM     31  F   UNL     1      -0.072  12.881  21.458  0.00  0.00    +0.000 F 
ATOM     32  C   UNL     1      -1.410  11.632  19.968  0.00  0.00    +0.000 A 
ATOM     33  F   UNL     1      -2.521  12.091  20.557  0.00  0.00    +0.000 F 
ATOM     34  C   UNL     1      -1.501  10.767  18.886  0.00  0.00    +0.000 A 
ATOM     35  F   UNL     1      -2.705  10.410  18.416  0.00  0.00    +0.000 F 
ATOM     36  C   UNL     1      -0.345  10.277  18.282  0.00  0.00    +0.000 A 
ATOM     37  F   UNL     1      -0.453   9.448  17.235  0.00  0.00    +0.000 F 
ENDBRANCH  26  27
ENDBRANCH  10  26
TORSDOF 6
ENDMDL
MODEL 4
REMARK VINA RESULT:      -8.8      4.590      7.934
REMARK  Name = 
REMARK  6 active torsions:
REMARK  status: ('A' for Active; 'I' for Inactive)
REMARK    1  A    between atoms: O_1  and  C_2
REMARK    2  A    between atoms: C_2  and  C_3
REMARK    3  A    between atoms: N_10  and  C_11
REMARK    4  A    between atoms: C_11  and  C_12
REMARK    5  A    between atoms: C_20  and  O_21
REMARK    6  A    between atoms: O_21  and  C_22
REMARK                            x       y       z     vdW  Elec       q    Type
REMARK                         _______ _______ _______ _____ _____    ______ ____
ROOT
ATOM      1  C   UNL     1       6.520   4.599  12.390  0.00  0.00    +0.000 C 
ATOM      2  C   UNL     1       7.654   5.327  13.139  0.00  0.00    +0.000 C 
ATOM      3  C   UNL     1       8.033   4.621  14.437  0.00  0.00    +0.000 C 
ATOM      4  N   UNL     1       6.834   4.388  15.226  0.00  0.00    +0.000 N 
ATOM      5  C   UNL     1       6.743   4.865  16.510  0.00  0.00    +0.000 A 
ATOM      6  N   UNL     1       7.410   5.971  16.830  0.00  0.00    +0.000 NA
ATOM      7  C   UNL     1       7.336   6.386  18.086  0.00  0.00    +0.000 A 
ATOM      8  N   UNL     1       7.963   7.558  18.470  0.00  0.00    +0.000 N 
ATOM      9  N   UNL     1       6.714   5.721  19.043  0.00  0.00    +0.000 NA
ATOM     10  C   UNL     1       6.117   4.609  18.637  0.00  0.00    +0.000 A 
ATOM     11  N   UNL     1       6.010   4.188  17.381  0.00  0.00    +0.000 NA
ATOM     12  C   UNL     1       5.744   3.646  14.628  0.00  0.00    +0.000 C 
ATOM     13  C   UNL     1       5.329   4.363  13.339  0.00  0.00    +0.000 C 
ATOM     14  H   UNL     1       7.675   7.803  19.410  0.00  0.00    +0.000 HD
ENDROOT
BRANCH   1  15
ATOM     15  C   UNL     1       6.979   3.282  11.751  0.00  0.00    +0.000 C 
BRANCH  15  16
ATOM     16  O   UNL     1       5.917   2.340  11.765  0.00  0.00    +0.000 OA
ATOM     17  H   UNL     1       5.465   2.431  12.621  0.00  0.00    +0.000 HD
ENDBRANCH  15  16
ENDBRANCH   1  15
BRANCH   8  18
ATOM     18  C   UNL     1       8.008   8.641  17.509  0.00  0.00    +0.000 C 
BRANCH  18  19
ATOM     19  C   UNL     1       8.569   9.902  18.133  0.00  0.00    +0.000 A 
ATOM     20  C   UNL     1       9.234   9.859  19.370  0.00  0.00    +0.000 A 
ATOM     21  C   UNL     1       9.708  11.030  19.970  0.00  0.00    +0.000 A 
ATOM     22  C   UNL     1       9.522  12.260  19.343  0.00  0.00    +0.000 A 
ATOM     23  C   UNL     1       8.869  12.307  18.117  0.00  0.00    +0.000 A 
ATOM     24  F   UNL     1       8.678  13.490  17.518  0.00  0.00    +0.000 F 
ATOM     25  C   UNL     1       8.395  11.148  17.510  0.00  0.00    +0.000 A 
ENDBRANCH  18  19
ENDBRANCH   8  18
BRANCH  10  26
ATOM     26  O   UNL     1       5.558   3.834  19.647  0.00  0.00    +0.000 OA
BRANCH  26  27
ATOM     27  C   UNL     1       4.185   3.780  19.735  0.00  0.00    +0.000 A 
ATOM     28  C   UNL     1       3.357   4.883  19.969  0.00  0.00    +0.000 A 
ATOM     29  F   UNL     1       3.868   6.117  20.092  0.00  0.00    +0.000 F 
ATOM     30  C   UNL     1       1.975   4.731  20.046  0.00  0.00    +0.000 A 
ATOM     31  F   UNL     1       1.199   5.790  20.315  0.00  0.00    +0.000 F 
ATOM     32  C   UNL     1       1.397   3.488  19.831  0.00  0.00    +0.000 A 
ATOM     33  F   UNL     1       0.068   3.346  19.888  0.00  0.00    +0.000 F 
ATOM     34  C   UNL     1       2.203   2.397  19.536  0.00  0.00    +0.000 A 
ATOM     35  F   UNL     1       1.645   1.204  19.286  0.00  0.00    +0.000 F 
ATOM     36  C   UNL     1       3.588   2.541  19.492  0.00  0.00    +0.000 A 
ATOM     37  F   UNL     1       4.349   1.477  19.200  0.00  0.00    +0.000 F 
ENDBRANCH  26  27
ENDBRANCH  10  26
TORSDOF 6
ENDMDL
MODEL 5
REMARK VINA RESULT:      -8.8      0.479      1.857
REMARK  Name = 
REMARK  6 active torsions:
REMARK  status: ('A' for Active; 'I' for Inactive)
REMARK    1  A    between atoms: O_1  and  C_2
REMARK    2  A    between atoms: C_2  and  C_3
REMARK    3  A    between atoms: N_10  and  C_11
REMARK    4  A    between atoms: C_11  and  C_12
REMARK    5  A    between atoms: C_20  and  O_21
REMARK    6  A    between atoms: O_21  and  C_22
REMARK                            x       y       z     vdW  Elec       q    Type
REMARK                         _______ _______ _______ _____ _____    ______ ____
ROOT
ATOM      1  C   UNL     1       6.777   4.736  16.327  0.00  0.00    +0.000 C 
ATOM      2  C   UNL     1       5.506   4.126  16.951  0.00  0.00    +0.000 C 
ATOM      3  C   UNL     1       4.253   4.924  16.602  0.00  0.00    +0.000 C 
ATOM      4  N   UNL     1       4.474   6.327  16.917  0.00  0.00    +0.000 N 
ATOM      5  C   UNL     1       3.626   6.991  17.768  0.00  0.00    +0.000 A 
ATOM      6  N   UNL     1       3.009   6.299  18.722  0.00  0.00    +0.000 NA
ATOM      7  C   UNL     1       2.166   6.957  19.504  0.00  0.00    +0.000 A 
ATOM      8  N   UNL     1       1.533   6.308  20.549  0.00  0.00    +0.000 N 
ATOM      9  N   UNL     1       1.844   8.227  19.332  0.00  0.00    +0.000 NA
ATOM     10  C   UNL     1       2.476   8.820  18.328  0.00  0.00    +0.000 A 
ATOM     11  N   UNL     1       3.442   8.289  17.585  0.00  0.00    +0.000 NA
ATOM     12  C   UNL     1       5.604   7.003  16.315  0.00  0.00    +0.000 C 
ATOM     13  C   UNL     1       6.875   6.230  16.685  0.00  0.00    +0.000 C 
ATOM     14  H   UNL     1       1.055   6.987  21.130  0.00  0.00    +0.000 HD
ENDROOT
BRANCH   1  15
ATOM     15  C   UNL     1       6.851   4.531  14.808  0.00  0.00    +0.000 C 
BRANCH  15  16
ATOM     16  O   UNL     1       6.299   3.270  14.462  0.00  0.00    +0.000 OA
ATOM     17  H   UNL     1       5.806   3.391  13.632  0.00  0.00    +0.000 HD
ENDBRANCH  15  16
ENDBRANCH   1  15
BRANCH   8  18
ATOM     18  C   UNL     1       2.274   5.276  21.244  0.00  0.00    +0.000 C 
BRANCH  18  19
ATOM     19  C   UNL     1       2.324   3.998  20.431  0.00  0.00    +0.000 A 
ATOM     20  C   UNL     1       3.539   3.323  20.227  0.00  0.00    +0.000 A 
ATOM     21  C   UNL     1       3.595   2.171  19.435  0.00  0.00    +0.000 A 
ATOM     22  C   UNL     1       2.437   1.680  18.836  0.00  0.00    +0.000 A 
ATOM     23  C   UNL     1       1.232   2.341  19.041  0.00  0.00    +0.000 A 
ATOM     24  F   UNL     1       0.119   1.878  18.456  0.00  0.00    +0.000 F 
ATOM     25  C   UNL     1       1.165   3.487  19.828  0.00  0.00    +0.000 A 
ENDBRANCH  18  19
ENDBRANCH   8  18
BRANCH  10  26
ATOM     26  O   UNL     1       2.066  10.120  18.056  0.00  0.00    +0.000 OA
BRANCH  26  27
ATOM     27  C   UNL     1       0.961  10.602  18.720  0.00  0.00    +0.000 A 
ATOM     28  C   UNL     1       1.002  11.522  19.773  0.00  0.00    +0.000 A 
ATOM     29  F   UNL     1       2.166  12.040  20.193  0.00  0.00    +0.000 F 
ATOM     30  C   UNL     1      -0.171  11.951  20.389  0.00  0.00    +0.000 A 
ATOM     31  F   UNL     1      -0.112  12.799  21.425  0.00  0.00    +0.000 F 
ATOM     32  C   UNL     1      -1.403  11.514  19.924  0.00  0.00    +0.000 A 
ATOM     33  F   UNL     1      -2.530  11.941  20.505  0.00  0.00    +0.000 F 
ATOM     34  C   UNL     1      -1.461  10.649  18.840  0.00  0.00    +0.000 A 
ATOM     35  F   UNL     1      -2.651  10.258  18.361  0.00  0.00    +0.000 F 
ATOM     36  C   UNL     1      -0.287  10.193  18.244  0.00  0.00    +0.000 A 
ATOM     37  F   UNL     1      -0.364   9.363  17.194  0.00  0.00    +0.000 F 
ENDBRANCH  26  27
ENDBRANCH  10  26
TORSDOF 6
ENDMDL
MODEL 6
REMARK VINA RESULT:      -8.8      4.668      7.861
REMARK  Name = 
REMARK  6 active torsions:
REMARK  status: ('A' for Active; 'I' for Inactive)
REMARK    1  A    between atoms: O_1  and  C_2
REMARK    2  A    between atoms: C_2  and  C_3
REMARK    3  A    between atoms: N_10  and  C_11
REMARK    4  A    between atoms: C_11  and  C_12
REMARK    5  A    between atoms: C_20  and  O_21
REMARK    6  A    between atoms: O_21  and  C_22
REMARK                            x       y       z     vdW  Elec       q    Type
REMARK                         _______ _______ _______ _____ _____    ______ ____
ROOT
ATOM      1  C   UNL     1       6.484   4.580  12.398  0.00  0.00    +0.000 C 
ATOM      2  C   UNL     1       7.623   5.311  13.137  0.00  0.00    +0.000 C 
ATOM      3  C   UNL     1       8.008   4.612  14.438  0.00  0.00    +0.000 C 
ATOM      4  N   UNL     1       6.812   4.386  15.233  0.00  0.00    +0.000 N 
ATOM      5  C   UNL     1       6.727   4.870  16.516  0.00  0.00    +0.000 A 
ATOM      6  N   UNL     1       7.398   5.977  16.825  0.00  0.00    +0.000 NA
ATOM      7  C   UNL     1       7.331   6.400  18.079  0.00  0.00    +0.000 A 
ATOM      8  N   UNL     1       7.961   7.573  18.454  0.00  0.00    +0.000 N 
ATOM      9  N   UNL     1       6.712   5.741  19.043  0.00  0.00    +0.000 NA
ATOM     10  C   UNL     1       6.112   4.627  18.647  0.00  0.00    +0.000 A 
ATOM     11  N   UNL     1       5.998   4.199  17.394  0.00  0.00    +0.000 NA
ATOM     12  C   UNL     1       5.718   3.641  14.645  0.00  0.00    +0.000 C 
ATOM     13  C   UNL     1       5.298   4.351  13.354  0.00  0.00    +0.000 C 
ATOM     14  H   UNL     1       7.678   7.824  19.394  0.00  0.00    +0.000 HD
ENDROOT
BRANCH   1  15
ATOM     15  C   UNL     1       6.939   3.259  11.765  0.00  0.00    +0.000 C 
BRANCH  15  16
ATOM     16  O   UNL     1       5.864   2.332  11.752  0.00  0.00    +0.000 OA
ATOM     17  H   UNL     1       6.253   1.441  11.790  0.00  0.00    +0.000 HD
ENDBRANCH  15  16
ENDBRANCH   1  15
BRANCH   8  18
ATOM     18  C   UNL     1       8.003   8.650  17.485  0.00  0.00    +0.000 C 
BRANCH  18  19
ATOM     19  C   UNL     1       8.568   9.914  18.099  0.00  0.00    +0.000 A 
ATOM     20  C   UNL     1       9.289   9.869  19.304  0.00  0.00    +0.000 A 
ATOM     21  C   UNL     1       9.768  11.042  19.898  0.00  0.00    +0.000 A 
ATOM     22  C   UNL     1       9.531  12.275  19.295  0.00  0.00    +0.000 A 
ATOM     23  C   UNL     1       8.823  12.324  18.100  0.00  0.00    +0.000 A 
ATOM     24  F   UNL     1       8.584  13.510  17.525  0.00  0.00    +0.000 F 
ATOM     25  C   UNL     1       8.344  11.163  17.500  0.00  0.00    +0.000 A 
ENDBRANCH  18  19
ENDBRANCH   8  18
BRANCH  10  26
ATOM     26  O   UNL     1       5.557   3.859  19.664  0.00  0.00    +0.000 OA
BRANCH  26  27
ATOM     27  C   UNL     1       4.201   3.621  19.628  0.00  0.00    +0.000 A 
ATOM     28  C   UNL     1       3.617   2.371  19.397  0.00  0.00    +0.000 A 
ATOM     29  F   UNL     1       4.373   1.277  19.225  0.00  0.00    +0.000 F 
ATOM     30  C   UNL     1       2.232   2.226  19.376  0.00  0.00    +0.000 A 
ATOM     31  F   UNL     1       1.689   1.031  19.108  0.00  0.00    +0.000 F 
ATOM     32  C   UNL     1       1.413   3.314  19.643  0.00  0.00    +0.000 A 
ATOM     33  F   UNL     1       0.083   3.170  19.639  0.00  0.00    +0.000 F 
ATOM     34  C   UNL     1       1.981   4.546  19.936  0.00  0.00    +0.000 A 
ATOM     35  F   UNL     1       1.193   5.589  20.236  0.00  0.00    +0.000 F 
ATOM     36  C   UNL     1       3.365   4.700  19.925  0.00  0.00    +0.000 A 
ATOM     37  F   UNL     1       3.894   5.897  20.216  0.00  0.00    +0.000 F 
ENDBRANCH  26  27
ENDBRANCH  10  26
TORSDOF 6
ENDMDL
MODEL 7
REMARK VINA RESULT:      -8.7      4.649      7.885
REMARK  Name = 
REMARK  6 active torsions:
REMARK  status: ('A' for Active; 'I' for Inactive)
REMARK    1  A    between atoms: O_1  and  C_2
REMARK    2  A    between atoms: C_2  and  C_3
REMARK    3  A    between atoms: N_10  and  C_11
REMARK    4  A    between atoms: C_11  and  C_12
REMARK    5  A    between atoms: C_20  and  O_21
REMARK    6  A    between atoms: O_21  and  C_22
REMARK                            x       y       z     vdW  Elec       q    Type
REMARK                         _______ _______ _______ _____ _____    ______ ____
ROOT
ATOM      1  C   UNL     1       6.483   4.571  12.398  0.00  0.00    +0.000 C 
ATOM      2  C   UNL     1       7.623   5.318  13.120  0.00  0.00    +0.000 C 
ATOM      3  C   UNL     1       8.020   4.637  14.427  0.00  0.00    +0.000 C 
ATOM      4  N   UNL     1       6.830   4.416  15.234  0.00  0.00    +0.000 N 
ATOM      5  C   UNL     1       6.751   4.916  16.510  0.00  0.00    +0.000 A 
ATOM      6  N   UNL     1       7.418   6.030  16.801  0.00  0.00    +0.000 NA
ATOM      7  C   UNL     1       7.357   6.470  18.049  0.00  0.00    +0.000 A 
ATOM      8  N   UNL     1       7.983   7.651  18.404  0.00  0.00    +0.000 N 
ATOM      9  N   UNL     1       6.748   5.821  19.026  0.00  0.00    +0.000 NA
ATOM     10  C   UNL     1       6.151   4.699  18.648  0.00  0.00    +0.000 A 
ATOM     11  N   UNL     1       6.031   4.254  17.401  0.00  0.00    +0.000 NA
ATOM     12  C   UNL     1       5.737   3.658  14.663  0.00  0.00    +0.000 C 
ATOM     13  C   UNL     1       5.304   4.349  13.365  0.00  0.00    +0.000 C 
ATOM     14  H   UNL     1       7.705   7.913  19.343  0.00  0.00    +0.000 HD
ENDROOT
BRANCH   1  15
ATOM     15  C   UNL     1       6.940   3.244  11.779  0.00  0.00    +0.000 C 
BRANCH  15  16
ATOM     16  O   UNL     1       5.859   2.325  11.748  0.00  0.00    +0.000 OA
ATOM     17  H   UNL     1       5.043   2.847  11.650  0.00  0.00    +0.000 HD
ENDBRANCH  15  16
ENDBRANCH   1  15
BRANCH   8  18
ATOM     18  C   UNL     1       8.014   8.715  17.422  0.00  0.00    +0.000 C 
BRANCH  18  19
ATOM     19  C   UNL     1       8.495  10.013  18.037  0.00  0.00    +0.000 A 
ATOM     20  C   UNL     1       8.220  11.246  17.423  0.00  0.00    +0.000 A 
ATOM     21  C   UNL     1       8.706  12.441  17.963  0.00  0.00    +0.000 A 
ATOM     22  C   UNL     1       9.476  12.419  19.125  0.00  0.00    +0.000 A 
ATOM     23  C   UNL     1       9.746  11.202  19.739  0.00  0.00    +0.000 A 
ATOM     24  F   UNL     1      10.495  11.177  20.849  0.00  0.00    +0.000 F 
ATOM     25  C   UNL     1       9.265  10.007  19.210  0.00  0.00    +0.000 A 
ENDBRANCH  18  19
ENDBRANCH   8  18
BRANCH  10  26
ATOM     26  O   UNL     1       5.606   3.941  19.679  0.00  0.00    +0.000 OA
BRANCH  26  27
ATOM     27  C   UNL     1       4.254   3.685  19.648  0.00  0.00    +0.000 A 
ATOM     28  C   UNL     1       3.687   2.419  19.458  0.00  0.00    +0.000 A 
ATOM     29  F   UNL     1       4.458   1.330  19.326  0.00  0.00    +0.000 F 
ATOM     30  C   UNL     1       2.304   2.256  19.438  0.00  0.00    +0.000 A 
ATOM     31  F   UNL     1       1.777   1.045  19.210  0.00  0.00    +0.000 F 
ATOM     32  C   UNL     1       1.470   3.341  19.666  0.00  0.00    +0.000 A 
ATOM     33  F   UNL     1       0.142   3.179  19.663  0.00  0.00    +0.000 F 
ATOM     34  C   UNL     1       2.020   4.590  19.917  0.00  0.00    +0.000 A 
ATOM     35  F   UNL     1       1.218   5.632  20.179  0.00  0.00    +0.000 F 
ATOM     36  C   UNL     1       3.403   4.762  19.905  0.00  0.00    +0.000 A 
ATOM     37  F   UNL     1       3.915   5.974  20.156  0.00  0.00    +0.000 F 
ENDBRANCH  26  27
ENDBRANCH  10  26
TORSDOF 6
ENDMDL
MODEL 8
REMARK VINA RESULT:      -8.7      4.611      7.937
REMARK  Name = 
REMARK  6 active torsions:
REMARK  status: ('A' for Active; 'I' for Inactive)
REMARK    1  A    between atoms: O_1  and  C_2
REMARK    2  A    between atoms: C_2  and  C_3
REMARK    3  A    between atoms: N_10  and  C_11
REMARK    4  A    between atoms: C_11  and  C_12
REMARK    5  A    between atoms: C_20  and  O_21
REMARK    6  A    between atoms: O_21  and  C_22
REMARK                            x       y       z     vdW  Elec       q    Type
REMARK                         _______ _______ _______ _____ _____    ______ ____
ROOT
ATOM      1  C   UNL     1       6.276   4.456  12.526  0.00  0.00    +0.000 C 
ATOM      2  C   UNL     1       7.462   5.159  13.218  0.00  0.00    +0.000 C 
ATOM      3  C   UNL     1       7.852   4.477  14.526  0.00  0.00    +0.000 C 
ATOM      4  N   UNL     1       6.669   4.319  15.357  0.00  0.00    +0.000 N 
ATOM      5  C   UNL     1       6.636   4.838  16.628  0.00  0.00    +0.000 A 
ATOM      6  N   UNL     1       7.358   5.924  16.892  0.00  0.00    +0.000 NA
ATOM      7  C   UNL     1       7.340   6.380  18.136  0.00  0.00    +0.000 A 
ATOM      8  N   UNL     1       8.025   7.536  18.465  0.00  0.00    +0.000 N 
ATOM      9  N   UNL     1       6.721   5.771  19.132  0.00  0.00    +0.000 NA
ATOM     10  C   UNL     1       6.067   4.673  18.779  0.00  0.00    +0.000 A 
ATOM     11  N   UNL     1       5.904   4.219  17.540  0.00  0.00    +0.000 NA
ATOM     12  C   UNL     1       5.532   3.605  14.815  0.00  0.00    +0.000 C 
ATOM     13  C   UNL     1       5.107   4.299  13.516  0.00  0.00    +0.000 C 
ATOM     14  H   UNL     1       7.777   7.822  19.404  0.00  0.00    +0.000 HD
ENDROOT
BRANCH   1  15
ATOM     15  C   UNL     1       6.662   3.103  11.916  0.00  0.00    +0.000 C 
BRANCH  15  16
ATOM     16  O   UNL     1       5.492   2.370  11.583  0.00  0.00    +0.000 OA
ATOM     17  H   UNL     1       5.165   2.723  10.738  0.00  0.00    +0.000 HD
ENDBRANCH  15  16
ENDBRANCH   1  15
BRANCH   8  18
ATOM     18  C   UNL     1       8.085   8.586  17.468  0.00  0.00    +0.000 C 
BRANCH  18  19
ATOM     19  C   UNL     1       8.517   9.901  18.085  0.00  0.00    +0.000 A 
ATOM     20  C   UNL     1       8.262  11.119  17.434  0.00  0.00    +0.000 A 
ATOM     21  C   UNL     1       8.704  12.330  17.979  0.00  0.00    +0.000 A 
ATOM     22  C   UNL     1       9.408  12.338  19.181  0.00  0.00    +0.000 A 
ATOM     23  C   UNL     1       9.658  11.135  19.831  0.00  0.00    +0.000 A 
ATOM     24  F   UNL     1      10.346  11.139  20.981  0.00  0.00    +0.000 F 
ATOM     25  C   UNL     1       9.221   9.925  19.299  0.00  0.00    +0.000 A 
ENDBRANCH  18  19
ENDBRANCH   8  18
BRANCH  10  26
ATOM     26  O   UNL     1       5.508   3.954  19.829  0.00  0.00    +0.000 OA
BRANCH  26  27
ATOM     27  C   UNL     1       4.138   3.814  19.861  0.00  0.00    +0.000 A 
ATOM     28  C   UNL     1       3.233   4.866  20.043  0.00  0.00    +0.000 A 
ATOM     29  F   UNL     1       3.662   6.131  20.167  0.00  0.00    +0.000 F 
ATOM     30  C   UNL     1       1.862   4.628  20.064  0.00  0.00    +0.000 A 
ATOM     31  F   UNL     1       1.011   5.640  20.284  0.00  0.00    +0.000 F 
ATOM     32  C   UNL     1       1.372   3.349  19.844  0.00  0.00    +0.000 A 
ATOM     33  F   UNL     1       0.053   3.125  19.847  0.00  0.00    +0.000 F 
ATOM     34  C   UNL     1       2.256   2.307  19.600  0.00  0.00    +0.000 A 
ATOM     35  F   UNL     1       1.785   1.078  19.345  0.00  0.00    +0.000 F 
ATOM     36  C   UNL     1       3.631   2.537  19.611  0.00  0.00    +0.000 A 
ATOM     37  F   UNL     1       4.468   1.520  19.368  0.00  0.00    +0.000 F 
ENDBRANCH  26  27
ENDBRANCH  10  26
TORSDOF 6
ENDMDL
MODEL 9
REMARK VINA RESULT:      -8.4      3.947      9.740
REMARK  Name = 
REMARK  6 active torsions:
REMARK  status: ('A' for Active; 'I' for Inactive)
REMARK    1  A    between atoms: O_1  and  C_2
REMARK    2  A    between atoms: C_2  and  C_3
REMARK    3  A    between atoms: N_10  and  C_11
REMARK    4  A    between atoms: C_11  and  C_12
REMARK    5  A    between atoms: C_20  and  O_21
REMARK    6  A    between atoms: O_21  and  C_22
REMARK                            x       y       z     vdW  Elec       q    Type
REMARK                         _______ _______ _______ _____ _____    ______ ____
ROOT
ATOM      1  C   UNL     1      -1.325  12.146  23.110  0.00  0.00    +0.000 C 
ATOM      2  C   UNL     1      -0.941  13.079  21.945  0.00  0.00    +0.000 C 
ATOM      3  C   UNL     1      -1.098  12.401  20.587  0.00  0.00    +0.000 C 
ATOM      4  N   UNL     1      -0.398  11.127  20.603  0.00  0.00    +0.000 N 
ATOM      5  C   UNL     1       0.573  10.854  19.671  0.00  0.00    +0.000 A 
ATOM      6  N   UNL     1       1.276  11.866  19.168  0.00  0.00    +0.000 NA
ATOM      7  C   UNL     1       2.179  11.580  18.242  0.00  0.00    +0.000 A 
ATOM      8  N   UNL     1       2.980  12.578  17.717  0.00  0.00    +0.000 N 
ATOM      9  N   UNL     1       2.356  10.371  17.738  0.00  0.00    +0.000 NA
ATOM     10  C   UNL     1       1.579   9.438  18.271  0.00  0.00    +0.000 A 
ATOM     11  N   UNL     1       0.753   9.597  19.300  0.00  0.00    +0.000 NA
ATOM     12  C   UNL     1      -0.748  10.156  21.619  0.00  0.00    +0.000 C 
ATOM     13  C   UNL     1      -0.563  10.813  22.991  0.00  0.00    +0.000 C 
ATOM     14  H   UNL     1       3.709  12.164  17.148  0.00  0.00    +0.000 HD
ENDROOT
BRANCH   1  15
ATOM     15  C   UNL     1      -2.837  11.904  23.204  0.00  0.00    +0.000 C 
BRANCH  15  16
ATOM     16  O   UNL     1      -3.520  13.144  23.319  0.00  0.00    +0.000 OA
ATOM     17  H   UNL     1      -3.224  13.703  22.581  0.00  0.00    +0.000 HD
ENDBRANCH  15  16
ENDBRANCH   1  15
BRANCH   8  18
ATOM     18  C   UNL     1       3.386  13.648  18.605  0.00  0.00    +0.000 C 
BRANCH  18  19
ATOM     19  C   UNL     1       2.764  14.967  18.193  0.00  0.00    +0.000 A 
ATOM     20  C   UNL     1       3.404  15.806  17.267  0.00  0.00    +0.000 A 
ATOM     21  C   UNL     1       2.855  17.046  16.924  0.00  0.00    +0.000 A 
ATOM     22  C   UNL     1       1.659  17.464  17.504  0.00  0.00    +0.000 A 
ATOM     23  C   UNL     1       1.019  16.634  18.417  0.00  0.00    +0.000 A 
ATOM     24  F   UNL     1      -0.125  17.039  18.985  0.00  0.00    +0.000 F 
ATOM     25  C   UNL     1       1.556  15.398  18.764  0.00  0.00    +0.000 A 
ENDBRANCH  18  19
ENDBRANCH   8  18
BRANCH  10  26
ATOM     26  O   UNL     1       1.664   8.185  17.674  0.00  0.00    +0.000 OA
BRANCH  26  27
ATOM     27  C   UNL     1       2.560   7.279  18.198  0.00  0.00    +0.000 A 
ATOM     28  C   UNL     1       2.339   6.514  19.348  0.00  0.00    +0.000 A 
ATOM     29  F   UNL     1       1.180   6.593  20.018  0.00  0.00    +0.000 F 
ATOM     30  C   UNL     1       3.306   5.623  19.806  0.00  0.00    +0.000 A 
ATOM     31  F   UNL     1       3.098   4.931  20.934  0.00  0.00    +0.000 F 
ATOM     32  C   UNL     1       4.481   5.441  19.090  0.00  0.00    +0.000 A 
ATOM     33  F   UNL     1       5.402   4.572  19.522  0.00  0.00    +0.000 F 
ATOM     34  C   UNL     1       4.686   6.148  17.914  0.00  0.00    +0.000 A 
ATOM     35  F   UNL     1       5.800   5.943  17.197  0.00  0.00    +0.000 F 
ATOM     36  C   UNL     1       3.733   7.064  17.472  0.00  0.00    +0.000 A 
ATOM     37  F   UNL     1       3.946   7.732  16.330  0.00  0.00    +0.000 F 
ENDBRANCH  26  27
ENDBRANCH  10  26
TORSDOF 6
ENDMDL
