MODEL 1
REMARK VINA RESULT:      -7.2      0.000      0.000
REMARK  Name = 
REMARK  3 active torsions:
REMARK  status: ('A' for Active; 'I' for Inactive)
REMARK    1  A    between atoms: C_1  and  C_2
REMARK    2  A    between atoms: C_2  and  N_3
REMARK    3  A    between atoms: C_8  and  C_9
REMARK                            x       y       z     vdW  Elec       q    Type
REMARK                         _______ _______ _______ _____ _____    ______ ____
ROOT
ATOM      1  N   UNL     1       7.485   7.039  18.050  0.00  0.00    +0.000 N 
ATOM      2  N   UNL     1       8.186   6.326  18.950  0.00  0.00    +0.000 NA
ATOM      3  N   UNL     1       7.438   5.283  19.297  0.00  0.00    +0.000 NA
ATOM      4  C   UNL     1       6.252   5.352  18.611  0.00  0.00    +0.000 A 
ATOM      5  C   UNL     1       5.129   4.514  18.615  0.00  0.00    +0.000 A 
ATOM      6  C   UNL     1       4.028   4.867  17.810  0.00  0.00    +0.000 A 
ATOM      7  C   UNL     1       4.045   6.066  17.086  0.00  0.00    +0.000 A 
ATOM      8  C   UNL     1       5.179   6.877  17.018  0.00  0.00    +0.000 A 
ATOM      9  C   UNL     1       6.256   6.488  17.811  0.00  0.00    +0.000 A 
ENDROOT
BRANCH   6  10
ATOM     10  C   UNL     1       2.815   4.000  17.841  0.00  0.00    +0.000 C 
ATOM     11  O   UNL     1       2.603   3.305  16.848  0.00  0.00    +0.000 OA
ATOM     12  N   UNL     1       1.987   3.967  18.962  0.00  0.00    +0.000 N 
ATOM     13  C   UNL     1       1.984   4.854  20.133  0.00  0.00    +0.000 C 
ATOM     14  C   UNL     1       2.171   4.011  21.403  0.00  0.00    +0.000 C 
ATOM     15  O   UNL     1       1.135   3.020  21.509  0.00  0.00    +0.000 OA
ATOM     16  C   UNL     1       1.131   2.146  20.363  0.00  0.00    +0.000 C 
ATOM     17  C   UNL     1       0.955   2.931  19.055  0.00  0.00    +0.000 C 
ENDBRANCH   6  10
BRANCH   1  19
ATOM     18  C   UNL     1       8.591   9.177  18.550  0.00  0.00    +0.000 C 
ATOM     19  C   UNL     1       8.020   8.258  17.484  0.00  0.00    +0.000 C 
ENDBRANCH   1  19
TORSDOF 2
ENDMDL
MODEL 2
REMARK VINA RESULT:      -7.1      2.803      3.506
REMARK  Name = 
REMARK  3 active torsions:
REMARK  status: ('A' for Active; 'I' for Inactive)
REMARK    1  A    between atoms: C_1  and  C_2
REMARK    2  A    between atoms: C_2  and  N_3
REMARK    3  A    between atoms: C_8  and  C_9
REMARK                            x       y       z     vdW  Elec       q    Type
REMARK                         _______ _______ _______ _____ _____    ______ ____
ROOT
ATOM      1  N   UNL     1       6.719   4.668  14.463  0.00  0.00    +0.000 N 
ATOM      2  N   UNL     1       7.709   5.546  14.703  0.00  0.00    +0.000 NA
ATOM      3  N   UNL     1       7.470   6.097  15.889  0.00  0.00    +0.000 NA
ATOM      4  C   UNL     1       6.310   5.562  16.390  0.00  0.00    +0.000 A 
ATOM      5  C   UNL     1       5.622   5.799  17.587  0.00  0.00    +0.000 A 
ATOM      6  C   UNL     1       4.418   5.105  17.815  0.00  0.00    +0.000 A 
ATOM      7  C   UNL     1       3.900   4.256  16.828  0.00  0.00    +0.000 A 
ATOM      8  C   UNL     1       4.606   3.957  15.661  0.00  0.00    +0.000 A 
ATOM      9  C   UNL     1       5.801   4.647  15.476  0.00  0.00    +0.000 A 
ENDROOT
BRANCH   6  10
ATOM     10  C   UNL     1       3.660   5.383  19.070  0.00  0.00    +0.000 C 
ATOM     11  O   UNL     1       3.394   6.560  19.309  0.00  0.00    +0.000 OA
ATOM     12  N   UNL     1       3.253   4.344  19.905  0.00  0.00    +0.000 N 
ATOM     13  C   UNL     1       3.641   2.928  19.872  0.00  0.00    +0.000 C 
ATOM     14  C   UNL     1       2.380   2.063  19.734  0.00  0.00    +0.000 C 
ATOM     15  O   UNL     1       1.470   2.319  20.817  0.00  0.00    +0.000 OA
ATOM     16  C   UNL     1       1.085   3.708  20.857  0.00  0.00    +0.000 C 
ATOM     17  C   UNL     1       2.306   4.628  20.986  0.00  0.00    +0.000 C 
ENDBRANCH   6  10
BRANCH   1  19
ATOM     18  C   UNL     1       7.382   4.627  12.096  0.00  0.00    +0.000 C 
ATOM     19  C   UNL     1       6.678   3.908  13.233  0.00  0.00    +0.000 C 
ENDBRANCH   1  19
TORSDOF 2
ENDMDL
MODEL 3
REMARK VINA RESULT:      -7.0      3.954      5.459
REMARK  Name = 
REMARK  3 active torsions:
REMARK  status: ('A' for Active; 'I' for Inactive)
REMARK    1  A    between atoms: C_1  and  C_2
REMARK    2  A    between atoms: C_2  and  N_3
REMARK    3  A    between atoms: C_8  and  C_9
REMARK                            x       y       z     vdW  Elec       q    Type
REMARK                         _______ _______ _______ _____ _____    ______ ____
ROOT
ATOM      1  N   UNL     1       0.460  10.019  20.084  0.00  0.00    +0.000 N 
ATOM      2  N   UNL     1       0.279   9.560  21.335  0.00  0.00    +0.000 NA
ATOM      3  N   UNL     1       0.945   8.414  21.437  0.00  0.00    +0.000 NA
ATOM      4  C   UNL     1       1.542   8.151  20.230  0.00  0.00    +0.000 A 
ATOM      5  C   UNL     1       2.345   7.084  19.807  0.00  0.00    +0.000 A 
ATOM      6  C   UNL     1       2.796   7.074  18.473  0.00  0.00    +0.000 A 
ATOM      7  C   UNL     1       2.384   8.078  17.586  0.00  0.00    +0.000 A 
ATOM      8  C   UNL     1       1.641   9.182  18.008  0.00  0.00    +0.000 A 
ATOM      9  C   UNL     1       1.228   9.168  19.337  0.00  0.00    +0.000 A 
ENDROOT
BRANCH   6  10
ATOM     10  C   UNL     1       3.618   5.921  18.005  0.00  0.00    +0.000 C 
ATOM     11  O   UNL     1       4.828   6.112  17.885  0.00  0.00    +0.000 OA
ATOM     12  N   UNL     1       3.032   4.682  17.750  0.00  0.00    +0.000 N 
ATOM     13  C   UNL     1       1.608   4.336  17.660  0.00  0.00    +0.000 C 
ATOM     14  C   UNL     1       1.292   3.229  18.676  0.00  0.00    +0.000 C 
ATOM     15  O   UNL     1       2.115   2.075  18.438  0.00  0.00    +0.000 OA
ATOM     16  C   UNL     1       3.515   2.406  18.525  0.00  0.00    +0.000 C 
ATOM     17  C   UNL     1       3.894   3.516  17.535  0.00  0.00    +0.000 C 
ENDBRANCH   6  10
BRANCH   1  19
ATOM     18  C   UNL     1      -1.433  11.000  18.861  0.00  0.00    +0.000 C 
ATOM     19  C   UNL     1      -0.157  11.251  19.644  0.00  0.00    +0.000 C 
ENDBRANCH   1  19
TORSDOF 2
ENDMDL
MODEL 4
REMARK VINA RESULT:      -6.7      3.452      6.005
REMARK  Name = 
REMARK  3 active torsions:
REMARK  status: ('A' for Active; 'I' for Inactive)
REMARK    1  A    between atoms: C_1  and  C_2
REMARK    2  A    between atoms: C_2  and  N_3
REMARK    3  A    between atoms: C_8  and  C_9
REMARK                            x       y       z     vdW  Elec       q    Type
REMARK                         _______ _______ _______ _____ _____    ______ ____
ROOT
ATOM      1  N   UNL     1       1.248   8.975  20.276  0.00  0.00    +0.000 N 
ATOM      2  N   UNL     1       1.218   9.913  19.314  0.00  0.00    +0.000 NA
ATOM      3  N   UNL     1       1.781   9.387  18.230  0.00  0.00    +0.000 NA
ATOM      4  C   UNL     1       2.175   8.107  18.524  0.00  0.00    +0.000 A 
ATOM      5  C   UNL     1       2.813   7.132  17.746  0.00  0.00    +0.000 A 
ATOM      6  C   UNL     1       3.122   5.895  18.345  0.00  0.00    +0.000 A 
ATOM      7  C   UNL     1       2.856   5.688  19.705  0.00  0.00    +0.000 A 
ATOM      8  C   UNL     1       2.161   6.622  20.476  0.00  0.00    +0.000 A 
ATOM      9  C   UNL     1       1.854   7.826  19.847  0.00  0.00    +0.000 A 
ENDROOT
BRANCH   6  10
ATOM     10  C   UNL     1       3.837   4.868  17.533  0.00  0.00    +0.000 C 
ATOM     11  O   UNL     1       3.151   3.976  17.035  0.00  0.00    +0.000 OA
ATOM     12  N   UNL     1       5.214   4.946  17.333  0.00  0.00    +0.000 N 
ATOM     13  C   UNL     1       6.195   5.815  17.996  0.00  0.00    +0.000 C 
ATOM     14  C   UNL     1       6.936   6.641  16.935  0.00  0.00    +0.000 C 
ATOM     15  O   UNL     1       7.578   5.778  15.981  0.00  0.00    +0.000 OA
ATOM     16  C   UNL     1       6.622   4.922  15.326  0.00  0.00    +0.000 C 
ATOM     17  C   UNL     1       5.840   4.072  16.337  0.00  0.00    +0.000 C 
ENDBRANCH   6  10
BRANCH   1  19
ATOM     18  C   UNL     1      -0.611   8.556  21.829  0.00  0.00    +0.000 C 
ATOM     19  C   UNL     1       0.724   9.243  21.597  0.00  0.00    +0.000 C 
ENDBRANCH   1  19
TORSDOF 2
ENDMDL
MODEL 5
REMARK VINA RESULT:      -6.6      4.066      5.514
REMARK  Name = 
REMARK  3 active torsions:
REMARK  status: ('A' for Active; 'I' for Inactive)
REMARK    1  A    between atoms: C_1  and  C_2
REMARK    2  A    between atoms: C_2  and  N_3
REMARK    3  A    between atoms: C_8  and  C_9
REMARK                            x       y       z     vdW  Elec       q    Type
REMARK                         _______ _______ _______ _____ _____    ______ ____
ROOT
ATOM      1  N   UNL     1       0.644  10.127  19.953  0.00  0.00    +0.000 N 
ATOM      2  N   UNL     1       0.723  10.945  18.889  0.00  0.00    +0.000 NA
ATOM      3  N   UNL     1       1.424  10.312  17.953  0.00  0.00    +0.000 NA
ATOM      4  C   UNL     1       1.794   9.085  18.444  0.00  0.00    +0.000 A 
ATOM      5  C   UNL     1       2.536   8.044  17.872  0.00  0.00    +0.000 A 
ATOM      6  C   UNL     1       2.783   6.894  18.648  0.00  0.00    +0.000 A 
ATOM      7  C   UNL     1       2.351   6.841  19.980  0.00  0.00    +0.000 A 
ATOM      8  C   UNL     1       1.554   7.839  20.543  0.00  0.00    +0.000 A 
ATOM      9  C   UNL     1       1.313   8.952  19.742  0.00  0.00    +0.000 A 
ENDROOT
BRANCH   6  10
ATOM     10  C   UNL     1       3.607   5.799  18.059  0.00  0.00    +0.000 C 
ATOM     11  O   UNL     1       4.809   6.019  17.923  0.00  0.00    +0.000 OA
ATOM     12  N   UNL     1       3.031   4.578  17.713  0.00  0.00    +0.000 N 
ATOM     13  C   UNL     1       1.609   4.218  17.632  0.00  0.00    +0.000 C 
ATOM     14  C   UNL     1       1.338   3.022  18.556  0.00  0.00    +0.000 C 
ATOM     15  O   UNL     1       2.169   1.906  18.195  0.00  0.00    +0.000 OA
ATOM     16  C   UNL     1       3.566   2.252  18.272  0.00  0.00    +0.000 C 
ATOM     17  C   UNL     1       3.902   3.450  17.374  0.00  0.00    +0.000 C 
ENDBRANCH   6  10
BRANCH   1  19
ATOM     18  C   UNL     1       0.067  12.029  21.399  0.00  0.00    +0.000 C 
ATOM     19  C   UNL     1      -0.045  10.534  21.158  0.00  0.00    +0.000 C 
ENDBRANCH   1  19
TORSDOF 2
ENDMDL
MODEL 6
REMARK VINA RESULT:      -6.6      3.821      5.879
REMARK  Name = 
REMARK  3 active torsions:
REMARK  status: ('A' for Active; 'I' for Inactive)
REMARK    1  A    between atoms: C_1  and  C_2
REMARK    2  A    between atoms: C_2  and  N_3
REMARK    3  A    between atoms: C_8  and  C_9
REMARK                            x       y       z     vdW  Elec       q    Type
REMARK                         _______ _______ _______ _____ _____    ______ ____
ROOT
ATOM      1  N   UNL     1       1.061   9.722  19.976  0.00  0.00    +0.000 N 
ATOM      2  N   UNL     1       0.757   9.232  21.191  0.00  0.00    +0.000 NA
ATOM      3  N   UNL     1       1.233   7.991  21.247  0.00  0.00    +0.000 NA
ATOM      4  C   UNL     1       1.833   7.702  20.048  0.00  0.00    +0.000 A 
ATOM      5  C   UNL     1       2.478   6.546  19.590  0.00  0.00    +0.000 A 
ATOM      6  C   UNL     1       2.979   6.536  18.274  0.00  0.00    +0.000 A 
ATOM      7  C   UNL     1       2.765   7.638  17.434  0.00  0.00    +0.000 A 
ATOM      8  C   UNL     1       2.185   8.821  17.895  0.00  0.00    +0.000 A 
ATOM      9  C   UNL     1       1.719   8.802  19.206  0.00  0.00    +0.000 A 
ENDROOT
BRANCH   6  10
ATOM     10  C   UNL     1       3.631   5.294  17.767  0.00  0.00    +0.000 C 
ATOM     11  O   UNL     1       2.887   4.387  17.396  0.00  0.00    +0.000 OA
ATOM     12  N   UNL     1       5.019   5.194  17.694  0.00  0.00    +0.000 N 
ATOM     13  C   UNL     1       6.040   6.086  18.259  0.00  0.00    +0.000 C 
ATOM     14  C   UNL     1       6.951   6.588  17.130  0.00  0.00    +0.000 C 
ATOM     15  O   UNL     1       7.561   5.483  16.443  0.00  0.00    +0.000 OA
ATOM     16  C   UNL     1       6.566   4.602  15.886  0.00  0.00    +0.000 C 
ATOM     17  C   UNL     1       5.615   4.069  16.967  0.00  0.00    +0.000 C 
ENDBRANCH   6  10
BRANCH   1  19
ATOM     18  C   UNL     1      -0.670  11.063  18.857  0.00  0.00    +0.000 C 
ATOM     19  C   UNL     1       0.661  11.057  19.589  0.00  0.00    +0.000 C 
ENDBRANCH   1  19
TORSDOF 2
ENDMDL
MODEL 7
REMARK VINA RESULT:      -6.2      1.242      1.288
REMARK  Name = 
REMARK  3 active torsions:
REMARK  status: ('A' for Active; 'I' for Inactive)
REMARK    1  A    between atoms: C_1  and  C_2
REMARK    2  A    between atoms: C_2  and  N_3
REMARK    3  A    between atoms: C_8  and  C_9
REMARK                            x       y       z     vdW  Elec       q    Type
REMARK                         _______ _______ _______ _____ _____    ______ ____
ROOT
ATOM      1  N   UNL     1       6.959   6.749  16.932  0.00  0.00    +0.000 N 
ATOM      2  N   UNL     1       7.658   5.698  16.467  0.00  0.00    +0.000 NA
ATOM      3  N   UNL     1       6.851   4.641  16.498  0.00  0.00    +0.000 NA
ATOM      4  C   UNL     1       5.636   5.038  16.998  0.00  0.00    +0.000 A 
ATOM      5  C   UNL     1       4.455   4.324  17.236  0.00  0.00    +0.000 A 
ATOM      6  C   UNL     1       3.359   5.011  17.794  0.00  0.00    +0.000 A 
ATOM      7  C   UNL     1       3.488   6.357  18.160  0.00  0.00    +0.000 A 
ATOM      8  C   UNL     1       4.634   7.100  17.868  0.00  0.00    +0.000 A 
ATOM      9  C   UNL     1       5.690   6.394  17.299  0.00  0.00    +0.000 A 
ENDROOT
BRANCH   6  10
ATOM     10  C   UNL     1       2.112   4.247  18.088  0.00  0.00    +0.000 C 
ATOM     11  O   UNL     1       1.541   3.724  17.132  0.00  0.00    +0.000 OA
ATOM     12  N   UNL     1       1.646   4.114  19.395  0.00  0.00    +0.000 N 
ATOM     13  C   UNL     1       2.087   4.816  20.608  0.00  0.00    +0.000 C 
ATOM     14  C   UNL     1       2.531   3.783  21.654  0.00  0.00    +0.000 C 
ATOM     15  O   UNL     1       1.460   2.872  21.951  0.00  0.00    +0.000 OA
ATOM     16  C   UNL     1       1.021   2.180  20.766  0.00  0.00    +0.000 C 
ATOM     17  C   UNL     1       0.570   3.160  19.675  0.00  0.00    +0.000 C 
ENDBRANCH   6  10
BRANCH   1  19
ATOM     18  C   UNL     1       8.300   8.233  18.361  0.00  0.00    +0.000 C 
ATOM     19  C   UNL     1       7.566   8.057  17.044  0.00  0.00    +0.000 C 
ENDBRANCH   1  19
TORSDOF 2
ENDMDL
MODEL 8
REMARK VINA RESULT:      -6.1      4.215      5.369
REMARK  Name = 
REMARK  3 active torsions:
REMARK  status: ('A' for Active; 'I' for Inactive)
REMARK    1  A    between atoms: C_1  and  C_2
REMARK    2  A    between atoms: C_2  and  N_3
REMARK    3  A    between atoms: C_8  and  C_9
REMARK                            x       y       z     vdW  Elec       q    Type
REMARK                         _______ _______ _______ _____ _____    ______ ____
ROOT
ATOM      1  N   UNL     1       0.570  10.397  20.184  0.00  0.00    +0.000 N 
ATOM      2  N   UNL     1       0.482  10.021  21.472  0.00  0.00    +0.000 NA
ATOM      3  N   UNL     1       1.077   8.837  21.581  0.00  0.00    +0.000 NA
ATOM      4  C   UNL     1       1.533   8.466  20.342  0.00  0.00    +0.000 A 
ATOM      5  C   UNL     1       2.218   7.322  19.911  0.00  0.00    +0.000 A 
ATOM      6  C   UNL     1       2.534   7.207  18.544  0.00  0.00    +0.000 A 
ATOM      7  C   UNL     1       2.105   8.188  17.640  0.00  0.00    +0.000 A 
ATOM      8  C   UNL     1       1.483   9.364  18.061  0.00  0.00    +0.000 A 
ATOM      9  C   UNL     1       1.202   9.453  19.421  0.00  0.00    +0.000 A 
ENDROOT
BRANCH   6  10
ATOM     10  C   UNL     1       3.227   5.973  18.072  0.00  0.00    +0.000 C 
ATOM     11  O   UNL     1       4.137   6.122  17.258  0.00  0.00    +0.000 OA
ATOM     12  N   UNL     1       2.869   4.719  18.565  0.00  0.00    +0.000 N 
ATOM     13  C   UNL     1       1.705   4.345  19.379  0.00  0.00    +0.000 C 
ATOM     14  C   UNL     1       2.189   3.683  20.676  0.00  0.00    +0.000 C 
ATOM     15  O   UNL     1       3.000   2.532  20.384  0.00  0.00    +0.000 OA
ATOM     16  C   UNL     1       4.144   2.890  19.584  0.00  0.00    +0.000 C 
ATOM     17  C   UNL     1       3.726   3.567  18.272  0.00  0.00    +0.000 C 
ENDBRANCH   6  10
BRANCH   1  19
ATOM     18  C   UNL     1      -0.310  12.583  20.884  0.00  0.00    +0.000 C 
ATOM     19  C   UNL     1      -0.003  11.644  19.730  0.00  0.00    +0.000 C 
ENDBRANCH   1  19
TORSDOF 2
ENDMDL
MODEL 9
REMARK VINA RESULT:      -6.0      4.463      6.328
REMARK  Name = 
REMARK  3 active torsions:
REMARK  status: ('A' for Active; 'I' for Inactive)
REMARK    1  A    between atoms: C_1  and  C_2
REMARK    2  A    between atoms: C_2  and  N_3
REMARK    3  A    between atoms: C_8  and  C_9
REMARK                            x       y       z     vdW  Elec       q    Type
REMARK                         _______ _______ _______ _____ _____    ______ ____
ROOT
ATOM      1  N   UNL     1       3.039   4.113  19.105  0.00  0.00    +0.000 N 
ATOM      2  N   UNL     1       3.679   4.248  17.930  0.00  0.00    +0.000 NA
ATOM      3  N   UNL     1       3.582   5.524  17.570  0.00  0.00    +0.000 NA
ATOM      4  C   UNL     1       2.865   6.192  18.530  0.00  0.00    +0.000 A 
ATOM      5  C   UNL     1       2.480   7.535  18.632  0.00  0.00    +0.000 A 
ATOM      6  C   UNL     1       1.707   7.927  19.742  0.00  0.00    +0.000 A 
ATOM      7  C   UNL     1       1.283   6.970  20.674  0.00  0.00    +0.000 A 
ATOM      8  C   UNL     1       1.713   5.643  20.624  0.00  0.00    +0.000 A 
ATOM      9  C   UNL     1       2.491   5.295  19.524  0.00  0.00    +0.000 A 
ENDROOT
BRANCH   6  10
ATOM     10  C   UNL     1       1.260   9.347  19.835  0.00  0.00    +0.000 C 
ATOM     11  O   UNL     1       1.062   9.939  18.775  0.00  0.00    +0.000 OA
ATOM     12  N   UNL     1       1.050   9.951  21.074  0.00  0.00    +0.000 N 
ATOM     13  C   UNL     1       1.412   9.464  22.411  0.00  0.00    +0.000 C 
ATOM     14  C   UNL     1       0.148   9.391  23.280  0.00  0.00    +0.000 C 
ATOM     15  O   UNL     1      -0.486  10.679  23.359  0.00  0.00    +0.000 OA
ATOM     16  C   UNL     1      -0.843  11.164  22.050  0.00  0.00    +0.000 C 
ATOM     17  C   UNL     1       0.380  11.253  21.127  0.00  0.00    +0.000 C 
ENDBRANCH   6  10
BRANCH   1  19
ATOM     18  C   UNL     1       1.812   1.986  19.206  0.00  0.00    +0.000 C 
ATOM     19  C   UNL     1       2.947   2.828  19.762  0.00  0.00    +0.000 C 
ENDBRANCH   1  19
TORSDOF 2
ENDMDL
