MODEL 1
REMARK VINA RESULT:      -8.8      0.000      0.000
REMARK  Name = 
REMARK  6 active torsions:
REMARK  status: ('A' for Active; 'I' for Inactive)
REMARK    1  A    between atoms: C_1  and  C_2
REMARK    2  A    between atoms: C_5  and  C_6
REMARK    3  A    between atoms: C_8  and  C_9
REMARK    4  A    between atoms: C_11  and  C_12
REMARK    5  A    between atoms: C_15  and  N_16
REMARK    6  A    between atoms: N_19  and  C_20
REMARK                            x       y       z     vdW  Elec       q    Type
REMARK                         _______ _______ _______ _____ _____    ______ ____
ROOT
ATOM      1  C   UNL     1      -1.072  12.131  22.344  0.00  0.00    +0.000 A 
ATOM      2  C   UNL     1      -0.072  12.075  21.366  0.00  0.00    +0.000 A 
ATOM      3  C   UNL     1       0.688  10.915  21.174  0.00  0.00    +0.000 A 
ATOM      4  C   UNL     1       0.496   9.793  21.980  0.00  0.00    +0.000 A 
ATOM      5  C   UNL     1      -0.522   9.819  22.932  0.00  0.00    +0.000 A 
ATOM      6  C   UNL     1      -1.307  10.967  23.095  0.00  0.00    +0.000 A 
ENDROOT
BRANCH   1  12
ATOM      7  C   UNL     1      -3.055  13.840  22.099  0.00  0.00    +0.000 A 
ATOM      8  N   UNL     1      -3.403  15.127  22.503  0.00  0.00    +0.000 NA
ATOM      9  C   UNL     1      -2.506  15.601  23.335  0.00  0.00    +0.000 A 
ATOM     10  C   UNL     1      -2.561  16.952  23.955  0.00  0.00    +0.000 C 
ATOM     11  S   UNL     1      -1.197  14.558  23.679  0.00  0.00    +0.000 S 
ATOM     12  C   UNL     1      -1.840  13.367  22.598  0.00  0.00    +0.000 A 
BRANCH   7  17
ATOM     13  C   UNL     1      -6.382  10.793  18.481  0.00  0.00    +0.000 C 
ATOM     14  C   UNL     1      -5.527  11.618  19.395  0.00  0.00    +0.000 A 
ATOM     15  C   UNL     1      -4.202  11.926  19.068  0.00  0.00    +0.000 A 
ATOM     16  C   UNL     1      -3.411  12.675  19.947  0.00  0.00    +0.000 A 
ATOM     17  C   UNL     1      -3.931  13.131  21.165  0.00  0.00    +0.000 A 
ATOM     18  C   UNL     1      -5.275  12.872  21.459  0.00  0.00    +0.000 A 
ATOM     19  C   UNL     1      -6.056  12.097  20.597  0.00  0.00    +0.000 A 
ENDBRANCH   7  17
ENDBRANCH   1  12
BRANCH   4  20
ATOM     20  N   UNL     1       1.267   8.619  21.851  0.00  0.00    +0.000 N 
ATOM     21  C   UNL     1       1.479   7.938  20.669  0.00  0.00    +0.000 C 
ATOM     22  O   UNL     1       1.174   8.354  19.552  0.00  0.00    +0.000 OA
ATOM     23  N   UNL     1       2.059   6.702  20.896  0.00  0.00    +0.000 N 
ATOM     24  H   UNL     1       1.907   8.399  22.602  0.00  0.00    +0.000 HD
ATOM     25  H   UNL     1       1.732   6.244  21.741  0.00  0.00    +0.000 HD
BRANCH  23  26
ATOM     26  C   UNL     1       2.341   5.832  19.816  0.00  0.00    +0.000 A 
ATOM     27  C   UNL     1       3.348   6.114  18.887  0.00  0.00    +0.000 A 
ATOM     28  C   UNL     1       3.542   5.270  17.792  0.00  0.00    +0.000 A 
ATOM     29  C   UNL     1       2.722   4.157  17.631  0.00  0.00    +0.000 A 
ATOM     30  F   UNL     1       2.887   3.372  16.559  0.00  0.00    +0.000 F 
ATOM     31  C   UNL     1       1.731   3.852  18.555  0.00  0.00    +0.000 A 
ATOM     32  C   UNL     1       1.563   4.682  19.656  0.00  0.00    +0.000 A 
ATOM     33  F   UNL     1       0.591   4.411  20.542  0.00  0.00    +0.000 F 
ENDBRANCH  23  26
ENDBRANCH   4  20
TORSDOF 4
ENDMDL
MODEL 2
REMARK VINA RESULT:      -8.7      9.195     12.382
REMARK  Name = 
REMARK  6 active torsions:
REMARK  status: ('A' for Active; 'I' for Inactive)
REMARK    1  A    between atoms: C_1  and  C_2
REMARK    2  A    between atoms: C_5  and  C_6
REMARK    3  A    between atoms: C_8  and  C_9
REMARK    4  A    between atoms: C_11  and  C_12
REMARK    5  A    between atoms: C_15  and  N_16
REMARK    6  A    between atoms: N_19  and  C_20
REMARK                            x       y       z     vdW  Elec       q    Type
REMARK                         _______ _______ _______ _____ _____    ______ ____
ROOT
ATOM      1  C   UNL     1       7.007   6.229  16.873  0.00  0.00    +0.000 A 
ATOM      2  C   UNL     1       7.582   5.753  18.057  0.00  0.00    +0.000 A 
ATOM      3  C   UNL     1       8.210   6.624  18.956  0.00  0.00    +0.000 A 
ATOM      4  C   UNL     1       8.314   7.986  18.678  0.00  0.00    +0.000 A 
ATOM      5  C   UNL     1       7.712   8.481  17.522  0.00  0.00    +0.000 A 
ATOM      6  C   UNL     1       7.050   7.614  16.644  0.00  0.00    +0.000 A 
ENDROOT
BRANCH   1  12
ATOM      7  C   UNL     1       5.250   4.515  15.927  0.00  0.00    +0.000 A 
ATOM      8  N   UNL     1       5.060   3.694  14.818  0.00  0.00    +0.000 NA
ATOM      9  C   UNL     1       6.002   3.903  13.929  0.00  0.00    +0.000 A 
ATOM     10  C   UNL     1       6.109   3.190  12.628  0.00  0.00    +0.000 C 
ATOM     11  S   UNL     1       7.170   5.075  14.357  0.00  0.00    +0.000 S 
ATOM     12  C   UNL     1       6.394   5.315  15.886  0.00  0.00    +0.000 A 
BRANCH   7  17
ATOM     13  C   UNL     1       1.726   4.191  20.500  0.00  0.00    +0.000 C 
ATOM     14  C   UNL     1       2.608   4.257  19.290  0.00  0.00    +0.000 A 
ATOM     15  C   UNL     1       3.292   3.129  18.826  0.00  0.00    +0.000 A 
ATOM     16  C   UNL     1       4.132   3.217  17.710  0.00  0.00    +0.000 A 
ATOM     17  C   UNL     1       4.302   4.435  17.038  0.00  0.00    +0.000 A 
ATOM     18  C   UNL     1       3.568   5.547  17.470  0.00  0.00    +0.000 A 
ATOM     19  C   UNL     1       2.754   5.467  18.603  0.00  0.00    +0.000 A 
ENDBRANCH   7  17
ENDBRANCH   1  12
BRANCH   4  20
ATOM     20  N   UNL     1       8.975   8.892  19.533  0.00  0.00    +0.000 N 
ATOM     21  C   UNL     1       9.274  10.203  19.220  0.00  0.00    +0.000 C 
ATOM     22  O   UNL     1       8.853  10.804  18.232  0.00  0.00    +0.000 OA
ATOM     23  N   UNL     1      10.137  10.759  20.147  0.00  0.00    +0.000 N 
ATOM     24  H   UNL     1       9.011   8.661  20.517  0.00  0.00    +0.000 HD
ATOM     25  H   UNL     1      10.831  10.111  20.504  0.00  0.00    +0.000 HD
BRANCH  23  26
ATOM     26  C   UNL     1      10.587  12.093  19.999  0.00  0.00    +0.000 A 
ATOM     27  C   UNL     1       9.924  13.166  20.606  0.00  0.00    +0.000 A 
ATOM     28  C   UNL     1      10.354  14.473  20.370  0.00  0.00    +0.000 A 
ATOM     29  C   UNL     1      11.435  14.697  19.523  0.00  0.00    +0.000 A 
ATOM     30  F   UNL     1      11.820  15.954  19.271  0.00  0.00    +0.000 F 
ATOM     31  C   UNL     1      12.116  13.642  18.929  0.00  0.00    +0.000 A 
ATOM     32  C   UNL     1      11.700  12.343  19.191  0.00  0.00    +0.000 A 
ATOM     33  F   UNL     1      12.333  11.317  18.601  0.00  0.00    +0.000 F 
ENDBRANCH  23  26
ENDBRANCH   4  20
TORSDOF 4
ENDMDL
MODEL 3
REMARK VINA RESULT:      -8.5      1.854      2.623
REMARK  Name = 
REMARK  6 active torsions:
REMARK  status: ('A' for Active; 'I' for Inactive)
REMARK    1  A    between atoms: C_1  and  C_2
REMARK    2  A    between atoms: C_5  and  C_6
REMARK    3  A    between atoms: C_8  and  C_9
REMARK    4  A    between atoms: C_11  and  C_12
REMARK    5  A    between atoms: C_15  and  N_16
REMARK    6  A    between atoms: N_19  and  C_20
REMARK                            x       y       z     vdW  Elec       q    Type
REMARK                         _______ _______ _______ _____ _____    ______ ____
ROOT
ATOM      1  C   UNL     1      -0.713  10.968  21.229  0.00  0.00    +0.000 A 
ATOM      2  C   UNL     1      -0.770  10.039  22.275  0.00  0.00    +0.000 A 
ATOM      3  C   UNL     1       0.043   8.899  22.276  0.00  0.00    +0.000 A 
ATOM      4  C   UNL     1       0.906   8.637  21.213  0.00  0.00    +0.000 A 
ATOM      5  C   UNL     1       1.003   9.571  20.183  0.00  0.00    +0.000 A 
ATOM      6  C   UNL     1       0.218  10.730  20.205  0.00  0.00    +0.000 A 
ENDROOT
BRANCH   1  12
ATOM      7  C   UNL     1      -2.496  12.615  20.218  0.00  0.00    +0.000 A 
ATOM      8  N   UNL     1      -3.089  13.842  20.504  0.00  0.00    +0.000 NA
ATOM      9  C   UNL     1      -2.708  14.268  21.685  0.00  0.00    +0.000 A 
ATOM     10  C   UNL     1      -3.145  15.550  22.301  0.00  0.00    +0.000 C 
ATOM     11  S   UNL     1      -1.621  13.248  22.519  0.00  0.00    +0.000 S 
ATOM     12  C   UNL     1      -1.608  12.143  21.186  0.00  0.00    +0.000 A 
BRANCH   7  17
ATOM     13  C   UNL     1      -3.797  10.294  15.084  0.00  0.00    +0.000 C 
ATOM     14  C   UNL     1      -3.459  10.855  16.432  0.00  0.00    +0.000 A 
ATOM     15  C   UNL     1      -4.434  11.002  17.424  0.00  0.00    +0.000 A 
ATOM     16  C   UNL     1      -4.104  11.554  18.667  0.00  0.00    +0.000 A 
ATOM     17  C   UNL     1      -2.793  11.966  18.940  0.00  0.00    +0.000 A 
ATOM     18  C   UNL     1      -1.809  11.760  17.965  0.00  0.00    +0.000 A 
ATOM     19  C   UNL     1      -2.144  11.240  16.713  0.00  0.00    +0.000 A 
ENDBRANCH   7  17
ENDBRANCH   1  12
BRANCH   4  20
ATOM     20  N   UNL     1       1.710   7.480  21.150  0.00  0.00    +0.000 N 
ATOM     21  C   UNL     1       2.367   7.032  20.021  0.00  0.00    +0.000 C 
ATOM     22  O   UNL     1       2.482   7.669  18.975  0.00  0.00    +0.000 OA
ATOM     23  N   UNL     1       2.864   5.754  20.200  0.00  0.00    +0.000 N 
ATOM     24  H   UNL     1       2.035   7.092  22.026  0.00  0.00    +0.000 HD
ATOM     25  H   UNL     1       2.265   5.154  20.758  0.00  0.00    +0.000 HD
BRANCH  23  26
ATOM     26  C   UNL     1       3.555   5.099  19.153  0.00  0.00    +0.000 A 
ATOM     27  C   UNL     1       4.950   5.149  19.047  0.00  0.00    +0.000 A 
ATOM     28  C   UNL     1       5.586   4.556  17.955  0.00  0.00    +0.000 A 
ATOM     29  C   UNL     1       4.823   3.927  16.975  0.00  0.00    +0.000 A 
ATOM     30  F   UNL     1       5.436   3.392  15.912  0.00  0.00    +0.000 F 
ATOM     31  C   UNL     1       3.440   3.851  17.077  0.00  0.00    +0.000 A 
ATOM     32  C   UNL     1       2.817   4.419  18.180  0.00  0.00    +0.000 A 
ATOM     33  F   UNL     1       1.479   4.376  18.275  0.00  0.00    +0.000 F 
ENDBRANCH  23  26
ENDBRANCH   4  20
TORSDOF 4
ENDMDL
MODEL 4
REMARK VINA RESULT:      -8.5      4.986     10.777
REMARK  Name = 
REMARK  6 active torsions:
REMARK  status: ('A' for Active; 'I' for Inactive)
REMARK    1  A    between atoms: C_1  and  C_2
REMARK    2  A    between atoms: C_5  and  C_6
REMARK    3  A    between atoms: C_8  and  C_9
REMARK    4  A    between atoms: C_11  and  C_12
REMARK    5  A    between atoms: C_15  and  N_16
REMARK    6  A    between atoms: N_19  and  C_20
REMARK                            x       y       z     vdW  Elec       q    Type
REMARK                         _______ _______ _______ _____ _____    ______ ____
ROOT
ATOM      1  C   UNL     1       2.386   6.898  19.279  0.00  0.00    +0.000 A 
ATOM      2  C   UNL     1       2.770   7.368  18.017  0.00  0.00    +0.000 A 
ATOM      3  C   UNL     1       2.430   8.658  17.592  0.00  0.00    +0.000 A 
ATOM      4  C   UNL     1       1.666   9.499  18.400  0.00  0.00    +0.000 A 
ATOM      5  C   UNL     1       1.309   9.061  19.674  0.00  0.00    +0.000 A 
ATOM      6  C   UNL     1       1.684   7.785  20.112  0.00  0.00    +0.000 A 
ENDROOT
BRANCH   1  12
ATOM      7  C   UNL     1       3.546   4.539  19.221  0.00  0.00    +0.000 A 
ATOM      8  N   UNL     1       3.466   3.301  19.855  0.00  0.00    +0.000 NA
ATOM      9  C   UNL     1       2.607   3.352  20.845  0.00  0.00    +0.000 A 
ATOM     10  C   UNL     1       2.270   2.204  21.730  0.00  0.00    +0.000 C 
ATOM     11  S   UNL     1       1.841   4.861  21.079  0.00  0.00    +0.000 S 
ATOM     12  C   UNL     1       2.685   5.519  19.717  0.00  0.00    +0.000 A 
BRANCH   7  17
ATOM     13  C   UNL     1       7.291   4.942  14.834  0.00  0.00    +0.000 C 
ATOM     14  C   UNL     1       6.309   4.879  15.964  0.00  0.00    +0.000 A 
ATOM     15  C   UNL     1       6.607   5.422  17.217  0.00  0.00    +0.000 A 
ATOM     16  C   UNL     1       5.687   5.329  18.268  0.00  0.00    +0.000 A 
ATOM     17  C   UNL     1       4.452   4.694  18.082  0.00  0.00    +0.000 A 
ATOM     18  C   UNL     1       4.134   4.206  16.809  0.00  0.00    +0.000 A 
ATOM     19  C   UNL     1       5.065   4.270  15.768  0.00  0.00    +0.000 A 
ENDBRANCH   7  17
ENDBRANCH   1  12
BRANCH   4  20
ATOM     20  N   UNL     1       1.265  10.789  17.994  0.00  0.00    +0.000 N 
ATOM     21  C   UNL     1       1.236  11.902  18.811  0.00  0.00    +0.000 C 
ATOM     22  O   UNL     1       1.717  11.958  19.942  0.00  0.00    +0.000 OA
ATOM     23  N   UNL     1       0.567  12.952  18.208  0.00  0.00    +0.000 N 
ATOM     24  H   UNL     1       1.238  10.977  17.001  0.00  0.00    +0.000 HD
ATOM     25  H   UNL     1      -0.227  12.666  17.645  0.00  0.00    +0.000 HD
BRANCH  23  26
ATOM     26  C   UNL     1       0.405  14.184  18.886  0.00  0.00    +0.000 A 
ATOM     27  C   UNL     1      -0.725  14.451  19.667  0.00  0.00    +0.000 A 
ATOM     28  C   UNL     1      -0.884  15.708  20.254  0.00  0.00    +0.000 A 
ATOM     29  C   UNL     1       0.081  16.689  20.047  0.00  0.00    +0.000 A 
ATOM     30  F   UNL     1      -0.095  17.903  20.582  0.00  0.00    +0.000 F 
ATOM     31  C   UNL     1       1.218  16.433  19.290  0.00  0.00    +0.000 A 
ATOM     32  C   UNL     1       1.382  15.172  18.733  0.00  0.00    +0.000 A 
ATOM     33  F   UNL     1       2.463  14.922  17.978  0.00  0.00    +0.000 F 
ENDBRANCH  23  26
ENDBRANCH   4  20
TORSDOF 4
ENDMDL
MODEL 5
REMARK VINA RESULT:      -8.4      7.425      9.472
REMARK  Name = 
REMARK  6 active torsions:
REMARK  status: ('A' for Active; 'I' for Inactive)
REMARK    1  A    between atoms: C_1  and  C_2
REMARK    2  A    between atoms: C_5  and  C_6
REMARK    3  A    between atoms: C_8  and  C_9
REMARK    4  A    between atoms: C_11  and  C_12
REMARK    5  A    between atoms: C_15  and  N_16
REMARK    6  A    between atoms: N_19  and  C_20
REMARK                            x       y       z     vdW  Elec       q    Type
REMARK                         _______ _______ _______ _____ _____    ______ ____
ROOT
ATOM      1  C   UNL     1       9.423  12.893  19.339  0.00  0.00    +0.000 A 
ATOM      2  C   UNL     1       9.405  12.087  20.483  0.00  0.00    +0.000 A 
ATOM      3  C   UNL     1       9.290  10.695  20.386  0.00  0.00    +0.000 A 
ATOM      4  C   UNL     1       9.151  10.074  19.145  0.00  0.00    +0.000 A 
ATOM      5  C   UNL     1       9.206  10.859  17.994  0.00  0.00    +0.000 A 
ATOM      6  C   UNL     1       9.361  12.247  18.093  0.00  0.00    +0.000 A 
ENDROOT
BRANCH   1  12
ATOM      7  C   UNL     1       8.500  15.355  19.359  0.00  0.00    +0.000 A 
ATOM      8  N   UNL     1       8.972  16.665  19.377  0.00  0.00    +0.000 NA
ATOM      9  C   UNL     1      10.277  16.677  19.515  0.00  0.00    +0.000 A 
ATOM     10  C   UNL     1      11.109  17.909  19.565  0.00  0.00    +0.000 C 
ATOM     11  S   UNL     1      11.019  15.142  19.623  0.00  0.00    +0.000 S 
ATOM     12  C   UNL     1       9.483  14.366  19.429  0.00  0.00    +0.000 A 
BRANCH   7  17
ATOM     13  C   UNL     1       2.778  14.721  18.811  0.00  0.00    +0.000 C 
ATOM     14  C   UNL     1       4.264  14.844  18.966  0.00  0.00    +0.000 A 
ATOM     15  C   UNL     1       4.849  15.047  20.220  0.00  0.00    +0.000 A 
ATOM     16  C   UNL     1       6.236  15.187  20.341  0.00  0.00    +0.000 A 
ATOM     17  C   UNL     1       7.062  15.123  19.212  0.00  0.00    +0.000 A 
ATOM     18  C   UNL     1       6.477  14.858  17.967  0.00  0.00    +0.000 A 
ATOM     19  C   UNL     1       5.090  14.751  17.841  0.00  0.00    +0.000 A 
ENDBRANCH   7  17
ENDBRANCH   1  12
BRANCH   4  20
ATOM     20  N   UNL     1       8.989   8.681  19.002  0.00  0.00    +0.000 N 
ATOM     21  C   UNL     1       8.051   8.072  18.192  0.00  0.00    +0.000 C 
ATOM     22  O   UNL     1       7.355   8.653  17.361  0.00  0.00    +0.000 OA
ATOM     23  N   UNL     1       7.967   6.715  18.449  0.00  0.00    +0.000 N 
ATOM     24  H   UNL     1       9.752   8.090  19.304  0.00  0.00    +0.000 HD
ATOM     25  H   UNL     1       8.083   6.474  19.428  0.00  0.00    +0.000 HD
BRANCH  23  26
ATOM     26  C   UNL     1       7.047   5.905  17.741  0.00  0.00    +0.000 A 
ATOM     27  C   UNL     1       7.199   5.640  16.375  0.00  0.00    +0.000 A 
ATOM     28  C   UNL     1       6.228   4.902  15.697  0.00  0.00    +0.000 A 
ATOM     29  C   UNL     1       5.109   4.445  16.387  0.00  0.00    +0.000 A 
ATOM     30  F   UNL     1       4.162   3.770  15.723  0.00  0.00    +0.000 F 
ATOM     31  C   UNL     1       4.953   4.682  17.747  0.00  0.00    +0.000 A 
ATOM     32  C   UNL     1       5.938   5.393  18.419  0.00  0.00    +0.000 A 
ATOM     33  F   UNL     1       5.785   5.651  19.728  0.00  0.00    +0.000 F 
ENDBRANCH  23  26
ENDBRANCH   4  20
TORSDOF 4
ENDMDL
MODEL 6
REMARK VINA RESULT:      -8.4      7.510      9.589
REMARK  Name = 
REMARK  6 active torsions:
REMARK  status: ('A' for Active; 'I' for Inactive)
REMARK    1  A    between atoms: C_1  and  C_2
REMARK    2  A    between atoms: C_5  and  C_6
REMARK    3  A    between atoms: C_8  and  C_9
REMARK    4  A    between atoms: C_11  and  C_12
REMARK    5  A    between atoms: C_15  and  N_16
REMARK    6  A    between atoms: N_19  and  C_20
REMARK                            x       y       z     vdW  Elec       q    Type
REMARK                         _______ _______ _______ _____ _____    ______ ____
ROOT
ATOM      1  C   UNL     1       9.389  12.714  19.112  0.00  0.00    +0.000 A 
ATOM      2  C   UNL     1       9.092  12.093  17.893  0.00  0.00    +0.000 A 
ATOM      3  C   UNL     1       8.894  10.709  17.815  0.00  0.00    +0.000 A 
ATOM      4  C   UNL     1       9.024   9.904  18.946  0.00  0.00    +0.000 A 
ATOM      5  C   UNL     1       9.280  10.511  20.174  0.00  0.00    +0.000 A 
ATOM      6  C   UNL     1       9.438  11.900  20.256  0.00  0.00    +0.000 A 
ENDROOT
BRANCH   1  12
ATOM      7  C   UNL     1       8.821  15.281  19.194  0.00  0.00    +0.000 A 
ATOM      8  N   UNL     1       9.472  16.512  19.182  0.00  0.00    +0.000 NA
ATOM      9  C   UNL     1      10.772  16.341  19.234  0.00  0.00    +0.000 A 
ATOM     10  C   UNL     1      11.770  17.444  19.231  0.00  0.00    +0.000 C 
ATOM     11  S   UNL     1      11.298  14.716  19.292  0.00  0.00    +0.000 S 
ATOM     12  C   UNL     1       9.660  14.164  19.199  0.00  0.00    +0.000 A 
BRANCH   7  17
ATOM     13  C   UNL     1       3.057  14.883  18.963  0.00  0.00    +0.000 C 
ATOM     14  C   UNL     1       4.548  15.027  19.007  0.00  0.00    +0.000 A 
ATOM     15  C   UNL     1       5.327  14.878  17.855  0.00  0.00    +0.000 A 
ATOM     16  C   UNL     1       6.721  14.989  17.922  0.00  0.00    +0.000 A 
ATOM     17  C   UNL     1       7.359  15.252  19.140  0.00  0.00    +0.000 A 
ATOM     18  C   UNL     1       6.570  15.462  20.278  0.00  0.00    +0.000 A 
ATOM     19  C   UNL     1       5.182  15.319  20.219  0.00  0.00    +0.000 A 
ENDBRANCH   7  17
ENDBRANCH   1  12
BRANCH   4  20
ATOM     20  N   UNL     1       8.876   8.502  18.906  0.00  0.00    +0.000 N 
ATOM     21  C   UNL     1       7.945   7.826  18.142  0.00  0.00    +0.000 C 
ATOM     22  O   UNL     1       7.245   8.338  17.270  0.00  0.00    +0.000 OA
ATOM     23  N   UNL     1       7.874   6.491  18.498  0.00  0.00    +0.000 N 
ATOM     24  H   UNL     1       9.645   7.943  19.251  0.00  0.00    +0.000 HD
ATOM     25  H   UNL     1       7.991   6.324  19.492  0.00  0.00    +0.000 HD
BRANCH  23  26
ATOM     26  C   UNL     1       6.964   5.622  17.850  0.00  0.00    +0.000 A 
ATOM     27  C   UNL     1       7.193   5.149  16.553  0.00  0.00    +0.000 A 
ATOM     28  C   UNL     1       6.233   4.359  15.921  0.00  0.00    +0.000 A 
ATOM     29  C   UNL     1       5.048   4.056  16.586  0.00  0.00    +0.000 A 
ATOM     30  F   UNL     1       4.114   3.328  15.960  0.00  0.00    +0.000 F 
ATOM     31  C   UNL     1       4.814   4.501  17.881  0.00  0.00    +0.000 A 
ATOM     32  C   UNL     1       5.786   5.264  18.513  0.00  0.00    +0.000 A 
ATOM     33  F   UNL     1       5.560   5.722  19.754  0.00  0.00    +0.000 F 
ENDBRANCH  23  26
ENDBRANCH   4  20
TORSDOF 4
ENDMDL
MODEL 7
REMARK VINA RESULT:      -8.4      4.028     10.273
REMARK  Name = 
REMARK  6 active torsions:
REMARK  status: ('A' for Active; 'I' for Inactive)
REMARK    1  A    between atoms: C_1  and  C_2
REMARK    2  A    between atoms: C_5  and  C_6
REMARK    3  A    between atoms: C_8  and  C_9
REMARK    4  A    between atoms: C_11  and  C_12
REMARK    5  A    between atoms: C_15  and  N_16
REMARK    6  A    between atoms: N_19  and  C_20
REMARK                            x       y       z     vdW  Elec       q    Type
REMARK                         _______ _______ _______ _____ _____    ______ ____
ROOT
ATOM      1  C   UNL     1       2.950   7.188  18.177  0.00  0.00    +0.000 A 
ATOM      2  C   UNL     1       2.555   7.134  19.519  0.00  0.00    +0.000 A 
ATOM      3  C   UNL     1       1.898   8.212  20.124  0.00  0.00    +0.000 A 
ATOM      4  C   UNL     1       1.653   9.388  19.415  0.00  0.00    +0.000 A 
ATOM      5  C   UNL     1       2.005   9.443  18.068  0.00  0.00    +0.000 A 
ATOM      6  C   UNL     1       2.626   8.348  17.455  0.00  0.00    +0.000 A 
ENDROOT
BRANCH   1  12
ATOM      7  C   UNL     1       3.785   4.718  17.831  0.00  0.00    +0.000 A 
ATOM      8  N   UNL     1       4.698   4.006  17.057  0.00  0.00    +0.000 NA
ATOM      9  C   UNL     1       5.249   4.792  16.163  0.00  0.00    +0.000 A 
ATOM     10  C   UNL     1       6.275   4.360  15.176  0.00  0.00    +0.000 C 
ATOM     11  S   UNL     1       4.727   6.419  16.193  0.00  0.00    +0.000 S 
ATOM     12  C   UNL     1       3.697   6.082  17.543  0.00  0.00    +0.000 A 
BRANCH   7  17
ATOM     13  C   UNL     1       0.973   2.177  22.198  0.00  0.00    +0.000 C 
ATOM     14  C   UNL     1       1.709   2.796  21.049  0.00  0.00    +0.000 A 
ATOM     15  C   UNL     1       3.107   2.817  21.007  0.00  0.00    +0.000 A 
ATOM     16  C   UNL     1       3.776   3.424  19.938  0.00  0.00    +0.000 A 
ATOM     17  C   UNL     1       3.059   4.019  18.892  0.00  0.00    +0.000 A 
ATOM     18  C   UNL     1       1.661   3.942  18.908  0.00  0.00    +0.000 A 
ATOM     19  C   UNL     1       0.992   3.364  19.990  0.00  0.00    +0.000 A 
ENDBRANCH   7  17
ENDBRANCH   1  12
BRANCH   4  20
ATOM     20  N   UNL     1       1.034  10.514  19.996  0.00  0.00    +0.000 N 
ATOM     21  C   UNL     1      -0.296  10.587  20.359  0.00  0.00    +0.000 C 
ATOM     22  O   UNL     1      -1.072   9.632  20.386  0.00  0.00    +0.000 OA
ATOM     23  N   UNL     1      -0.665  11.885  20.665  0.00  0.00    +0.000 N 
ATOM     24  H   UNL     1       1.636  11.216  20.406  0.00  0.00    +0.000 HD
ATOM     25  H   UNL     1      -0.217  12.587  20.086  0.00  0.00    +0.000 HD
BRANCH  23  26
ATOM     26  C   UNL     1      -1.997  12.183  21.041  0.00  0.00    +0.000 A 
ATOM     27  C   UNL     1      -2.972  12.520  20.095  0.00  0.00    +0.000 A 
ATOM     28  C   UNL     1      -4.252  12.885  20.515  0.00  0.00    +0.000 A 
ATOM     29  C   UNL     1      -4.544  12.920  21.875  0.00  0.00    +0.000 A 
ATOM     30  F   UNL     1      -5.762  13.307  22.274  0.00  0.00    +0.000 F 
ATOM     31  C   UNL     1      -3.593  12.570  22.826  0.00  0.00    +0.000 A 
ATOM     32  C   UNL     1      -2.330  12.181  22.399  0.00  0.00    +0.000 A 
ATOM     33  F   UNL     1      -1.396  11.866  23.309  0.00  0.00    +0.000 F 
ENDBRANCH  23  26
ENDBRANCH   4  20
TORSDOF 4
ENDMDL
MODEL 8
REMARK VINA RESULT:      -8.4      4.901     10.683
REMARK  Name = 
REMARK  6 active torsions:
REMARK  status: ('A' for Active; 'I' for Inactive)
REMARK    1  A    between atoms: C_1  and  C_2
REMARK    2  A    between atoms: C_5  and  C_6
REMARK    3  A    between atoms: C_8  and  C_9
REMARK    4  A    between atoms: C_11  and  C_12
REMARK    5  A    between atoms: C_15  and  N_16
REMARK    6  A    between atoms: N_19  and  C_20
REMARK                            x       y       z     vdW  Elec       q    Type
REMARK                         _______ _______ _______ _____ _____    ______ ____
ROOT
ATOM      1  C   UNL     1       2.480   6.809  19.257  0.00  0.00    +0.000 A 
ATOM      2  C   UNL     1       2.900   7.256  17.998  0.00  0.00    +0.000 A 
ATOM      3  C   UNL     1       2.599   8.549  17.553  0.00  0.00    +0.000 A 
ATOM      4  C   UNL     1       1.838   9.416  18.335  0.00  0.00    +0.000 A 
ATOM      5  C   UNL     1       1.446   9.000  19.606  0.00  0.00    +0.000 A 
ATOM      6  C   UNL     1       1.782   7.721  20.066  0.00  0.00    +0.000 A 
ENDROOT
BRANCH   1  12
ATOM      7  C   UNL     1       3.598   4.429  19.257  0.00  0.00    +0.000 A 
ATOM      8  N   UNL     1       3.473   3.198  19.897  0.00  0.00    +0.000 NA
ATOM      9  C   UNL     1       2.581   3.272  20.856  0.00  0.00    +0.000 A 
ATOM     10  C   UNL     1       2.192   2.137  21.736  0.00  0.00    +0.000 C 
ATOM     11  S   UNL     1       1.835   4.796  21.051  0.00  0.00    +0.000 S 
ATOM     12  C   UNL     1       2.738   5.429  19.715  0.00  0.00    +0.000 A 
BRANCH   7  17
ATOM     13  C   UNL     1       7.176   5.139  14.770  0.00  0.00    +0.000 C 
ATOM     14  C   UNL     1       6.264   4.915  15.938  0.00  0.00    +0.000 A 
ATOM     15  C   UNL     1       5.075   4.191  15.803  0.00  0.00    +0.000 A 
ATOM     16  C   UNL     1       4.223   4.016  16.900  0.00  0.00    +0.000 A 
ATOM     17  C   UNL     1       4.547   4.558  18.150  0.00  0.00    +0.000 A 
ATOM     18  C   UNL     1       5.768   5.229  18.294  0.00  0.00    +0.000 A 
ATOM     19  C   UNL     1       6.603   5.433  17.192  0.00  0.00    +0.000 A 
ENDBRANCH   7  17
ENDBRANCH   1  12
BRANCH   4  20
ATOM     20  N   UNL     1       1.475  10.710  17.908  0.00  0.00    +0.000 N 
ATOM     21  C   UNL     1       1.402  11.822  18.725  0.00  0.00    +0.000 C 
ATOM     22  O   UNL     1       1.808  11.871  19.885  0.00  0.00    +0.000 OA
ATOM     23  N   UNL     1       0.783  12.879  18.082  0.00  0.00    +0.000 N 
ATOM     24  H   UNL     1       1.515  10.901  16.916  0.00  0.00    +0.000 HD
ATOM     25  H   UNL     1       0.025  12.601  17.468  0.00  0.00    +0.000 HD
BRANCH  23  26
ATOM     26  C   UNL     1       0.587  14.111  18.752  0.00  0.00    +0.000 A 
ATOM     27  C   UNL     1       1.568  15.108  18.762  0.00  0.00    +0.000 A 
ATOM     28  C   UNL     1       1.366  16.276  19.500  0.00  0.00    +0.000 A 
ATOM     29  C   UNL     1       0.191  16.431  20.229  0.00  0.00    +0.000 A 
ATOM     30  F   UNL     1       0.019  17.536  20.966  0.00  0.00    +0.000 F 
ATOM     31  C   UNL     1      -0.801  15.459  20.214  0.00  0.00    +0.000 A 
ATOM     32  C   UNL     1      -0.604  14.313  19.454  0.00  0.00    +0.000 A 
ATOM     33  F   UNL     1      -1.545  13.355  19.453  0.00  0.00    +0.000 F 
ENDBRANCH  23  26
ENDBRANCH   4  20
TORSDOF 4
ENDMDL
MODEL 9
REMARK VINA RESULT:      -8.4      2.047      2.779
REMARK  Name = 
REMARK  6 active torsions:
REMARK  status: ('A' for Active; 'I' for Inactive)
REMARK    1  A    between atoms: C_1  and  C_2
REMARK    2  A    between atoms: C_5  and  C_6
REMARK    3  A    between atoms: C_8  and  C_9
REMARK    4  A    between atoms: C_11  and  C_12
REMARK    5  A    between atoms: C_15  and  N_16
REMARK    6  A    between atoms: N_19  and  C_20
REMARK                            x       y       z     vdW  Elec       q    Type
REMARK                         _______ _______ _______ _____ _____    ______ ____
ROOT
ATOM      1  C   UNL     1      -0.418  10.627  20.812  0.00  0.00    +0.000 A 
ATOM      2  C   UNL     1       0.423  10.468  19.704  0.00  0.00    +0.000 A 
ATOM      3  C   UNL     1       1.245   9.342  19.575  0.00  0.00    +0.000 A 
ATOM      4  C   UNL     1       1.278   8.364  20.569  0.00  0.00    +0.000 A 
ATOM      5  C   UNL     1       0.419   8.488  21.659  0.00  0.00    +0.000 A 
ATOM      6  C   UNL     1      -0.431   9.596  21.765  0.00  0.00    +0.000 A 
ENDROOT
BRANCH   1  12
ATOM      7  C   UNL     1      -2.203  12.452  20.180  0.00  0.00    +0.000 A 
ATOM      8  N   UNL     1      -2.695  13.664  20.657  0.00  0.00    +0.000 NA
ATOM      9  C   UNL     1      -2.170  13.941  21.827  0.00  0.00    +0.000 A 
ATOM     10  C   UNL     1      -2.469  15.164  22.620  0.00  0.00    +0.000 C 
ATOM     11  S   UNL     1      -1.060  12.788  22.426  0.00  0.00    +0.000 S 
ATOM     12  C   UNL     1      -1.246  11.838  20.991  0.00  0.00    +0.000 A 
BRANCH   7  17
ATOM     13  C   UNL     1      -3.891  10.271  15.098  0.00  0.00    +0.000 C 
ATOM     14  C   UNL     1      -3.459  10.876  16.399  0.00  0.00    +0.000 A 
ATOM     15  C   UNL     1      -2.160  11.364  16.578  0.00  0.00    +0.000 A 
ATOM     16  C   UNL     1      -1.767  11.901  17.809  0.00  0.00    +0.000 A 
ATOM     17  C   UNL     1      -2.666  11.962  18.882  0.00  0.00    +0.000 A 
ATOM     18  C   UNL     1      -3.982  11.528  18.678  0.00  0.00    +0.000 A 
ATOM     19  C   UNL     1      -4.366  10.962  17.460  0.00  0.00    +0.000 A 
ENDBRANCH   7  17
ENDBRANCH   1  12
BRANCH   4  20
ATOM     20  N   UNL     1       2.122   7.237  20.502  0.00  0.00    +0.000 N 
ATOM     21  C   UNL     1       2.866   6.869  19.398  0.00  0.00    +0.000 C 
ATOM     22  O   UNL     1       3.028   7.564  18.395  0.00  0.00    +0.000 OA
ATOM     23  N   UNL     1       3.392   5.598  19.544  0.00  0.00    +0.000 N 
ATOM     24  H   UNL     1       2.402   6.812  21.376  0.00  0.00    +0.000 HD
ATOM     25  H   UNL     1       2.778   4.952  20.029  0.00  0.00    +0.000 HD
BRANCH  23  26
ATOM     26  C   UNL     1       4.172   5.020  18.514  0.00  0.00    +0.000 A 
ATOM     27  C   UNL     1       5.565   5.149  18.483  0.00  0.00    +0.000 A 
ATOM     28  C   UNL     1       6.288   4.632  17.408  0.00  0.00    +0.000 A 
ATOM     29  C   UNL     1       5.613   4.000  16.368  0.00  0.00    +0.000 A 
ATOM     30  F   UNL     1       6.308   3.538  15.321  0.00  0.00    +0.000 F 
ATOM     31  C   UNL     1       4.232   3.846  16.393  0.00  0.00    +0.000 A 
ATOM     32  C   UNL     1       3.523   4.339  17.480  0.00  0.00    +0.000 A 
ATOM     33  F   UNL     1       2.186   4.220  17.502  0.00  0.00    +0.000 F 
ENDBRANCH  23  26
ENDBRANCH   4  20
TORSDOF 4
ENDMDL
