MODEL 1
REMARK VINA RESULT:      -8.4      0.000      0.000
REMARK  Name = 
REMARK  6 active torsions:
REMARK  status: ('A' for Active; 'I' for Inactive)
REMARK    1  A    between atoms: C_1  and  O_2
REMARK    2  A    between atoms: O_2  and  C_3
REMARK    3  A    between atoms: C_6  and  C_7
REMARK    4  A    between atoms: C_9  and  N_10
REMARK    5  A    between atoms: C_16  and  N_17
REMARK    6  A    between atoms: C_20  and  C_21
REMARK                            x       y       z     vdW  Elec       q    Type
REMARK                         _______ _______ _______ _____ _____    ______ ____
ROOT
ATOM      1  N   UNL     1       2.703   7.038  17.874  0.00  0.00    +0.000 N 
ATOM      2  C   UNL     1       2.201   7.712  18.980  0.00  0.00    +0.000 A 
ATOM      3  N   UNL     1       2.167   7.115  20.179  0.00  0.00    +0.000 NA
ATOM      4  C   UNL     1       1.463   7.732  21.147  0.00  0.00    +0.000 A 
ATOM      5  C   UNL     1       0.837   8.946  20.981  0.00  0.00    +0.000 A 
ATOM      6 BR   UNL     1      -0.214   9.668  22.373  0.00  0.00    +0.000 Br
ATOM      7  C   UNL     1       1.002   9.554  19.748  0.00  0.00    +0.000 A 
ATOM      8  N   UNL     1       1.657   8.916  18.751  0.00  0.00    +0.000 NA
ATOM      9  H   UNL     1       2.491   7.507  17.006  0.00  0.00    +0.000 HD
ENDROOT
BRANCH   7  10
ATOM     10  N   UNL     1       0.404  10.812  19.498  0.00  0.00    +0.000 N 
ATOM     11  C   UNL     1      -0.610  11.118  18.655  0.00  0.00    +0.000 A 
ATOM     12  C   UNL     1      -1.537  10.196  18.119  0.00  0.00    +0.000 A 
ATOM     13  C   UNL     1      -2.321  10.925  17.269  0.00  0.00    +0.000 A 
ATOM     14  N   UNL     1      -1.908  12.215  17.398  0.00  0.00    +0.000 N 
ATOM     15  N   UNL     1      -0.861  12.362  18.233  0.00  0.00    +0.000 NA
ATOM     16  H   UNL     1       1.037  11.582  19.685  0.00  0.00    +0.000 HD
ATOM     17  H   UNL     1      -2.282  13.035  16.937  0.00  0.00    +0.000 HD
BRANCH  13  18
ATOM     18  C   UNL     1      -3.373  10.331  16.365  0.00  0.00    +0.000 C 
ATOM     19  C   UNL     1      -3.821  11.080  15.136  0.00  0.00    +0.000 C 
ATOM     20  C   UNL     1      -2.940   9.885  14.986  0.00  0.00    +0.000 C 
ENDBRANCH  13  18
ENDBRANCH   7  10
BRANCH   1  27
ATOM     21  C   UNL     1       3.352   4.693  17.613  0.00  0.00    +0.000 A 
ATOM     22  C   UNL     1       4.359   3.725  17.489  0.00  0.00    +0.000 A 
ATOM     23  C   UNL     1       5.704   4.089  17.560  0.00  0.00    +0.000 A 
ATOM     24  C   UNL     1       6.063   5.421  17.759  0.00  0.00    +0.000 A 
ATOM     25  C   UNL     1       7.502   5.836  17.826  0.00  0.00    +0.000 C 
ATOM     26  C   UNL     1       5.057   6.387  17.885  0.00  0.00    +0.000 A 
ATOM     27  C   UNL     1       3.698   6.050  17.783  0.00  0.00    +0.000 A 
BRANCH  21  29
ATOM     28  C   UNL     1       1.526   3.609  18.662  0.00  0.00    +0.000 C 
ATOM     29  O   UNL     1       2.009   4.389  17.569  0.00  0.00    +0.000 OA
ENDBRANCH  21  29
ENDBRANCH   1  27
TORSDOF 4
ENDMDL
MODEL 2
REMARK VINA RESULT:      -7.9      1.087      2.151
REMARK  Name = 
REMARK  6 active torsions:
REMARK  status: ('A' for Active; 'I' for Inactive)
REMARK    1  A    between atoms: C_1  and  O_2
REMARK    2  A    between atoms: O_2  and  C_3
REMARK    3  A    between atoms: C_6  and  C_7
REMARK    4  A    between atoms: C_9  and  N_10
REMARK    5  A    between atoms: C_16  and  N_17
REMARK    6  A    between atoms: C_20  and  C_21
REMARK                            x       y       z     vdW  Elec       q    Type
REMARK                         _______ _______ _______ _____ _____    ______ ____
ROOT
ATOM      1  N   UNL     1       2.573   6.686  17.893  0.00  0.00    +0.000 N 
ATOM      2  C   UNL     1       2.158   7.416  18.998  0.00  0.00    +0.000 A 
ATOM      3  N   UNL     1       2.079   6.836  20.204  0.00  0.00    +0.000 NA
ATOM      4  C   UNL     1       1.456   7.529  21.175  0.00  0.00    +0.000 A 
ATOM      5  C   UNL     1       0.956   8.799  21.006  0.00  0.00    +0.000 A 
ATOM      6 BR   UNL     1       0.003   9.637  22.405  0.00  0.00    +0.000 Br
ATOM      7  C   UNL     1       1.165   9.378  19.765  0.00  0.00    +0.000 A 
ATOM      8  N   UNL     1       1.738   8.668  18.766  0.00  0.00    +0.000 NA
ATOM      9  H   UNL     1       2.399   7.168  17.023  0.00  0.00    +0.000 HD
ENDROOT
BRANCH   7  10
ATOM     10  N   UNL     1       0.697  10.689  19.512  0.00  0.00    +0.000 N 
ATOM     11  C   UNL     1      -0.332  11.086  18.727  0.00  0.00    +0.000 A 
ATOM     12  C   UNL     1      -1.391  10.262  18.285  0.00  0.00    +0.000 A 
ATOM     13  C   UNL     1      -2.145  11.052  17.463  0.00  0.00    +0.000 A 
ATOM     14  N   UNL     1      -1.582  12.289  17.520  0.00  0.00    +0.000 N 
ATOM     15  N   UNL     1      -0.470  12.338  18.279  0.00  0.00    +0.000 NA
ATOM     16  H   UNL     1       1.424  11.386  19.630  0.00  0.00    +0.000 HD
ATOM     17  H   UNL     1      -1.893  13.135  17.056  0.00  0.00    +0.000 HD
BRANCH  13  18
ATOM     18  C   UNL     1      -3.317  10.559  16.651  0.00  0.00    +0.000 C 
ATOM     19  C   UNL     1      -3.592  11.146  15.291  0.00  0.00    +0.000 C 
ATOM     20  C   UNL     1      -3.016   9.774  15.393  0.00  0.00    +0.000 C 
ENDBRANCH  13  18
ENDBRANCH   7  10
BRANCH   1  27
ATOM     21  C   UNL     1       4.827   5.811  17.511  0.00  0.00    +0.000 A 
ATOM     22  C   UNL     1       5.705   4.720  17.455  0.00  0.00    +0.000 A 
ATOM     23  C   UNL     1       5.235   3.421  17.652  0.00  0.00    +0.000 A 
ATOM     24  C   UNL     1       3.884   3.193  17.906  0.00  0.00    +0.000 A 
ATOM     25  C   UNL     1       3.360   1.807  18.134  0.00  0.00    +0.000 C 
ATOM     26  C   UNL     1       3.006   4.283  17.960  0.00  0.00    +0.000 A 
ATOM     27  C   UNL     1       3.461   5.600  17.798  0.00  0.00    +0.000 A 
BRANCH  21  29
ATOM     28  C   UNL     1       6.643   7.314  17.295  0.00  0.00    +0.000 C 
ATOM     29  O   UNL     1       5.231   7.112  17.306  0.00  0.00    +0.000 OA
ENDBRANCH  21  29
ENDBRANCH   1  27
TORSDOF 4
ENDMDL
MODEL 3
REMARK VINA RESULT:      -7.6      3.434      8.173
REMARK  Name = 
REMARK  6 active torsions:
REMARK  status: ('A' for Active; 'I' for Inactive)
REMARK    1  A    between atoms: C_1  and  O_2
REMARK    2  A    between atoms: O_2  and  C_3
REMARK    3  A    between atoms: C_6  and  C_7
REMARK    4  A    between atoms: C_9  and  N_10
REMARK    5  A    between atoms: C_16  and  N_17
REMARK    6  A    between atoms: C_20  and  C_21
REMARK                            x       y       z     vdW  Elec       q    Type
REMARK                         _______ _______ _______ _____ _____    ______ ____
ROOT
ATOM      1  N   UNL     1       2.033   9.309  18.311  0.00  0.00    +0.000 N 
ATOM      2  C   UNL     1       2.611   8.046  18.266  0.00  0.00    +0.000 A 
ATOM      3  N   UNL     1       2.041   7.017  18.908  0.00  0.00    +0.000 NA
ATOM      4  C   UNL     1       2.767   5.889  19.015  0.00  0.00    +0.000 A 
ATOM      5  C   UNL     1       4.015   5.727  18.461  0.00  0.00    +0.000 A 
ATOM      6 BR   UNL     1       4.990   4.139  18.765  0.00  0.00    +0.000 Br
ATOM      7  C   UNL     1       4.498   6.795  17.723  0.00  0.00    +0.000 A 
ATOM      8  N   UNL     1       3.802   7.954  17.658  0.00  0.00    +0.000 NA
ATOM      9  H   UNL     1       2.651  10.029  17.966  0.00  0.00    +0.000 HD
ENDROOT
BRANCH   7  10
ATOM     10  N   UNL     1       5.769   6.707  17.105  0.00  0.00    +0.000 N 
ATOM     11  C   UNL     1       6.175   5.879  16.116  0.00  0.00    +0.000 A 
ATOM     12  C   UNL     1       5.325   5.180  15.230  0.00  0.00    +0.000 A 
ATOM     13  C   UNL     1       6.155   4.414  14.460  0.00  0.00    +0.000 A 
ATOM     14  N   UNL     1       7.420   4.744  14.839  0.00  0.00    +0.000 N 
ATOM     15  N   UNL     1       7.463   5.630  15.852  0.00  0.00    +0.000 NA
ATOM     16  H   UNL     1       6.514   7.027  17.714  0.00  0.00    +0.000 HD
ATOM     17  H   UNL     1       8.292   4.391  14.462  0.00  0.00    +0.000 HD
BRANCH  13  18
ATOM     18  C   UNL     1       5.681   3.395  13.454  0.00  0.00    +0.000 C 
ATOM     19  C   UNL     1       4.910   3.838  12.237  0.00  0.00    +0.000 C 
ATOM     20  C   UNL     1       6.330   3.405  12.088  0.00  0.00    +0.000 C 
ENDBRANCH  13  18
ENDBRANCH   7  10
BRANCH   1  27
ATOM     21  C   UNL     1       0.183  10.207  19.636  0.00  0.00    +0.000 A 
ATOM     22  C   UNL     1      -1.155  10.616  19.721  0.00  0.00    +0.000 A 
ATOM     23  C   UNL     1      -2.005  10.492  18.621  0.00  0.00    +0.000 A 
ATOM     24  C   UNL     1      -1.532   9.956  17.424  0.00  0.00    +0.000 A 
ATOM     25  C   UNL     1      -2.424   9.825  16.227  0.00  0.00    +0.000 C 
ATOM     26  C   UNL     1      -0.196   9.546  17.341  0.00  0.00    +0.000 A 
ATOM     27  C   UNL     1       0.686   9.691  18.423  0.00  0.00    +0.000 A 
BRANCH  21  29
ATOM     28  C   UNL     1       0.743   9.463  21.814  0.00  0.00    +0.000 C 
ATOM     29  O   UNL     1       1.062  10.289  20.695  0.00  0.00    +0.000 OA
ENDBRANCH  21  29
ENDBRANCH   1  27
TORSDOF 4
ENDMDL
MODEL 4
REMARK VINA RESULT:      -7.4      2.361      3.451
REMARK  Name = 
REMARK  6 active torsions:
REMARK  status: ('A' for Active; 'I' for Inactive)
REMARK    1  A    between atoms: C_1  and  O_2
REMARK    2  A    between atoms: O_2  and  C_3
REMARK    3  A    between atoms: C_6  and  C_7
REMARK    4  A    between atoms: C_9  and  N_10
REMARK    5  A    between atoms: C_16  and  N_17
REMARK    6  A    between atoms: C_20  and  C_21
REMARK                            x       y       z     vdW  Elec       q    Type
REMARK                         _______ _______ _______ _____ _____    ______ ____
ROOT
ATOM      1  N   UNL     1       2.425   7.304  17.732  0.00  0.00    +0.000 N 
ATOM      2  C   UNL     1       1.958   8.102  18.768  0.00  0.00    +0.000 A 
ATOM      3  N   UNL     1       2.048   7.685  20.038  0.00  0.00    +0.000 NA
ATOM      4  C   UNL     1       1.375   8.395  20.963  0.00  0.00    +0.000 A 
ATOM      5  C   UNL     1       0.659   9.535  20.679  0.00  0.00    +0.000 A 
ATOM      6 BR   UNL     1      -0.338  10.391  22.035  0.00  0.00    +0.000 Br
ATOM      7  C   UNL     1       0.695   9.966  19.363  0.00  0.00    +0.000 A 
ATOM      8  N   UNL     1       1.320   9.228  18.417  0.00  0.00    +0.000 NA
ATOM      9  H   UNL     1       2.121   7.630  16.826  0.00  0.00    +0.000 HD
ENDROOT
BRANCH   7  10
ATOM     10  N   UNL     1      -0.002  11.139  18.988  0.00  0.00    +0.000 N 
ATOM     11  C   UNL     1       0.464  12.406  18.886  0.00  0.00    +0.000 A 
ATOM     12  C   UNL     1       1.822  12.774  18.771  0.00  0.00    +0.000 A 
ATOM     13  C   UNL     1       1.829  14.141  18.776  0.00  0.00    +0.000 A 
ATOM     14  N   UNL     1       0.521  14.517  18.798  0.00  0.00    +0.000 N 
ATOM     15  N   UNL     1      -0.334  13.480  18.873  0.00  0.00    +0.000 NA
ATOM     16  H   UNL     1      -0.995  11.074  19.181  0.00  0.00    +0.000 HD
ATOM     17  H   UNL     1       0.146  15.459  18.782  0.00  0.00    +0.000 HD
BRANCH  13  18
ATOM     18  C   UNL     1       3.079  14.984  18.804  0.00  0.00    +0.000 C 
ATOM     19  C   UNL     1       4.338  14.490  18.139  0.00  0.00    +0.000 C 
ATOM     20  C   UNL     1       3.551  15.581  17.496  0.00  0.00    +0.000 C 
ENDBRANCH  13  18
ENDBRANCH   7  10
BRANCH   1  27
ATOM     21  C   UNL     1       3.213   4.989  17.799  0.00  0.00    +0.000 A 
ATOM     22  C   UNL     1       4.270   4.071  17.732  0.00  0.00    +0.000 A 
ATOM     23  C   UNL     1       5.586   4.513  17.598  0.00  0.00    +0.000 A 
ATOM     24  C   UNL     1       5.866   5.877  17.532  0.00  0.00    +0.000 A 
ATOM     25  C   UNL     1       7.271   6.375  17.375  0.00  0.00    +0.000 C 
ATOM     26  C   UNL     1       4.810   6.794  17.600  0.00  0.00    +0.000 A 
ATOM     27  C   UNL     1       3.476   6.372  17.702  0.00  0.00    +0.000 A 
BRANCH  21  29
ATOM     28  C   UNL     1       1.570   4.041  19.217  0.00  0.00    +0.000 C 
ATOM     29  O   UNL     1       1.897   4.609  17.949  0.00  0.00    +0.000 OA
ENDBRANCH  21  29
ENDBRANCH   1  27
TORSDOF 4
ENDMDL
MODEL 5
REMARK VINA RESULT:      -7.3      2.817      4.647
REMARK  Name = 
REMARK  6 active torsions:
REMARK  status: ('A' for Active; 'I' for Inactive)
REMARK    1  A    between atoms: C_1  and  O_2
REMARK    2  A    between atoms: O_2  and  C_3
REMARK    3  A    between atoms: C_6  and  C_7
REMARK    4  A    between atoms: C_9  and  N_10
REMARK    5  A    between atoms: C_16  and  N_17
REMARK    6  A    between atoms: C_20  and  C_21
REMARK                            x       y       z     vdW  Elec       q    Type
REMARK                         _______ _______ _______ _____ _____    ______ ____
ROOT
ATOM      1  N   UNL     1       4.374   5.796  16.819  0.00  0.00    +0.000 N 
ATOM      2  C   UNL     1       3.871   5.182  17.958  0.00  0.00    +0.000 A 
ATOM      3  N   UNL     1       3.808   3.845  18.036  0.00  0.00    +0.000 NA
ATOM      4  C   UNL     1       3.104   3.327  19.060  0.00  0.00    +0.000 A 
ATOM      5  C   UNL     1       2.505   4.087  20.038  0.00  0.00    +0.000 A 
ATOM      6 BR   UNL     1       1.450   3.261  21.368  0.00  0.00    +0.000 Br
ATOM      7  C   UNL     1       2.699   5.456  19.952  0.00  0.00    +0.000 A 
ATOM      8  N   UNL     1       3.355   5.990  18.896  0.00  0.00    +0.000 NA
ATOM      9  H   UNL     1       4.184   6.787  16.797  0.00  0.00    +0.000 HD
ENDROOT
BRANCH   7  10
ATOM     10  N   UNL     1       2.131   6.310  20.927  0.00  0.00    +0.000 N 
ATOM     11  C   UNL     1       1.630   7.558  20.773  0.00  0.00    +0.000 A 
ATOM     12  C   UNL     1       1.226   8.134  19.548  0.00  0.00    +0.000 A 
ATOM     13  C   UNL     1       0.867   9.418  19.853  0.00  0.00    +0.000 A 
ATOM     14  N   UNL     1       0.978   9.521  21.205  0.00  0.00    +0.000 N 
ATOM     15  N   UNL     1       1.448   8.404  21.793  0.00  0.00    +0.000 NA
ATOM     16  H   UNL     1       2.476   6.112  21.859  0.00  0.00    +0.000 HD
ATOM     17  H   UNL     1       0.767  10.325  21.785  0.00  0.00    +0.000 HD
BRANCH  13  18
ATOM     18  C   UNL     1       0.489  10.460  18.830  0.00  0.00    +0.000 C 
ATOM     19  C   UNL     1      -0.775  10.301  18.023  0.00  0.00    +0.000 C 
ATOM     20  C   UNL     1      -0.726  11.314  19.117  0.00  0.00    +0.000 C 
ENDBRANCH  13  18
ENDBRANCH   7  10
BRANCH   1  27
ATOM     21  C   UNL     1       6.717   5.632  16.131  0.00  0.00    +0.000 A 
ATOM     22  C   UNL     1       7.681   5.162  15.229  0.00  0.00    +0.000 A 
ATOM     23  C   UNL     1       7.299   4.452  14.090  0.00  0.00    +0.000 A 
ATOM     24  C   UNL     1       5.950   4.204  13.835  0.00  0.00    +0.000 A 
ATOM     25  C   UNL     1       5.518   3.432  12.625  0.00  0.00    +0.000 C 
ATOM     26  C   UNL     1       4.988   4.675  14.737  0.00  0.00    +0.000 A 
ATOM     27  C   UNL     1       5.350   5.362  15.906  0.00  0.00    +0.000 A 
BRANCH  21  29
ATOM     28  C   UNL     1       7.597   5.593  18.330  0.00  0.00    +0.000 C 
ATOM     29  O   UNL     1       7.035   6.354  17.261  0.00  0.00    +0.000 OA
ENDBRANCH  21  29
ENDBRANCH   1  27
TORSDOF 4
ENDMDL
MODEL 6
REMARK VINA RESULT:      -7.1      3.145      8.018
REMARK  Name = 
REMARK  6 active torsions:
REMARK  status: ('A' for Active; 'I' for Inactive)
REMARK    1  A    between atoms: C_1  and  O_2
REMARK    2  A    between atoms: O_2  and  C_3
REMARK    3  A    between atoms: C_6  and  C_7
REMARK    4  A    between atoms: C_9  and  N_10
REMARK    5  A    between atoms: C_16  and  N_17
REMARK    6  A    between atoms: C_20  and  C_21
REMARK                            x       y       z     vdW  Elec       q    Type
REMARK                         _______ _______ _______ _____ _____    ______ ____
ROOT
ATOM      1  N   UNL     1       1.876   8.700  20.006  0.00  0.00    +0.000 N 
ATOM      2  C   UNL     1       2.044   7.321  19.989  0.00  0.00    +0.000 A 
ATOM      3  N   UNL     1       1.041   6.512  20.353  0.00  0.00    +0.000 NA
ATOM      4  C   UNL     1       1.341   5.212  20.534  0.00  0.00    +0.000 A 
ATOM      5  C   UNL     1       2.590   4.678  20.315  0.00  0.00    +0.000 A 
ATOM      6 BR   UNL     1       2.927   2.862  20.705  0.00  0.00    +0.000 Br
ATOM      7  C   UNL     1       3.553   5.554  19.840  0.00  0.00    +0.000 A 
ATOM      8  N   UNL     1       3.276   6.872  19.710  0.00  0.00    +0.000 NA
ATOM      9  H   UNL     1       2.749   9.197  19.910  0.00  0.00    +0.000 HD
ENDROOT
BRANCH   7  10
ATOM     10  N   UNL     1       4.861   5.084  19.573  0.00  0.00    +0.000 N 
ATOM     11  C   UNL     1       5.463   4.884  18.377  0.00  0.00    +0.000 A 
ATOM     12  C   UNL     1       5.054   5.449  17.149  0.00  0.00    +0.000 A 
ATOM     13  C   UNL     1       5.893   4.917  16.209  0.00  0.00    +0.000 A 
ATOM     14  N   UNL     1       6.789   4.161  16.899  0.00  0.00    +0.000 N 
ATOM     15  N   UNL     1       6.548   4.117  18.223  0.00  0.00    +0.000 NA
ATOM     16  H   UNL     1       5.221   4.504  20.323  0.00  0.00    +0.000 HD
ATOM     17  H   UNL     1       7.575   3.638  16.529  0.00  0.00    +0.000 HD
BRANCH  13  18
ATOM     18  C   UNL     1       5.749   5.133  14.723  0.00  0.00    +0.000 C 
ATOM     19  C   UNL     1       6.882   4.774  13.796  0.00  0.00    +0.000 C 
ATOM     20  C   UNL     1       5.671   3.905  13.842  0.00  0.00    +0.000 C 
ENDBRANCH  13  18
ENDBRANCH   7  10
BRANCH   1  27
ATOM     21  C   UNL     1       0.213  10.295  20.828  0.00  0.00    +0.000 A 
ATOM     22  C   UNL     1      -0.914  11.094  20.592  0.00  0.00    +0.000 A 
ATOM     23  C   UNL     1      -1.553  11.070  19.352  0.00  0.00    +0.000 A 
ATOM     24  C   UNL     1      -1.077  10.247  18.332  0.00  0.00    +0.000 A 
ATOM     25  C   UNL     1      -1.740  10.215  16.988  0.00  0.00    +0.000 C 
ATOM     26  C   UNL     1       0.048   9.448  18.569  0.00  0.00    +0.000 A 
ATOM     27  C   UNL     1       0.726   9.480  19.797  0.00  0.00    +0.000 A 
BRANCH  21  29
ATOM     28  C   UNL     1       0.234   9.497  23.058  0.00  0.00    +0.000 C 
ATOM     29  O   UNL     1       0.872  10.265  22.038  0.00  0.00    +0.000 OA
ENDBRANCH  21  29
ENDBRANCH   1  27
TORSDOF 4
ENDMDL
MODEL 7
REMARK VINA RESULT:      -7.0      1.981      2.792
REMARK  Name = 
REMARK  6 active torsions:
REMARK  status: ('A' for Active; 'I' for Inactive)
REMARK    1  A    between atoms: C_1  and  O_2
REMARK    2  A    between atoms: O_2  and  C_3
REMARK    3  A    between atoms: C_6  and  C_7
REMARK    4  A    between atoms: C_9  and  N_10
REMARK    5  A    between atoms: C_16  and  N_17
REMARK    6  A    between atoms: C_20  and  C_21
REMARK                            x       y       z     vdW  Elec       q    Type
REMARK                         _______ _______ _______ _____ _____    ______ ____
ROOT
ATOM      1  N   UNL     1       4.033   7.296  16.526  0.00  0.00    +0.000 N 
ATOM      2  C   UNL     1       3.384   7.511  17.735  0.00  0.00    +0.000 A 
ATOM      3  N   UNL     1       3.297   6.528  18.642  0.00  0.00    +0.000 NA
ATOM      4  C   UNL     1       2.465   6.729  19.681  0.00  0.00    +0.000 A 
ATOM      5  C   UNL     1       1.757   7.891  19.879  0.00  0.00    +0.000 A 
ATOM      6 BR   UNL     1       0.534   8.024  21.311  0.00  0.00    +0.000 Br
ATOM      7  C   UNL     1       1.975   8.903  18.959  0.00  0.00    +0.000 A 
ATOM      8  N   UNL     1       2.764   8.690  17.881  0.00  0.00    +0.000 NA
ATOM      9  H   UNL     1       3.858   8.031  15.858  0.00  0.00    +0.000 HD
ENDROOT
BRANCH   7  10
ATOM     10  N   UNL     1       1.299  10.139  19.098  0.00  0.00    +0.000 N 
ATOM     11  C   UNL     1       0.139  10.540  18.527  0.00  0.00    +0.000 A 
ATOM     12  C   UNL     1      -0.837   9.686  17.966  0.00  0.00    +0.000 A 
ATOM     13  C   UNL     1      -1.787  10.518  17.443  0.00  0.00    +0.000 A 
ATOM     14  N   UNL     1      -1.402  11.778  17.781  0.00  0.00    +0.000 N 
ATOM     15  N   UNL     1      -0.227  11.823  18.438  0.00  0.00    +0.000 NA
ATOM     16  H   UNL     1       1.928  10.896  19.339  0.00  0.00    +0.000 HD
ATOM     17  H   UNL     1      -1.883  12.648  17.582  0.00  0.00    +0.000 HD
BRANCH  13  18
ATOM     18  C   UNL     1      -2.964  10.052  16.622  0.00  0.00    +0.000 C 
ATOM     19  C   UNL     1      -3.795  11.053  15.860  0.00  0.00    +0.000 C 
ATOM     20  C   UNL     1      -2.856  10.162  15.117  0.00  0.00    +0.000 C 
ENDBRANCH  13  18
ENDBRANCH   7  10
BRANCH   1  27
ATOM     21  C   UNL     1       6.353   6.594  16.863  0.00  0.00    +0.000 A 
ATOM     22  C   UNL     1       7.407   5.722  16.559  0.00  0.00    +0.000 A 
ATOM     23  C   UNL     1       7.250   4.731  15.590  0.00  0.00    +0.000 A 
ATOM     24  C   UNL     1       6.040   4.597  14.910  0.00  0.00    +0.000 A 
ATOM     25  C   UNL     1       5.844   3.532  13.875  0.00  0.00    +0.000 C 
ATOM     26  C   UNL     1       4.987   5.470  15.214  0.00  0.00    +0.000 A 
ATOM     27  C   UNL     1       5.112   6.453  16.208  0.00  0.00    +0.000 A 
BRANCH  21  29
ATOM     28  C   UNL     1       7.647   8.386  17.713  0.00  0.00    +0.000 C 
ATOM     29  O   UNL     1       6.458   7.602  17.797  0.00  0.00    +0.000 OA
ENDBRANCH  21  29
ENDBRANCH   1  27
TORSDOF 4
ENDMDL
MODEL 8
REMARK VINA RESULT:      -7.0      2.551      8.134
REMARK  Name = 
REMARK  6 active torsions:
REMARK  status: ('A' for Active; 'I' for Inactive)
REMARK    1  A    between atoms: C_1  and  O_2
REMARK    2  A    between atoms: O_2  and  C_3
REMARK    3  A    between atoms: C_6  and  C_7
REMARK    4  A    between atoms: C_9  and  N_10
REMARK    5  A    between atoms: C_16  and  N_17
REMARK    6  A    between atoms: C_20  and  C_21
REMARK                            x       y       z     vdW  Elec       q    Type
REMARK                         _______ _______ _______ _____ _____    ______ ____
ROOT
ATOM      1  N   UNL     1       1.792   9.895  18.307  0.00  0.00    +0.000 N 
ATOM      2  C   UNL     1       1.704   8.648  18.913  0.00  0.00    +0.000 A 
ATOM      3  N   UNL     1       1.309   8.542  20.190  0.00  0.00    +0.000 NA
ATOM      4  C   UNL     1       1.467   7.342  20.778  0.00  0.00    +0.000 A 
ATOM      5  C   UNL     1       1.952   6.230  20.130  0.00  0.00    +0.000 A 
ATOM      6 BR   UNL     1       2.235   4.624  21.082  0.00  0.00    +0.000 Br
ATOM      7  C   UNL     1       2.241   6.386  18.784  0.00  0.00    +0.000 A 
ATOM      8  N   UNL     1       2.142   7.602  18.199  0.00  0.00    +0.000 NA
ATOM      9  H   UNL     1       2.286   9.863  17.427  0.00  0.00    +0.000 HD
ENDROOT
BRANCH   7  10
ATOM     10  N   UNL     1       2.731   5.288  18.038  0.00  0.00    +0.000 N 
ATOM     11  C   UNL     1       4.013   4.956  17.758  0.00  0.00    +0.000 A 
ATOM     12  C   UNL     1       5.150   5.417  18.457  0.00  0.00    +0.000 A 
ATOM     13  C   UNL     1       6.222   4.895  17.788  0.00  0.00    +0.000 A 
ATOM     14  N   UNL     1       5.699   4.100  16.816  0.00  0.00    +0.000 N 
ATOM     15  N   UNL     1       4.353   4.123  16.769  0.00  0.00    +0.000 NA
ATOM     16  H   UNL     1       2.056   4.956  17.358  0.00  0.00    +0.000 HD
ATOM     17  H   UNL     1       6.201   3.531  16.143  0.00  0.00    +0.000 HD
BRANCH  13  18
ATOM     18  C   UNL     1       7.660   5.227  18.098  0.00  0.00    +0.000 C 
ATOM     19  C   UNL     1       8.033   6.614  18.554  0.00  0.00    +0.000 C 
ATOM     20  C   UNL     1       8.021   5.497  19.542  0.00  0.00    +0.000 C 
ENDBRANCH  13  18
ENDBRANCH   7  10
BRANCH   1  27
ATOM     21  C   UNL     1      -0.339  11.099  18.288  0.00  0.00    +0.000 A 
ATOM     22  C   UNL     1      -1.067  12.268  18.545  0.00  0.00    +0.000 A 
ATOM     23  C   UNL     1      -0.424  13.416  19.008  0.00  0.00    +0.000 A 
ATOM     24  C   UNL     1       0.954  13.414  19.218  0.00  0.00    +0.000 A 
ATOM     25  C   UNL     1       1.664  14.632  19.726  0.00  0.00    +0.000 C 
ATOM     26  C   UNL     1       1.682  12.246  18.960  0.00  0.00    +0.000 A 
ATOM     27  C   UNL     1       1.052  11.069  18.526  0.00  0.00    +0.000 A 
BRANCH  21  29
ATOM     28  C   UNL     1      -2.033  10.134  16.943  0.00  0.00    +0.000 C 
ATOM     29  O   UNL     1      -0.918   9.942  17.813  0.00  0.00    +0.000 OA
ENDBRANCH  21  29
ENDBRANCH   1  27
TORSDOF 4
ENDMDL
MODEL 9
REMARK VINA RESULT:      -6.8      2.972      8.421
REMARK  Name = 
REMARK  6 active torsions:
REMARK  status: ('A' for Active; 'I' for Inactive)
REMARK    1  A    between atoms: C_1  and  O_2
REMARK    2  A    between atoms: O_2  and  C_3
REMARK    3  A    between atoms: C_6  and  C_7
REMARK    4  A    between atoms: C_9  and  N_10
REMARK    5  A    between atoms: C_16  and  N_17
REMARK    6  A    between atoms: C_20  and  C_21
REMARK                            x       y       z     vdW  Elec       q    Type
REMARK                         _______ _______ _______ _____ _____    ______ ____
ROOT
ATOM      1  N   UNL     1       1.671  10.141  18.319  0.00  0.00    +0.000 N 
ATOM      2  C   UNL     1       1.623   8.879  18.897  0.00  0.00    +0.000 A 
ATOM      3  N   UNL     1       1.269   8.735  20.181  0.00  0.00    +0.000 NA
ATOM      4  C   UNL     1       1.465   7.523  20.735  0.00  0.00    +0.000 A 
ATOM      5  C   UNL     1       1.950   6.437  20.044  0.00  0.00    +0.000 A 
ATOM      6 BR   UNL     1       2.289   4.813  20.947  0.00  0.00    +0.000 Br
ATOM      7  C   UNL     1       2.196   6.631  18.695  0.00  0.00    +0.000 A 
ATOM      8  N   UNL     1       2.057   7.859  18.143  0.00  0.00    +0.000 NA
ATOM      9  H   UNL     1       2.139  10.140  17.425  0.00  0.00    +0.000 HD
ENDROOT
BRANCH   7  10
ATOM     10  N   UNL     1       2.681   5.561  17.906  0.00  0.00    +0.000 N 
ATOM     11  C   UNL     1       3.961   5.243  17.603  0.00  0.00    +0.000 A 
ATOM     12  C   UNL     1       5.104   5.684  18.305  0.00  0.00    +0.000 A 
ATOM     13  C   UNL     1       6.171   5.189  17.609  0.00  0.00    +0.000 A 
ATOM     14  N   UNL     1       5.641   4.425  16.615  0.00  0.00    +0.000 N 
ATOM     15  N   UNL     1       4.294   4.445  16.583  0.00  0.00    +0.000 NA
ATOM     16  H   UNL     1       2.000   5.249  17.223  0.00  0.00    +0.000 HD
ATOM     17  H   UNL     1       6.137   3.881  15.918  0.00  0.00    +0.000 HD
BRANCH  13  18
ATOM     18  C   UNL     1       7.611   5.515  17.915  0.00  0.00    +0.000 C 
ATOM     19  C   UNL     1       7.982   6.885  18.423  0.00  0.00    +0.000 C 
ATOM     20  C   UNL     1       7.987   5.728  19.365  0.00  0.00    +0.000 C 
ENDBRANCH  13  18
ENDBRANCH   7  10
BRANCH   1  27
ATOM     21  C   UNL     1       1.517  12.573  18.542  0.00  0.00    +0.000 A 
ATOM     22  C   UNL     1       0.744  13.718  18.779  0.00  0.00    +0.000 A 
ATOM     23  C   UNL     1      -0.611  13.605  19.092  0.00  0.00    +0.000 A 
ATOM     24  C   UNL     1      -1.212  12.349  19.174  0.00  0.00    +0.000 A 
ATOM     25  C   UNL     1      -2.669  12.205  19.495  0.00  0.00    +0.000 C 
ATOM     26  C   UNL     1      -0.438  11.206  18.938  0.00  0.00    +0.000 A 
ATOM     27  C   UNL     1       0.918  11.297  18.590  0.00  0.00    +0.000 A 
BRANCH  21  29
ATOM     28  C   UNL     1       3.456  13.919  18.341  0.00  0.00    +0.000 C 
ATOM     29  O   UNL     1       2.863  12.624  18.248  0.00  0.00    +0.000 OA
ENDBRANCH  21  29
ENDBRANCH   1  27
TORSDOF 4
ENDMDL
