MODEL 1
REMARK VINA RESULT:      -8.8      0.000      0.000
REMARK  Name = 
REMARK  2 active torsions:
REMARK  status: ('A' for Active; 'I' for Inactive)
REMARK    1  A    between atoms: C_1  and  C_2
REMARK    2  A    between atoms: C_7  and  C_9
REMARK                            x       y       z     vdW  Elec       q    Type
REMARK                         _______ _______ _______ _____ _____    ______ ____
ROOT
ATOM      1  C   UNL     1       3.029   5.729  18.308  0.00  0.00    +0.000 C 
ATOM      2  C   UNL     1       2.494   7.078  18.744  0.00  0.00    +0.000 A 
ATOM      3  C   UNL     1       2.523   8.197  17.894  0.00  0.00    +0.000 A 
ATOM      4  C   UNL     1       1.893   9.388  18.265  0.00  0.00    +0.000 A 
ATOM      5  C   UNL     1       1.209   9.471  19.475  0.00  0.00    +0.000 A 
ATOM      6  C   UNL     1       1.165   8.366  20.319  0.00  0.00    +0.000 A 
ATOM      7  C   UNL     1       1.806   7.178  19.957  0.00  0.00    +0.000 A 
ATOM      8  O   UNL     1       1.672   6.140  20.845  0.00  0.00    +0.000 OA
ATOM      9  C   UNL     1       2.328   4.961  20.594  0.00  0.00    +0.000 A 
ATOM     10  C   UNL     1       2.177   3.975  21.572  0.00  0.00    +0.000 A 
ATOM     11  C   UNL     1       2.768   2.726  21.404  0.00  0.00    +0.000 A 
ATOM     12  C   UNL     1       3.522   2.470  20.261  0.00  0.00    +0.000 A 
ATOM     13  C   UNL     1       3.668   3.453  19.278  0.00  0.00    +0.000 A 
ATOM     14  C   UNL     1       3.068   4.715  19.432  0.00  0.00    +0.000 A 
ENDROOT
BRANCH   1  21
ATOM     15  C   UNL     1       6.937   3.917  12.357  0.00  0.00    +0.000 C 
ATOM     16  C   UNL     1       6.659   4.336  13.754  0.00  0.00    +0.000 A 
ATOM     17  N   UNL     1       7.675   4.677  14.551  0.00  0.00    +0.000 NA
ATOM     18  S   UNL     1       6.993   5.150  15.994  0.00  0.00    +0.000 S 
ATOM     19  C   UNL     1       5.385   4.873  15.461  0.00  0.00    +0.000 A 
ATOM     20  N   UNL     1       4.278   5.065  16.263  0.00  0.00    +0.000 N 
ATOM     21  C   UNL     1       4.289   5.785  17.440  0.00  0.00    +0.000 C 
ATOM     22  O   UNL     1       5.242   6.471  17.822  0.00  0.00    +0.000 OA
ATOM     23  N   UNL     1       5.347   4.392  14.237  0.00  0.00    +0.000 NA
ATOM     24  H   UNL     1       3.404   4.729  15.879  0.00  0.00    +0.000 HD
ENDBRANCH   1  21
TORSDOF 1
ENDMDL
MODEL 2
REMARK VINA RESULT:      -8.5      3.704      6.795
REMARK  Name = 
REMARK  2 active torsions:
REMARK  status: ('A' for Active; 'I' for Inactive)
REMARK    1  A    between atoms: C_1  and  C_2
REMARK    2  A    between atoms: C_7  and  C_9
REMARK                            x       y       z     vdW  Elec       q    Type
REMARK                         _______ _______ _______ _____ _____    ______ ____
ROOT
ATOM      1  C   UNL     1       3.490   6.003  17.721  0.00  0.00    +0.000 C 
ATOM      2  C   UNL     1       2.872   4.683  18.136  0.00  0.00    +0.000 A 
ATOM      3  C   UNL     1       1.483   4.524  18.271  0.00  0.00    +0.000 A 
ATOM      4  C   UNL     1       0.931   3.263  18.512  0.00  0.00    +0.000 A 
ATOM      5  C   UNL     1       1.755   2.144  18.598  0.00  0.00    +0.000 A 
ATOM      6  C   UNL     1       3.131   2.288  18.455  0.00  0.00    +0.000 A 
ATOM      7  C   UNL     1       3.687   3.551  18.228  0.00  0.00    +0.000 A 
ATOM      8  O   UNL     1       5.049   3.576  18.068  0.00  0.00    +0.000 OA
ATOM      9  C   UNL     1       5.678   4.785  17.910  0.00  0.00    +0.000 A 
ATOM     10  C   UNL     1       7.070   4.725  17.803  0.00  0.00    +0.000 A 
ATOM     11  C   UNL     1       7.807   5.888  17.602  0.00  0.00    +0.000 A 
ATOM     12  C   UNL     1       7.151   7.114  17.521  0.00  0.00    +0.000 A 
ATOM     13  C   UNL     1       5.758   7.175  17.620  0.00  0.00    +0.000 A 
ATOM     14  C   UNL     1       5.001   6.007  17.814  0.00  0.00    +0.000 A 
ENDROOT
BRANCH   1  21
ATOM     15  C   UNL     1       0.050   9.670  23.079  0.00  0.00    +0.000 C 
ATOM     16  C   UNL     1       0.450   9.286  21.701  0.00  0.00    +0.000 A 
ATOM     17  N   UNL     1       0.019  10.013  20.667  0.00  0.00    +0.000 NA
ATOM     18  S   UNL     1       0.711   9.345  19.310  0.00  0.00    +0.000 S 
ATOM     19  C   UNL     1       1.547   8.130  20.189  0.00  0.00    +0.000 A 
ATOM     20  N   UNL     1       2.335   7.168  19.590  0.00  0.00    +0.000 N 
ATOM     21  C   UNL     1       2.801   7.245  18.294  0.00  0.00    +0.000 C 
ATOM     22  O   UNL     1       2.706   8.250  17.583  0.00  0.00    +0.000 OA
ATOM     23  N   UNL     1       1.285   8.187  21.477  0.00  0.00    +0.000 NA
ATOM     24  H   UNL     1       2.652   6.428  20.203  0.00  0.00    +0.000 HD
ENDBRANCH   1  21
TORSDOF 1
ENDMDL
MODEL 3
REMARK VINA RESULT:      -8.5      3.586      6.540
REMARK  Name = 
REMARK  2 active torsions:
REMARK  status: ('A' for Active; 'I' for Inactive)
REMARK    1  A    between atoms: C_1  and  C_2
REMARK    2  A    between atoms: C_7  and  C_9
REMARK                            x       y       z     vdW  Elec       q    Type
REMARK                         _______ _______ _______ _____ _____    ______ ____
ROOT
ATOM      1  C   UNL     1       3.569   5.602  18.872  0.00  0.00    +0.000 C 
ATOM      2  C   UNL     1       4.681   5.586  17.843  0.00  0.00    +0.000 A 
ATOM      3  C   UNL     1       5.562   6.669  17.685  0.00  0.00    +0.000 A 
ATOM      4  C   UNL     1       6.665   6.570  16.833  0.00  0.00    +0.000 A 
ATOM      5  C   UNL     1       6.915   5.385  16.147  0.00  0.00    +0.000 A 
ATOM      6  C   UNL     1       6.055   4.303  16.303  0.00  0.00    +0.000 A 
ATOM      7  C   UNL     1       4.943   4.404  17.144  0.00  0.00    +0.000 A 
ATOM      8  O   UNL     1       4.180   3.269  17.253  0.00  0.00    +0.000 OA
ATOM      9  C   UNL     1       3.034   3.307  18.006  0.00  0.00    +0.000 A 
ATOM     10  C   UNL     1       2.292   2.123  18.024  0.00  0.00    +0.000 A 
ATOM     11  C   UNL     1       1.130   2.037  18.785  0.00  0.00    +0.000 A 
ATOM     12  C   UNL     1       0.704   3.142  19.519  0.00  0.00    +0.000 A 
ATOM     13  C   UNL     1       1.450   4.325  19.508  0.00  0.00    +0.000 A 
ATOM     14  C   UNL     1       2.629   4.421  18.751  0.00  0.00    +0.000 A 
ENDROOT
BRANCH   1  21
ATOM     15  C   UNL     1      -0.324  10.462  22.773  0.00  0.00    +0.000 C 
ATOM     16  C   UNL     1       0.230   9.771  21.580  0.00  0.00    +0.000 A 
ATOM     17  N   UNL     1      -0.021  10.260  20.364  0.00  0.00    +0.000 NA
ATOM     18  S   UNL     1       0.803   9.288  19.294  0.00  0.00    +0.000 S 
ATOM     19  C   UNL     1       1.446   8.277  20.524  0.00  0.00    +0.000 A 
ATOM     20  N   UNL     1       2.249   7.185  20.264  0.00  0.00    +0.000 N 
ATOM     21  C   UNL     1       2.884   6.959  19.060  0.00  0.00    +0.000 C 
ATOM     22  O   UNL     1       2.940   7.783  18.142  0.00  0.00    +0.000 OA
ATOM     23  N   UNL     1       1.023   8.627  21.720  0.00  0.00    +0.000 NA
ATOM     24  H   UNL     1       2.441   6.592  21.061  0.00  0.00    +0.000 HD
ENDBRANCH   1  21
TORSDOF 1
ENDMDL
MODEL 4
REMARK VINA RESULT:      -8.3      3.710      6.890
REMARK  Name = 
REMARK  2 active torsions:
REMARK  status: ('A' for Active; 'I' for Inactive)
REMARK    1  A    between atoms: C_1  and  C_2
REMARK    2  A    between atoms: C_7  and  C_9
REMARK                            x       y       z     vdW  Elec       q    Type
REMARK                         _______ _______ _______ _____ _____    ______ ____
ROOT
ATOM      1  C   UNL     1       3.232   5.868  18.591  0.00  0.00    +0.000 C 
ATOM      2  C   UNL     1       2.845   4.749  19.536  0.00  0.00    +0.000 A 
ATOM      3  C   UNL     1       1.542   4.630  20.051  0.00  0.00    +0.000 A 
ATOM      4  C   UNL     1       1.174   3.510  20.801  0.00  0.00    +0.000 A 
ATOM      5  C   UNL     1       2.090   2.487  21.028  0.00  0.00    +0.000 A 
ATOM      6  C   UNL     1       3.379   2.590  20.515  0.00  0.00    +0.000 A 
ATOM      7  C   UNL     1       3.755   3.715  19.776  0.00  0.00    +0.000 A 
ATOM      8  O   UNL     1       5.037   3.699  19.288  0.00  0.00    +0.000 OA
ATOM      9  C   UNL     1       5.504   4.797  18.609  0.00  0.00    +0.000 A 
ATOM     10  C   UNL     1       6.834   4.718  18.189  0.00  0.00    +0.000 A 
ATOM     11  C   UNL     1       7.401   5.759  17.460  0.00  0.00    +0.000 A 
ATOM     12  C   UNL     1       6.638   6.887  17.163  0.00  0.00    +0.000 A 
ATOM     13  C   UNL     1       5.305   6.964  17.576  0.00  0.00    +0.000 A 
ATOM     14  C   UNL     1       4.718   5.916  18.305  0.00  0.00    +0.000 A 
ENDROOT
BRANCH   1  21
ATOM     15  C   UNL     1      -0.424  10.519  22.949  0.00  0.00    +0.000 C 
ATOM     16  C   UNL     1       0.078   9.903  21.693  0.00  0.00    +0.000 A 
ATOM     17  N   UNL     1      -0.196  10.485  20.523  0.00  0.00    +0.000 NA
ATOM     18  S   UNL     1       0.572   9.574  19.361  0.00  0.00    +0.000 S 
ATOM     19  C   UNL     1       1.225   8.463  20.495  0.00  0.00    +0.000 A 
ATOM     20  N   UNL     1       1.993   7.375  20.133  0.00  0.00    +0.000 N 
ATOM     21  C   UNL     1       2.587   7.223  18.897  0.00  0.00    +0.000 C 
ATOM     22  O   UNL     1       2.636   8.109  18.039  0.00  0.00    +0.000 OA
ATOM     23  N   UNL     1       0.846   8.734  21.726  0.00  0.00    +0.000 NA
ATOM     24  H   UNL     1       2.194   6.721  20.879  0.00  0.00    +0.000 HD
ENDBRANCH   1  21
TORSDOF 1
ENDMDL
MODEL 5
REMARK VINA RESULT:      -7.8      3.454      6.625
REMARK  Name = 
REMARK  2 active torsions:
REMARK  status: ('A' for Active; 'I' for Inactive)
REMARK    1  A    between atoms: C_1  and  C_2
REMARK    2  A    between atoms: C_7  and  C_9
REMARK                            x       y       z     vdW  Elec       q    Type
REMARK                         _______ _______ _______ _____ _____    ______ ____
ROOT
ATOM      1  C   UNL     1       3.106   5.759  17.862  0.00  0.00    +0.000 C 
ATOM      2  C   UNL     1       2.685   4.348  18.216  0.00  0.00    +0.000 A 
ATOM      3  C   UNL     1       1.353   4.028  18.532  0.00  0.00    +0.000 A 
ATOM      4  C   UNL     1       0.965   2.698  18.711  0.00  0.00    +0.000 A 
ATOM      5  C   UNL     1       1.891   1.671  18.555  0.00  0.00    +0.000 A 
ATOM      6  C   UNL     1       3.210   1.975  18.232  0.00  0.00    +0.000 A 
ATOM      7  C   UNL     1       3.604   3.306  18.066  0.00  0.00    +0.000 A 
ATOM      8  O   UNL     1       4.918   3.492  17.714  0.00  0.00    +0.000 OA
ATOM      9  C   UNL     1       5.400   4.772  17.599  0.00  0.00    +0.000 A 
ATOM     10  C   UNL     1       6.758   4.872  17.286  0.00  0.00    +0.000 A 
ATOM     11  C   UNL     1       7.345   6.121  17.109  0.00  0.00    +0.000 A 
ATOM     12  C   UNL     1       6.574   7.272  17.257  0.00  0.00    +0.000 A 
ATOM     13  C   UNL     1       5.214   7.173  17.563  0.00  0.00    +0.000 A 
ATOM     14  C   UNL     1       4.607   5.917  17.735  0.00  0.00    +0.000 A 
ENDROOT
BRANCH   1  21
ATOM     15  C   UNL     1      -0.838  11.937  18.379  0.00  0.00    +0.000 C 
ATOM     16  C   UNL     1       0.126  10.874  18.764  0.00  0.00    +0.000 A 
ATOM     17  N   UNL     1       0.686  10.906  19.976  0.00  0.00    +0.000 NA
ATOM     18  S   UNL     1       1.640   9.546  20.081  0.00  0.00    +0.000 S 
ATOM     19  C   UNL     1       1.240   8.999  18.503  0.00  0.00    +0.000 A 
ATOM     20  N   UNL     1       1.767   7.854  17.942  0.00  0.00    +0.000 N 
ATOM     21  C   UNL     1       2.403   6.861  18.660  0.00  0.00    +0.000 C 
ATOM     22  O   UNL     1       2.428   6.807  19.893  0.00  0.00    +0.000 OA
ATOM     23  N   UNL     1       0.439   9.836  17.880  0.00  0.00    +0.000 NA
ATOM     24  H   UNL     1       1.565   7.721  16.960  0.00  0.00    +0.000 HD
ENDBRANCH   1  21
TORSDOF 1
ENDMDL
MODEL 6
REMARK VINA RESULT:      -7.4      1.302      4.024
REMARK  Name = 
REMARK  2 active torsions:
REMARK  status: ('A' for Active; 'I' for Inactive)
REMARK    1  A    between atoms: C_1  and  C_2
REMARK    2  A    between atoms: C_7  and  C_9
REMARK                            x       y       z     vdW  Elec       q    Type
REMARK                         _______ _______ _______ _____ _____    ______ ____
ROOT
ATOM      1  C   UNL     1       4.106   5.311  18.705  0.00  0.00    +0.000 C 
ATOM      2  C   UNL     1       3.542   4.274  19.655  0.00  0.00    +0.000 A 
ATOM      3  C   UNL     1       4.134   3.008  19.808  0.00  0.00    +0.000 A 
ATOM      4  C   UNL     1       3.682   2.127  20.794  0.00  0.00    +0.000 A 
ATOM      5  C   UNL     1       2.652   2.504  21.651  0.00  0.00    +0.000 A 
ATOM      6  C   UNL     1       2.065   3.758  21.515  0.00  0.00    +0.000 A 
ATOM      7  C   UNL     1       2.506   4.636  20.521  0.00  0.00    +0.000 A 
ATOM      8  O   UNL     1       1.884   5.859  20.496  0.00  0.00    +0.000 OA
ATOM      9  C   UNL     1       2.212   6.752  19.507  0.00  0.00    +0.000 A 
ATOM     10  C   UNL     1       1.497   7.953  19.526  0.00  0.00    +0.000 A 
ATOM     11  C   UNL     1       1.773   8.946  18.592  0.00  0.00    +0.000 A 
ATOM     12  C   UNL     1       2.758   8.733  17.630  0.00  0.00    +0.000 A 
ATOM     13  C   UNL     1       3.479   7.535  17.614  0.00  0.00    +0.000 A 
ATOM     14  C   UNL     1       3.216   6.527  18.558  0.00  0.00    +0.000 A 
ENDROOT
BRANCH   1  21
ATOM     15  C   UNL     1       8.706   5.446  12.978  0.00  0.00    +0.000 C 
ATOM     16  C   UNL     1       7.478   5.151  13.759  0.00  0.00    +0.000 A 
ATOM     17  N   UNL     1       6.521   4.396  13.215  0.00  0.00    +0.000 NA
ATOM     18  S   UNL     1       5.349   4.221  14.384  0.00  0.00    +0.000 S 
ATOM     19  C   UNL     1       6.196   5.161  15.543  0.00  0.00    +0.000 A 
ATOM     20  N   UNL     1       5.703   5.435  16.803  0.00  0.00    +0.000 N 
ATOM     21  C   UNL     1       4.660   4.750  17.392  0.00  0.00    +0.000 C 
ATOM     22  O   UNL     1       4.162   3.718  16.932  0.00  0.00    +0.000 OA
ATOM     23  N   UNL     1       7.322   5.641  15.060  0.00  0.00    +0.000 NA
ATOM     24  H   UNL     1       6.230   6.116  17.334  0.00  0.00    +0.000 HD
ENDBRANCH   1  21
TORSDOF 1
ENDMDL
MODEL 7
REMARK VINA RESULT:      -7.0      5.556      7.934
REMARK  Name = 
REMARK  2 active torsions:
REMARK  status: ('A' for Active; 'I' for Inactive)
REMARK    1  A    between atoms: C_1  and  C_2
REMARK    2  A    between atoms: C_7  and  C_9
REMARK                            x       y       z     vdW  Elec       q    Type
REMARK                         _______ _______ _______ _____ _____    ______ ____
ROOT
ATOM      1  C   UNL     1       0.361  10.729  19.447  0.00  0.00    +0.000 C 
ATOM      2  C   UNL     1      -0.098  10.715  20.891  0.00  0.00    +0.000 A 
ATOM      3  C   UNL     1      -0.861  11.761  21.437  0.00  0.00    +0.000 A 
ATOM      4  C   UNL     1      -1.394  11.655  22.724  0.00  0.00    +0.000 A 
ATOM      5  C   UNL     1      -1.193  10.498  23.472  0.00  0.00    +0.000 A 
ATOM      6  C   UNL     1      -0.448   9.452  22.938  0.00  0.00    +0.000 A 
ATOM      7  C   UNL     1       0.099   9.562  21.655  0.00  0.00    +0.000 A 
ATOM      8  O   UNL     1       0.786   8.460  21.211  0.00  0.00    +0.000 OA
ATOM      9  C   UNL     1       1.409   8.513  19.990  0.00  0.00    +0.000 A 
ATOM     10  C   UNL     1       2.127   7.367  19.636  0.00  0.00    +0.000 A 
ATOM     11  C   UNL     1       2.769   7.297  18.403  0.00  0.00    +0.000 A 
ATOM     12  C   UNL     1       2.702   8.380  17.529  0.00  0.00    +0.000 A 
ATOM     13  C   UNL     1       1.978   9.524  17.879  0.00  0.00    +0.000 A 
ATOM     14  C   UNL     1       1.318   9.604  19.117  0.00  0.00    +0.000 A 
ENDROOT
BRANCH   1  21
ATOM     15  C   UNL     1       5.046  16.355  18.823  0.00  0.00    +0.000 C 
ATOM     16  C   UNL     1       3.750  15.630  18.847  0.00  0.00    +0.000 A 
ATOM     17  N   UNL     1       2.629  16.281  18.527  0.00  0.00    +0.000 NA
ATOM     18  S   UNL     1       1.405  15.156  18.592  0.00  0.00    +0.000 S 
ATOM     19  C   UNL     1       2.450  13.870  19.040  0.00  0.00    +0.000 A 
ATOM     20  N   UNL     1       2.008  12.587  19.291  0.00  0.00    +0.000 N 
ATOM     21  C   UNL     1       0.771  12.106  18.914  0.00  0.00    +0.000 C 
ATOM     22  O   UNL     1      -0.010  12.710  18.174  0.00  0.00    +0.000 OA
ATOM     23  N   UNL     1       3.694  14.273  19.184  0.00  0.00    +0.000 NA
ATOM     24  H   UNL     1       2.700  11.961  19.684  0.00  0.00    +0.000 HD
ENDBRANCH   1  21
TORSDOF 1
ENDMDL
MODEL 8
REMARK VINA RESULT:      -7.0      3.482      6.569
REMARK  Name = 
REMARK  2 active torsions:
REMARK  status: ('A' for Active; 'I' for Inactive)
REMARK    1  A    between atoms: C_1  and  C_2
REMARK    2  A    between atoms: C_7  and  C_9
REMARK                            x       y       z     vdW  Elec       q    Type
REMARK                         _______ _______ _______ _____ _____    ______ ____
ROOT
ATOM      1  C   UNL     1       2.772   5.976  18.623  0.00  0.00    +0.000 C 
ATOM      2  C   UNL     1       2.477   4.738  19.445  0.00  0.00    +0.000 A 
ATOM      3  C   UNL     1       1.227   4.532  20.053  0.00  0.00    +0.000 A 
ATOM      4  C   UNL     1       0.933   3.318  20.680  0.00  0.00    +0.000 A 
ATOM      5  C   UNL     1       1.871   2.290  20.689  0.00  0.00    +0.000 A 
ATOM      6  C   UNL     1       3.108   2.479  20.081  0.00  0.00    +0.000 A 
ATOM      7  C   UNL     1       3.410   3.697  19.465  0.00  0.00    +0.000 A 
ATOM      8  O   UNL     1       4.642   3.766  18.866  0.00  0.00    +0.000 OA
ATOM      9  C   UNL     1       5.041   4.950  18.299  0.00  0.00    +0.000 A 
ATOM     10  C   UNL     1       6.328   4.948  17.755  0.00  0.00    +0.000 A 
ATOM     11  C   UNL     1       6.822   6.085  17.121  0.00  0.00    +0.000 A 
ATOM     12  C   UNL     1       6.030   7.228  17.043  0.00  0.00    +0.000 A 
ATOM     13  C   UNL     1       4.739   7.229  17.580  0.00  0.00    +0.000 A 
ATOM     14  C   UNL     1       4.226   6.086  18.215  0.00  0.00    +0.000 A 
ENDROOT
BRANCH   1  21
ATOM     15  C   UNL     1      -1.348  12.019  17.916  0.00  0.00    +0.000 C 
ATOM     16  C   UNL     1      -0.282  11.124  18.435  0.00  0.00    +0.000 A 
ATOM     17  N   UNL     1       0.463  11.523  19.469  0.00  0.00    +0.000 NA
ATOM     18  S   UNL     1       1.488  10.259  19.816  0.00  0.00    +0.000 S 
ATOM     19  C   UNL     1       0.870   9.258  18.566  0.00  0.00    +0.000 A 
ATOM     20  N   UNL     1       1.358   7.996  18.295  0.00  0.00    +0.000 N 
ATOM     21  C   UNL     1       2.151   7.269  19.160  0.00  0.00    +0.000 C 
ATOM     22  O   UNL     1       2.375   7.593  20.330  0.00  0.00    +0.000 OA
ATOM     23  N   UNL     1      -0.062   9.866  17.864  0.00  0.00    +0.000 NA
ATOM     24  H   UNL     1       1.008   7.571  17.446  0.00  0.00    +0.000 HD
ENDBRANCH   1  21
TORSDOF 1
ENDMDL
MODEL 9
REMARK VINA RESULT:      -6.9      0.956      3.921
REMARK  Name = 
REMARK  2 active torsions:
REMARK  status: ('A' for Active; 'I' for Inactive)
REMARK    1  A    between atoms: C_1  and  C_2
REMARK    2  A    between atoms: C_7  and  C_9
REMARK                            x       y       z     vdW  Elec       q    Type
REMARK                         _______ _______ _______ _____ _____    ______ ____
ROOT
ATOM      1  C   UNL     1       4.379   6.073  18.546  0.00  0.00    +0.000 C 
ATOM      2  C   UNL     1       3.965   4.780  19.219  0.00  0.00    +0.000 A 
ATOM      3  C   UNL     1       4.807   3.655  19.244  0.00  0.00    +0.000 A 
ATOM      4  C   UNL     1       4.464   2.527  19.995  0.00  0.00    +0.000 A 
ATOM      5  C   UNL     1       3.291   2.516  20.745  0.00  0.00    +0.000 A 
ATOM      6  C   UNL     1       2.455   3.628  20.735  0.00  0.00    +0.000 A 
ATOM      7  C   UNL     1       2.790   4.752  19.974  0.00  0.00    +0.000 A 
ATOM      8  O   UNL     1       1.915   5.806  20.063  0.00  0.00    +0.000 OA
ATOM      9  C   UNL     1       2.137   6.921  19.294  0.00  0.00    +0.000 A 
ATOM     10  C   UNL     1       1.173   7.926  19.408  0.00  0.00    +0.000 A 
ATOM     11  C   UNL     1       1.316   9.116  18.701  0.00  0.00    +0.000 A 
ATOM     12  C   UNL     1       2.419   9.295  17.870  0.00  0.00    +0.000 A 
ATOM     13  C   UNL     1       3.388   8.293  17.760  0.00  0.00    +0.000 A 
ATOM     14  C   UNL     1       3.260   7.091  18.475  0.00  0.00    +0.000 A 
ENDROOT
BRANCH   1  21
ATOM     15  C   UNL     1       5.503   3.114  11.915  0.00  0.00    +0.000 C 
ATOM     16  C   UNL     1       5.823   3.749  13.220  0.00  0.00    +0.000 A 
ATOM     17  N   UNL     1       7.081   4.113  13.480  0.00  0.00    +0.000 NA
ATOM     18  S   UNL     1       7.052   4.841  14.976  0.00  0.00    +0.000 S 
ATOM     19  C   UNL     1       5.361   4.627  15.179  0.00  0.00    +0.000 A 
ATOM     20  N   UNL     1       4.678   5.023  16.311  0.00  0.00    +0.000 N 
ATOM     21  C   UNL     1       5.180   5.899  17.252  0.00  0.00    +0.000 C 
ATOM     22  O   UNL     1       6.219   6.550  17.107  0.00  0.00    +0.000 OA
ATOM     23  N   UNL     1       4.821   3.983  14.167  0.00  0.00    +0.000 NA
ATOM     24  H   UNL     1       3.718   4.711  16.367  0.00  0.00    +0.000 HD
ENDBRANCH   1  21
TORSDOF 1
ENDMDL
