MODEL 1
REMARK VINA RESULT:      -7.7      0.000      0.000
REMARK  Name = 
REMARK  6 active torsions:
REMARK  status: ('A' for Active; 'I' for Inactive)
REMARK    1  A    between atoms: C_2  and  C_3
REMARK    2  A    between atoms: C_3  and  O_4
REMARK    3  A    between atoms: O_4  and  C_5
REMARK    4  A    between atoms: C_15  and  C_17
REMARK    5  A    between atoms: C_17  and  O_18
REMARK    6  A    between atoms: O_18  and  C_19
REMARK                            x       y       z     vdW  Elec       q    Type
REMARK                         _______ _______ _______ _____ _____    ______ ____
ROOT
ATOM      1  O   UNL     1       1.881   9.493  17.329  0.00  0.00    +0.000 OA
ATOM      2  C   UNL     1       1.619   9.145  18.487  0.00  0.00    +0.000 C 
ATOM      3  N   UNL     1       2.130   7.966  19.018  0.00  0.00    +0.000 N 
ATOM      4  C   UNL     1       1.891   7.460  20.379  0.00  0.00    +0.000 C 
ATOM      5  C   UNL     1       1.447   5.988  20.358  0.00  0.00    +0.000 C 
ATOM      6  N   UNL     1       2.362   5.168  19.556  0.00  0.00    +0.000 N 
ATOM      7  C   UNL     1       2.908   4.020  20.109  0.00  0.00    +0.000 C 
ATOM      8  O   UNL     1       2.662   3.683  21.271  0.00  0.00    +0.000 OA
ATOM      9  C   UNL     1       2.561   5.662  18.184  0.00  0.00    +0.000 C 
ATOM     10  C   UNL     1       3.025   7.131  18.201  0.00  0.00    +0.000 C 
ENDROOT
BRANCH   2  11
ATOM     11  C   UNL     1       0.722  10.023  19.360  0.00  0.00    +0.000 C 
BRANCH  11  12
ATOM     12  O   UNL     1       0.128  11.038  18.555  0.00  0.00    +0.000 OA
BRANCH  12  13
ATOM     13  C   UNL     1      -1.200  10.851  18.270  0.00  0.00    +0.000 A 
ATOM     14  C   UNL     1      -2.093  11.740  18.875  0.00  0.00    +0.000 A 
ATOM     15  C   UNL     1      -3.462  11.665  18.601  0.00  0.00    +0.000 A 
ATOM     16  C   UNL     1      -3.941  10.709  17.707  0.00  0.00    +0.000 A 
ATOM     17  C   UNL     1      -3.052   9.828  17.094  0.00  0.00    +0.000 A 
ATOM     18  C   UNL     1      -1.683   9.898  17.373  0.00  0.00    +0.000 A 
ENDBRANCH  12  13
ENDBRANCH  11  12
ENDBRANCH   2  11
BRANCH   7  19
ATOM     19  C   UNL     1       3.874   3.180  19.268  0.00  0.00    +0.000 C 
BRANCH  19  20
ATOM     20  O   UNL     1       5.200   3.679  19.402  0.00  0.00    +0.000 OA
BRANCH  20  21
ATOM     21  C   UNL     1       5.699   4.307  18.290  0.00  0.00    +0.000 A 
ATOM     22  C   UNL     1       6.632   5.320  18.518  0.00  0.00    +0.000 A 
ATOM     23  C   UNL     1       7.234   5.986  17.446  0.00  0.00    +0.000 A 
ATOM     24  C   UNL     1       6.913   5.632  16.136  0.00  0.00    +0.000 A 
ATOM     25  C   UNL     1       5.992   4.614  15.904  0.00  0.00    +0.000 A 
ATOM     26  C   UNL     1       5.385   3.950  16.977  0.00  0.00    +0.000 A 
ENDBRANCH  20  21
ENDBRANCH  19  20
ENDBRANCH   7  19
TORSDOF 6
ENDMDL
MODEL 2
REMARK VINA RESULT:      -7.7      1.736      3.600
REMARK  Name = 
REMARK  6 active torsions:
REMARK  status: ('A' for Active; 'I' for Inactive)
REMARK    1  A    between atoms: C_2  and  C_3
REMARK    2  A    between atoms: C_3  and  O_4
REMARK    3  A    between atoms: O_4  and  C_5
REMARK    4  A    between atoms: C_15  and  C_17
REMARK    5  A    between atoms: C_17  and  O_18
REMARK    6  A    between atoms: O_18  and  C_19
REMARK                            x       y       z     vdW  Elec       q    Type
REMARK                         _______ _______ _______ _____ _____    ______ ____
ROOT
ATOM      1  O   UNL     1       1.123   8.764  21.060  0.00  0.00    +0.000 OA
ATOM      2  C   UNL     1       1.365   8.907  19.855  0.00  0.00    +0.000 C 
ATOM      3  N   UNL     1       1.968   7.896  19.117  0.00  0.00    +0.000 N 
ATOM      4  C   UNL     1       2.294   7.955  17.683  0.00  0.00    +0.000 C 
ATOM      5  C   UNL     1       3.749   7.532  17.423  0.00  0.00    +0.000 C 
ATOM      6  N   UNL     1       4.052   6.247  18.063  0.00  0.00    +0.000 N 
ATOM      7  C   UNL     1       4.607   5.225  17.309  0.00  0.00    +0.000 C 
ATOM      8  O   UNL     1       4.831   5.361  16.102  0.00  0.00    +0.000 OA
ATOM      9  C   UNL     1       3.760   6.215  19.505  0.00  0.00    +0.000 C 
ATOM     10  C   UNL     1       2.297   6.619  19.769  0.00  0.00    +0.000 C 
ENDROOT
BRANCH   2  11
ATOM     11  C   UNL     1       0.992  10.215  19.156  0.00  0.00    +0.000 C 
BRANCH  11  12
ATOM     12  O   UNL     1      -0.279  10.656  19.626  0.00  0.00    +0.000 OA
BRANCH  12  13
ATOM     13  C   UNL     1      -1.284  10.628  18.694  0.00  0.00    +0.000 A 
ATOM     14  C   UNL     1      -2.345  11.514  18.902  0.00  0.00    +0.000 A 
ATOM     15  C   UNL     1      -3.388  11.600  17.977  0.00  0.00    +0.000 A 
ATOM     16  C   UNL     1      -3.367  10.809  16.829  0.00  0.00    +0.000 A 
ATOM     17  C   UNL     1      -2.306   9.933  16.613  0.00  0.00    +0.000 A 
ATOM     18  C   UNL     1      -1.264   9.842  17.541  0.00  0.00    +0.000 A 
ENDBRANCH  12  13
ENDBRANCH  11  12
ENDBRANCH   2  11
BRANCH   7  19
ATOM     19  C   UNL     1       4.905   3.883  17.985  0.00  0.00    +0.000 C 
BRANCH  19  20
ATOM     20  O   UNL     1       3.771   3.028  17.893  0.00  0.00    +0.000 OA
BRANCH  20  21
ATOM     21  C   UNL     1       2.986   2.986  19.016  0.00  0.00    +0.000 A 
ATOM     22  C   UNL     1       1.614   3.159  18.817  0.00  0.00    +0.000 A 
ATOM     23  C   UNL     1       0.725   3.084  19.894  0.00  0.00    +0.000 A 
ATOM     24  C   UNL     1       1.204   2.823  21.177  0.00  0.00    +0.000 A 
ATOM     25  C   UNL     1       2.569   2.637  21.378  0.00  0.00    +0.000 A 
ATOM     26  C   UNL     1       3.460   2.717  20.301  0.00  0.00    +0.000 A 
ENDBRANCH  20  21
ENDBRANCH  19  20
ENDBRANCH   7  19
TORSDOF 6
ENDMDL
MODEL 3
REMARK VINA RESULT:      -7.7      3.317      9.346
REMARK  Name = 
REMARK  6 active torsions:
REMARK  status: ('A' for Active; 'I' for Inactive)
REMARK    1  A    between atoms: C_2  and  C_3
REMARK    2  A    between atoms: C_3  and  O_4
REMARK    3  A    between atoms: O_4  and  C_5
REMARK    4  A    between atoms: C_15  and  C_17
REMARK    5  A    between atoms: C_17  and  O_18
REMARK    6  A    between atoms: O_18  and  C_19
REMARK                            x       y       z     vdW  Elec       q    Type
REMARK                         _______ _______ _______ _____ _____    ______ ____
ROOT
ATOM      1  O   UNL     1       2.331   8.811  17.302  0.00  0.00    +0.000 OA
ATOM      2  C   UNL     1       2.223   8.245  18.396  0.00  0.00    +0.000 C 
ATOM      3  N   UNL     1       1.395   8.752  19.390  0.00  0.00    +0.000 N 
ATOM      4  C   UNL     1       1.185   8.160  20.721  0.00  0.00    +0.000 C 
ATOM      5  C   UNL     1       1.355   9.209  21.832  0.00  0.00    +0.000 C 
ATOM      6  N   UNL     1       0.545  10.403  21.564  0.00  0.00    +0.000 N 
ATOM      7  C   UNL     1      -0.316  10.875  22.542  0.00  0.00    +0.000 C 
ATOM      8  O   UNL     1      -0.438  10.299  23.627  0.00  0.00    +0.000 OA
ATOM      9  C   UNL     1       0.794  11.010  20.247  0.00  0.00    +0.000 C 
ATOM     10  C   UNL     1       0.606   9.967  19.129  0.00  0.00    +0.000 C 
ENDROOT
BRANCH   2  11
ATOM     11  C   UNL     1       3.007   6.960  18.667  0.00  0.00    +0.000 C 
BRANCH  11  12
ATOM     12  O   UNL     1       2.378   5.872  17.996  0.00  0.00    +0.000 OA
BRANCH  12  13
ATOM     13  C   UNL     1       2.024   4.820  18.800  0.00  0.00    +0.000 A 
ATOM     14  C   UNL     1       2.289   4.968  20.165  0.00  0.00    +0.000 A 
ATOM     15  C   UNL     1       1.913   3.974  21.071  0.00  0.00    +0.000 A 
ATOM     16  C   UNL     1       1.255   2.832  20.619  0.00  0.00    +0.000 A 
ATOM     17  C   UNL     1       0.979   2.686  19.261  0.00  0.00    +0.000 A 
ATOM     18  C   UNL     1       1.361   3.677  18.352  0.00  0.00    +0.000 A 
ENDBRANCH  12  13
ENDBRANCH  11  12
ENDBRANCH   2  11
BRANCH   7  19
ATOM     19  C   UNL     1      -1.167  12.114  22.245  0.00  0.00    +0.000 C 
BRANCH  19  20
ATOM     20  O   UNL     1      -1.842  12.537  23.424  0.00  0.00    +0.000 OA
BRANCH  20  21
ATOM     21  C   UNL     1      -3.199  12.684  23.294  0.00  0.00    +0.000 A 
ATOM     22  C   UNL     1      -3.687  12.780  21.989  0.00  0.00    +0.000 A 
ATOM     23  C   UNL     1      -5.061  12.883  21.751  0.00  0.00    +0.000 A 
ATOM     24  C   UNL     1      -5.957  12.879  22.819  0.00  0.00    +0.000 A 
ATOM     25  C   UNL     1      -5.475  12.771  24.121  0.00  0.00    +0.000 A 
ATOM     26  C   UNL     1      -4.099  12.673  24.361  0.00  0.00    +0.000 A 
ENDBRANCH  20  21
ENDBRANCH  19  20
ENDBRANCH   7  19
TORSDOF 6
ENDMDL
MODEL 4
REMARK VINA RESULT:      -7.6      1.992      8.115
REMARK  Name = 
REMARK  6 active torsions:
REMARK  status: ('A' for Active; 'I' for Inactive)
REMARK    1  A    between atoms: C_2  and  C_3
REMARK    2  A    between atoms: C_3  and  O_4
REMARK    3  A    between atoms: O_4  and  C_5
REMARK    4  A    between atoms: C_15  and  C_17
REMARK    5  A    between atoms: C_17  and  O_18
REMARK    6  A    between atoms: O_18  and  C_19
REMARK                            x       y       z     vdW  Elec       q    Type
REMARK                         _______ _______ _______ _____ _____    ______ ____
ROOT
ATOM      1  O   UNL     1       4.710   6.779  17.080  0.00  0.00    +0.000 OA
ATOM      2  C   UNL     1       4.119   6.501  18.130  0.00  0.00    +0.000 C 
ATOM      3  N   UNL     1       2.955   7.164  18.498  0.00  0.00    +0.000 N 
ATOM      4  C   UNL     1       2.169   6.912  19.716  0.00  0.00    +0.000 C 
ATOM      5  C   UNL     1       1.865   8.220  20.465  0.00  0.00    +0.000 C 
ATOM      6  N   UNL     1       1.287   9.226  19.567  0.00  0.00    +0.000 N 
ATOM      7  C   UNL     1       0.099   9.848  19.915  0.00  0.00    +0.000 C 
ATOM      8  O   UNL     1      -0.501   9.557  20.954  0.00  0.00    +0.000 OA
ATOM      9  C   UNL     1       2.104   9.499  18.373  0.00  0.00    +0.000 C 
ATOM     10  C   UNL     1       2.394   8.194  17.608  0.00  0.00    +0.000 C 
ENDROOT
BRANCH   2  11
ATOM     11  C   UNL     1       4.670   5.406  19.045  0.00  0.00    +0.000 C 
BRANCH  11  12
ATOM     12  O   UNL     1       4.300   4.130  18.530  0.00  0.00    +0.000 OA
BRANCH  12  13
ATOM     13  C   UNL     1       3.125   3.624  19.022  0.00  0.00    +0.000 A 
ATOM     14  C   UNL     1       2.135   3.333  18.079  0.00  0.00    +0.000 A 
ATOM     15  C   UNL     1       0.924   2.760  18.477  0.00  0.00    +0.000 A 
ATOM     16  C   UNL     1       0.704   2.462  19.820  0.00  0.00    +0.000 A 
ATOM     17  C   UNL     1       1.692   2.741  20.762  0.00  0.00    +0.000 A 
ATOM     18  C   UNL     1       2.902   3.320  20.365  0.00  0.00    +0.000 A 
ENDBRANCH  12  13
ENDBRANCH  11  12
ENDBRANCH   2  11
BRANCH   7  19
ATOM     19  C   UNL     1      -0.502  10.886  18.962  0.00  0.00    +0.000 C 
BRANCH  19  20
ATOM     20  O   UNL     1      -1.923  10.849  19.032  0.00  0.00    +0.000 OA
BRANCH  20  21
ATOM     21  C   UNL     1      -2.559  10.692  17.828  0.00  0.00    +0.000 A 
ATOM     22  C   UNL     1      -3.719  11.446  17.639  0.00  0.00    +0.000 A 
ATOM     23  C   UNL     1      -4.411  11.391  16.426  0.00  0.00    +0.000 A 
ATOM     24  C   UNL     1      -3.939  10.589  15.388  0.00  0.00    +0.000 A 
ATOM     25  C   UNL     1      -2.776   9.845  15.568  0.00  0.00    +0.000 A 
ATOM     26  C   UNL     1      -2.085   9.895  16.784  0.00  0.00    +0.000 A 
ENDBRANCH  20  21
ENDBRANCH  19  20
ENDBRANCH   7  19
TORSDOF 6
ENDMDL
MODEL 5
REMARK VINA RESULT:      -7.6      4.761      8.267
REMARK  Name = 
REMARK  6 active torsions:
REMARK  status: ('A' for Active; 'I' for Inactive)
REMARK    1  A    between atoms: C_2  and  C_3
REMARK    2  A    between atoms: C_3  and  O_4
REMARK    3  A    between atoms: O_4  and  C_5
REMARK    4  A    between atoms: C_15  and  C_17
REMARK    5  A    between atoms: C_17  and  O_18
REMARK    6  A    between atoms: O_18  and  C_19
REMARK                            x       y       z     vdW  Elec       q    Type
REMARK                         _______ _______ _______ _____ _____    ______ ____
ROOT
ATOM      1  O   UNL     1       7.575   9.501  17.055  0.00  0.00    +0.000 OA
ATOM      2  C   UNL     1       7.926   8.640  17.870  0.00  0.00    +0.000 C 
ATOM      3  N   UNL     1       7.392   7.357  17.837  0.00  0.00    +0.000 N 
ATOM      4  C   UNL     1       7.741   6.256  18.749  0.00  0.00    +0.000 C 
ATOM      5  C   UNL     1       6.482   5.599  19.338  0.00  0.00    +0.000 C 
ATOM      6  N   UNL     1       5.528   5.236  18.283  0.00  0.00    +0.000 N 
ATOM      7  C   UNL     1       5.037   3.941  18.226  0.00  0.00    +0.000 C 
ATOM      8  O   UNL     1       5.402   3.076  19.028  0.00  0.00    +0.000 OA
ATOM      9  C   UNL     1       5.156   6.356  17.404  0.00  0.00    +0.000 C 
ATOM     10  C   UNL     1       6.413   7.005  16.796  0.00  0.00    +0.000 C 
ENDROOT
BRANCH   2  11
ATOM     11  C   UNL     1       8.971   8.981  18.933  0.00  0.00    +0.000 C 
BRANCH  11  12
ATOM     12  O   UNL     1       8.838  10.350  19.304  0.00  0.00    +0.000 OA
BRANCH  12  13
ATOM     13  C   UNL     1       9.952  11.121  19.093  0.00  0.00    +0.000 A 
ATOM     14  C   UNL     1      10.704  11.443  20.226  0.00  0.00    +0.000 A 
ATOM     15  C   UNL     1      11.888  12.176  20.106  0.00  0.00    +0.000 A 
ATOM     16  C   UNL     1      12.333  12.577  18.847  0.00  0.00    +0.000 A 
ATOM     17  C   UNL     1      11.592  12.248  17.715  0.00  0.00    +0.000 A 
ATOM     18  C   UNL     1      10.404  11.520  17.835  0.00  0.00    +0.000 A 
ENDBRANCH  12  13
ENDBRANCH  11  12
ENDBRANCH   2  11
BRANCH   7  19
ATOM     19  C   UNL     1       4.053   3.570  17.112  0.00  0.00    +0.000 C 
BRANCH  19  20
ATOM     20  O   UNL     1       2.797   4.198  17.340  0.00  0.00    +0.000 OA
BRANCH  20  21
ATOM     21  C   UNL     1       2.221   3.918  18.553  0.00  0.00    +0.000 A 
ATOM     22  C   UNL     1       1.753   2.614  18.728  0.00  0.00    +0.000 A 
ATOM     23  C   UNL     1       1.195   2.218  19.947  0.00  0.00    +0.000 A 
ATOM     24  C   UNL     1       1.111   3.124  21.004  0.00  0.00    +0.000 A 
ATOM     25  C   UNL     1       1.587   4.422  20.837  0.00  0.00    +0.000 A 
ATOM     26  C   UNL     1       2.142   4.821  19.615  0.00  0.00    +0.000 A 
ENDBRANCH  20  21
ENDBRANCH  19  20
ENDBRANCH   7  19
TORSDOF 6
ENDMDL
MODEL 6
REMARK VINA RESULT:      -7.5      3.266      9.435
REMARK  Name = 
REMARK  6 active torsions:
REMARK  status: ('A' for Active; 'I' for Inactive)
REMARK    1  A    between atoms: C_2  and  C_3
REMARK    2  A    between atoms: C_3  and  O_4
REMARK    3  A    between atoms: O_4  and  C_5
REMARK    4  A    between atoms: C_15  and  C_17
REMARK    5  A    between atoms: C_17  and  O_18
REMARK    6  A    between atoms: O_18  and  C_19
REMARK                            x       y       z     vdW  Elec       q    Type
REMARK                         _______ _______ _______ _____ _____    ______ ____
ROOT
ATOM      1  O   UNL     1       2.131   8.853  17.246  0.00  0.00    +0.000 OA
ATOM      2  C   UNL     1       2.065   8.377  18.385  0.00  0.00    +0.000 C 
ATOM      3  N   UNL     1       1.268   8.959  19.364  0.00  0.00    +0.000 N 
ATOM      4  C   UNL     1       1.109   8.474  20.744  0.00  0.00    +0.000 C 
ATOM      5  C   UNL     1       1.309   9.610  21.761  0.00  0.00    +0.000 C 
ATOM      6  N   UNL     1       0.483  10.776  21.427  0.00  0.00    +0.000 N 
ATOM      7  C   UNL     1      -0.347  11.322  22.393  0.00  0.00    +0.000 C 
ATOM      8  O   UNL     1      -0.428  10.834  23.525  0.00  0.00    +0.000 OA
ATOM      9  C   UNL     1       0.683  11.275  20.057  0.00  0.00    +0.000 C 
ATOM     10  C   UNL     1       0.463  10.145  19.033  0.00  0.00    +0.000 C 
ENDROOT
BRANCH   2  11
ATOM     11  C   UNL     1       2.866   7.121  18.731  0.00  0.00    +0.000 C 
BRANCH  11  12
ATOM     12  O   UNL     1       2.383   6.024  17.960  0.00  0.00    +0.000 OA
BRANCH  12  13
ATOM     13  C   UNL     1       1.906   4.966  18.690  0.00  0.00    +0.000 A 
ATOM     14  C   UNL     1       1.520   3.837  17.962  0.00  0.00    +0.000 A 
ATOM     15  C   UNL     1       1.075   2.688  18.621  0.00  0.00    +0.000 A 
ATOM     16  C   UNL     1       1.028   2.658  20.013  0.00  0.00    +0.000 A 
ATOM     17  C   UNL     1       1.422   3.778  20.742  0.00  0.00    +0.000 A 
ATOM     18  C   UNL     1       1.862   4.931  20.084  0.00  0.00    +0.000 A 
ENDBRANCH  12  13
ENDBRANCH  11  12
ENDBRANCH   2  11
BRANCH   7  19
ATOM     19  C   UNL     1      -1.216  12.529  22.027  0.00  0.00    +0.000 C 
BRANCH  19  20
ATOM     20  O   UNL     1      -2.482  12.092  21.548  0.00  0.00    +0.000 OA
BRANCH  20  21
ATOM     21  C   UNL     1      -3.549  12.428  22.341  0.00  0.00    +0.000 A 
ATOM     22  C   UNL     1      -4.728  12.774  21.676  0.00  0.00    +0.000 A 
ATOM     23  C   UNL     1      -5.885  13.084  22.398  0.00  0.00    +0.000 A 
ATOM     24  C   UNL     1      -5.872  13.040  23.791  0.00  0.00    +0.000 A 
ATOM     25  C   UNL     1      -4.701  12.685  24.457  0.00  0.00    +0.000 A 
ATOM     26  C   UNL     1      -3.542  12.379  23.736  0.00  0.00    +0.000 A 
ENDBRANCH  20  21
ENDBRANCH  19  20
ENDBRANCH   7  19
TORSDOF 6
ENDMDL
MODEL 7
REMARK VINA RESULT:      -7.5      1.931      2.658
REMARK  Name = 
REMARK  6 active torsions:
REMARK  status: ('A' for Active; 'I' for Inactive)
REMARK    1  A    between atoms: C_2  and  C_3
REMARK    2  A    between atoms: C_3  and  O_4
REMARK    3  A    between atoms: O_4  and  C_5
REMARK    4  A    between atoms: C_15  and  C_17
REMARK    5  A    between atoms: C_17  and  O_18
REMARK    6  A    between atoms: O_18  and  C_19
REMARK                            x       y       z     vdW  Elec       q    Type
REMARK                         _______ _______ _______ _____ _____    ______ ____
ROOT
ATOM      1  O   UNL     1       2.016   9.463  17.270  0.00  0.00    +0.000 OA
ATOM      2  C   UNL     1       1.667   9.007  18.366  0.00  0.00    +0.000 C 
ATOM      3  N   UNL     1       2.227   7.840  18.871  0.00  0.00    +0.000 N 
ATOM      4  C   UNL     1       1.895   7.214  20.161  0.00  0.00    +0.000 C 
ATOM      5  C   UNL     1       1.596   5.715  19.993  0.00  0.00    +0.000 C 
ATOM      6  N   UNL     1       2.665   5.040  19.247  0.00  0.00    +0.000 N 
ATOM      7  C   UNL     1       3.254   3.905  19.781  0.00  0.00    +0.000 C 
ATOM      8  O   UNL     1       2.920   3.461  20.883  0.00  0.00    +0.000 OA
ATOM      9  C   UNL     1       2.959   5.652  17.942  0.00  0.00    +0.000 C 
ATOM     10  C   UNL     1       3.278   7.149  18.107  0.00  0.00    +0.000 C 
ENDROOT
BRANCH   2  11
ATOM     11  C   UNL     1       0.604   9.736  19.188  0.00  0.00    +0.000 C 
BRANCH  11  12
ATOM     12  O   UNL     1       1.238  10.502  20.208  0.00  0.00    +0.000 OA
BRANCH  12  13
ATOM     13  C   UNL     1       0.420  10.890  21.237  0.00  0.00    +0.000 A 
ATOM     14  C   UNL     1       0.092  12.248  21.288  0.00  0.00    +0.000 A 
ATOM     15  C   UNL     1      -0.781  12.730  22.266  0.00  0.00    +0.000 A 
ATOM     16  C   UNL     1      -1.345  11.852  23.190  0.00  0.00    +0.000 A 
ATOM     17  C   UNL     1      -1.028  10.496  23.136  0.00  0.00    +0.000 A 
ATOM     18  C   UNL     1      -0.149  10.014  22.162  0.00  0.00    +0.000 A 
ENDBRANCH  12  13
ENDBRANCH  11  12
ENDBRANCH   2  11
BRANCH   7  19
ATOM     19  C   UNL     1       4.379   3.218  19.000  0.00  0.00    +0.000 C 
BRANCH  19  20
ATOM     20  O   UNL     1       5.645   3.659  19.476  0.00  0.00    +0.000 OA
BRANCH  20  21
ATOM     21  C   UNL     1       6.270   4.588  18.685  0.00  0.00    +0.000 A 
ATOM     22  C   UNL     1       6.071   4.461  17.308  0.00  0.00    +0.000 A 
ATOM     23  C   UNL     1       6.626   5.389  16.422  0.00  0.00    +0.000 A 
ATOM     24  C   UNL     1       7.377   6.457  16.910  0.00  0.00    +0.000 A 
ATOM     25  C   UNL     1       7.569   6.594  18.282  0.00  0.00    +0.000 A 
ATOM     26  C   UNL     1       7.017   5.663  19.170  0.00  0.00    +0.000 A 
ENDBRANCH  20  21
ENDBRANCH  19  20
ENDBRANCH   7  19
TORSDOF 6
ENDMDL
MODEL 8
REMARK VINA RESULT:      -7.3      1.851      8.269
REMARK  Name = 
REMARK  6 active torsions:
REMARK  status: ('A' for Active; 'I' for Inactive)
REMARK    1  A    between atoms: C_2  and  C_3
REMARK    2  A    between atoms: C_3  and  O_4
REMARK    3  A    between atoms: O_4  and  C_5
REMARK    4  A    between atoms: C_15  and  C_17
REMARK    5  A    between atoms: C_17  and  O_18
REMARK    6  A    between atoms: O_18  and  C_19
REMARK                            x       y       z     vdW  Elec       q    Type
REMARK                         _______ _______ _______ _____ _____    ______ ____
ROOT
ATOM      1  O   UNL     1       4.946   6.327  17.266  0.00  0.00    +0.000 OA
ATOM      2  C   UNL     1       4.306   6.153  18.311  0.00  0.00    +0.000 C 
ATOM      3  N   UNL     1       3.140   6.862  18.566  0.00  0.00    +0.000 N 
ATOM      4  C   UNL     1       2.298   6.730  19.766  0.00  0.00    +0.000 C 
ATOM      5  C   UNL     1       1.986   8.104  20.383  0.00  0.00    +0.000 C 
ATOM      6  N   UNL     1       1.465   9.035  19.375  0.00  0.00    +0.000 N 
ATOM      7  C   UNL     1       0.274   9.702  19.615  0.00  0.00    +0.000 C 
ATOM      8  O   UNL     1      -0.374   9.513  20.648  0.00  0.00    +0.000 OA
ATOM      9  C   UNL     1       2.337   9.188  18.199  0.00  0.00    +0.000 C 
ATOM     10  C   UNL     1       2.636   7.816  17.566  0.00  0.00    +0.000 C 
ENDROOT
BRANCH   2  11
ATOM     11  C   UNL     1       4.798   5.136  19.342  0.00  0.00    +0.000 C 
BRANCH  11  12
ATOM     12  O   UNL     1       4.446   3.822  18.915  0.00  0.00    +0.000 OA
BRANCH  12  13
ATOM     13  C   UNL     1       3.186   3.414  19.270  0.00  0.00    +0.000 A 
ATOM     14  C   UNL     1       2.313   3.119  18.219  0.00  0.00    +0.000 A 
ATOM     15  C   UNL     1       1.027   2.641  18.480  0.00  0.00    +0.000 A 
ATOM     16  C   UNL     1       0.612   2.441  19.795  0.00  0.00    +0.000 A 
ATOM     17  C   UNL     1       1.483   2.725  20.845  0.00  0.00    +0.000 A 
ATOM     18  C   UNL     1       2.769   3.209  20.585  0.00  0.00    +0.000 A 
ENDBRANCH  12  13
ENDBRANCH  11  12
ENDBRANCH   2  11
BRANCH   7  19
ATOM     19  C   UNL     1      -0.266  10.659  18.548  0.00  0.00    +0.000 C 
BRANCH  19  20
ATOM     20  O   UNL     1      -1.046   9.941  17.598  0.00  0.00    +0.000 OA
BRANCH  20  21
ATOM     21  C   UNL     1      -2.269  10.495  17.316  0.00  0.00    +0.000 A 
ATOM     22  C   UNL     1      -2.750  10.302  16.020  0.00  0.00    +0.000 A 
ATOM     23  C   UNL     1      -4.009  10.785  15.650  0.00  0.00    +0.000 A 
ATOM     24  C   UNL     1      -4.800  11.457  16.582  0.00  0.00    +0.000 A 
ATOM     25  C   UNL     1      -4.328  11.641  17.879  0.00  0.00    +0.000 A 
ATOM     26  C   UNL     1      -3.066  11.161  18.248  0.00  0.00    +0.000 A 
ENDBRANCH  20  21
ENDBRANCH  19  20
ENDBRANCH   7  19
TORSDOF 6
ENDMDL
MODEL 9
REMARK VINA RESULT:      -7.3      0.833      1.680
REMARK  Name = 
REMARK  6 active torsions:
REMARK  status: ('A' for Active; 'I' for Inactive)
REMARK    1  A    between atoms: C_2  and  C_3
REMARK    2  A    between atoms: C_3  and  O_4
REMARK    3  A    between atoms: O_4  and  C_5
REMARK    4  A    between atoms: C_15  and  C_17
REMARK    5  A    between atoms: C_17  and  O_18
REMARK    6  A    between atoms: O_18  and  C_19
REMARK                            x       y       z     vdW  Elec       q    Type
REMARK                         _______ _______ _______ _____ _____    ______ ____
ROOT
ATOM      1  O   UNL     1       1.458   9.802  17.831  0.00  0.00    +0.000 OA
ATOM      2  C   UNL     1       1.292   9.275  18.937  0.00  0.00    +0.000 C 
ATOM      3  N   UNL     1       1.946   8.098  19.279  0.00  0.00    +0.000 N 
ATOM      4  C   UNL     1       1.829   7.389  20.563  0.00  0.00    +0.000 C 
ATOM      5  C   UNL     1       1.538   5.895  20.352  0.00  0.00    +0.000 C 
ATOM      6  N   UNL     1       2.490   5.294  19.412  0.00  0.00    +0.000 N 
ATOM      7  C   UNL     1       3.178   4.147  19.778  0.00  0.00    +0.000 C 
ATOM      8  O   UNL     1       3.026   3.632  20.889  0.00  0.00    +0.000 OA
ATOM      9  C   UNL     1       2.567   5.987  18.116  0.00  0.00    +0.000 C 
ATOM     10  C   UNL     1       2.879   7.482  18.322  0.00  0.00    +0.000 C 
ENDROOT
BRANCH   2  11
ATOM     11  C   UNL     1       0.355   9.925  19.956  0.00  0.00    +0.000 C 
BRANCH  11  12
ATOM     12  O   UNL     1       0.090  11.269  19.563  0.00  0.00    +0.000 OA
BRANCH  12  13
ATOM     13  C   UNL     1      -1.236  11.575  19.396  0.00  0.00    +0.000 A 
ATOM     14  C   UNL     1      -1.883  10.954  18.323  0.00  0.00    +0.000 A 
ATOM     15  C   UNL     1      -3.248  11.158  18.106  0.00  0.00    +0.000 A 
ATOM     16  C   UNL     1      -3.977  11.973  18.971  0.00  0.00    +0.000 A 
ATOM     17  C   UNL     1      -3.337  12.585  20.047  0.00  0.00    +0.000 A 
ATOM     18  C   UNL     1      -1.970  12.386  20.262  0.00  0.00    +0.000 A 
ENDBRANCH  12  13
ENDBRANCH  11  12
ENDBRANCH   2  11
BRANCH   7  19
ATOM     19  C   UNL     1       4.181   3.538  18.794  0.00  0.00    +0.000 C 
BRANCH  19  20
ATOM     20  O   UNL     1       5.509   3.744  19.260  0.00  0.00    +0.000 OA
BRANCH  20  21
ATOM     21  C   UNL     1       6.193   4.754  18.634  0.00  0.00    +0.000 A 
ATOM     22  C   UNL     1       5.828   5.021  17.313  0.00  0.00    +0.000 A 
ATOM     23  C   UNL     1       6.433   6.065  16.606  0.00  0.00    +0.000 A 
ATOM     24  C   UNL     1       7.402   6.855  17.222  0.00  0.00    +0.000 A 
ATOM     25  C   UNL     1       7.761   6.600  18.543  0.00  0.00    +0.000 A 
ATOM     26  C   UNL     1       7.159   5.552  19.250  0.00  0.00    +0.000 A 
ENDBRANCH  20  21
ENDBRANCH  19  20
ENDBRANCH   7  19
TORSDOF 6
ENDMDL
