MODEL 1
REMARK VINA RESULT:     -10.2      0.000      0.000
REMARK  Name = 
REMARK  7 active torsions:
REMARK  status: ('A' for Active; 'I' for Inactive)
REMARK    1  A    between atoms: C_1  and  N_2
REMARK    2  A    between atoms: C_3  and  C_5
REMARK    3  A    between atoms: C_8  and  C_9
REMARK    4  A    between atoms: C_11  and  C_12
REMARK    5  A    between atoms: C_15  and  C_16
REMARK    6  A    between atoms: C_16  and  C_17
REMARK    7  A    between atoms: C_25  and  O_26
REMARK                            x       y       z     vdW  Elec       q    Type
REMARK                         _______ _______ _______ _____ _____    ______ ____
ROOT
ATOM      1  C   UNL     1       2.983   5.794  18.128  0.00  0.00    +0.000 A 
ATOM      2  N   UNL     1       4.070   5.969  17.323  0.00  0.00    +0.000 NA
ATOM      3  C   UNL     1       4.694   4.871  16.835  0.00  0.00    +0.000 A 
ATOM      4  C   UNL     1       4.287   3.576  17.157  0.00  0.00    +0.000 A 
ATOM      5  C   UNL     1       3.169   3.381  17.967  0.00  0.00    +0.000 A 
ATOM      6  N   UNL     1       2.776   2.120  18.269  0.00  0.00    +0.000 NA
ATOM      7  C   UNL     1       1.664   1.924  19.004  0.00  0.00    +0.000 A 
ATOM      8  C   UNL     1       0.871   2.950  19.456  0.00  0.00    +0.000 A 
ATOM      9  C   UNL     1       1.267   4.247  19.155  0.00  0.00    +0.000 A 
ATOM     10  C   UNL     1       2.462   4.507  18.434  0.00  0.00    +0.000 A 
ENDROOT
BRANCH   1  14
ATOM     11  C   UNL     1       1.309   9.532  19.538  0.00  0.00    +0.000 A 
ATOM     12  C   UNL     1       1.651   9.364  18.194  0.00  0.00    +0.000 A 
ATOM     13  C   UNL     1       2.187   8.148  17.751  0.00  0.00    +0.000 A 
ATOM     14  C   UNL     1       2.419   7.075  18.634  0.00  0.00    +0.000 A 
ATOM     15  C   UNL     1       2.134   7.298  19.995  0.00  0.00    +0.000 A 
ATOM     16  C   UNL     1       1.563   8.498  20.440  0.00  0.00    +0.000 A 
BRANCH  11  19
ATOM     17  C   UNL     1      -0.940  12.565  19.736  0.00  0.00    +0.000 C 
ATOM     18  N   UNL     1      -0.310  11.339  19.326  0.00  0.00    +0.000 N 
ATOM     19  C   UNL     1       0.731  10.803  20.054  0.00  0.00    +0.000 C 
ATOM     20  O   UNL     1       1.164  11.305  21.085  0.00  0.00    +0.000 OA
ATOM     21  H   UNL     1      -0.749  10.792  18.597  0.00  0.00    +0.000 HD
ENDBRANCH  11  19
ENDBRANCH   1  14
BRANCH   3  22
ATOM     22  C   UNL     1       5.816   5.103  15.929  0.00  0.00    +0.000 A 
ATOM     23  N   UNL     1       6.981   5.666  16.195  0.00  0.00    +0.000 NA
ATOM     24  N   UNL     1       7.690   5.686  15.020  0.00  0.00    +0.000 NA
ATOM     25  C   UNL     1       6.918   5.132  14.107  0.00  0.00    +0.000 A 
ATOM     26  O   UNL     1       5.704   4.730  14.611  0.00  0.00    +0.000 OA
BRANCH  25  27
ATOM     27  C   UNL     1       7.143   4.997  12.648  0.00  0.00    +0.000 C 
BRANCH  27  28
ATOM     28  C   UNL     1       6.758   3.646  12.085  0.00  0.00    +0.000 A 
ATOM     29  C   UNL     1       7.747   2.745  11.661  0.00  0.00    +0.000 A 
ATOM     30  C   UNL     1       7.391   1.484  11.177  0.00  0.00    +0.000 A 
ATOM     31  C   UNL     1       6.051   1.125  11.110  0.00  0.00    +0.000 A 
ATOM     32  F   UNL     1       5.715  -0.089  10.655  0.00  0.00    +0.000 F 
ATOM     33  C   UNL     1       5.055   2.007  11.510  0.00  0.00    +0.000 A 
ATOM     34  C   UNL     1       5.406   3.269  11.994  0.00  0.00    +0.000 A 
ENDBRANCH  27  28
ENDBRANCH  25  27
ENDBRANCH   3  22
BRANCH   4  35
ATOM     35  O   UNL     1       4.943   2.455  16.688  0.00  0.00    +0.000 OA
ATOM     36  H   UNL     1       5.904   2.613  16.612  0.00  0.00    +0.000 HD
ENDBRANCH   4  35
TORSDOF 6
ENDMDL
MODEL 2
REMARK VINA RESULT:     -10.1      1.182      1.203
REMARK  Name = 
REMARK  7 active torsions:
REMARK  status: ('A' for Active; 'I' for Inactive)
REMARK    1  A    between atoms: C_1  and  N_2
REMARK    2  A    between atoms: C_3  and  C_5
REMARK    3  A    between atoms: C_8  and  C_9
REMARK    4  A    between atoms: C_11  and  C_12
REMARK    5  A    between atoms: C_15  and  C_16
REMARK    6  A    between atoms: C_16  and  C_17
REMARK    7  A    between atoms: C_25  and  O_26
REMARK                            x       y       z     vdW  Elec       q    Type
REMARK                         _______ _______ _______ _____ _____    ______ ____
ROOT
ATOM      1  C   UNL     1       3.031   5.927  18.943  0.00  0.00    +0.000 A 
ATOM      2  N   UNL     1       4.067   5.880  18.059  0.00  0.00    +0.000 NA
ATOM      3  C   UNL     1       4.767   4.726  17.946  0.00  0.00    +0.000 A 
ATOM      4  C   UNL     1       4.488   3.604  18.728  0.00  0.00    +0.000 A 
ATOM      5  C   UNL     1       3.423   3.633  19.626  0.00  0.00    +0.000 A 
ATOM      6  N   UNL     1       3.153   2.537  20.377  0.00  0.00    +0.000 NA
ATOM      7  C   UNL     1       2.091   2.538  21.205  0.00  0.00    +0.000 A 
ATOM      8  C   UNL     1       1.228   3.600  21.320  0.00  0.00    +0.000 A 
ATOM      9  C   UNL     1       1.497   4.730  20.558  0.00  0.00    +0.000 A 
ATOM     10  C   UNL     1       2.637   4.800  19.715  0.00  0.00    +0.000 A 
ENDROOT
BRANCH   1  14
ATOM     11  C   UNL     1       1.102   9.804  19.055  0.00  0.00    +0.000 A 
ATOM     12  C   UNL     1       1.672   9.323  17.873  0.00  0.00    +0.000 A 
ATOM     13  C   UNL     1       2.289   8.065  17.851  0.00  0.00    +0.000 A 
ATOM     14  C   UNL     1       2.375   7.262  19.004  0.00  0.00    +0.000 A 
ATOM     15  C   UNL     1       1.858   7.804  20.197  0.00  0.00    +0.000 A 
ATOM     16  C   UNL     1       1.208   9.044  20.220  0.00  0.00    +0.000 A 
BRANCH  11  19
ATOM     17  C   UNL     1      -1.265  12.617  18.169  0.00  0.00    +0.000 C 
ATOM     18  N   UNL     1      -0.554  11.366  18.190  0.00  0.00    +0.000 N 
ATOM     19  C   UNL     1       0.432  11.131  19.125  0.00  0.00    +0.000 C 
ATOM     20  O   UNL     1       0.746  11.936  19.994  0.00  0.00    +0.000 OA
ATOM     21  H   UNL     1      -0.901  10.605  17.622  0.00  0.00    +0.000 HD
ENDBRANCH  11  19
ENDBRANCH   1  14
BRANCH   3  22
ATOM     22  C   UNL     1       5.829   4.699  16.944  0.00  0.00    +0.000 A 
ATOM     23  N   UNL     1       7.125   4.515  17.129  0.00  0.00    +0.000 NA
ATOM     24  N   UNL     1       7.718   4.603  15.894  0.00  0.00    +0.000 NA
ATOM     25  C   UNL     1       6.751   4.832  15.029  0.00  0.00    +0.000 A 
ATOM     26  O   UNL     1       5.513   4.904  15.623  0.00  0.00    +0.000 OA
BRANCH  25  27
ATOM     27  C   UNL     1       6.842   5.120  13.577  0.00  0.00    +0.000 C 
BRANCH  27  28
ATOM     28  C   UNL     1       6.605   3.916  12.691  0.00  0.00    +0.000 A 
ATOM     29  C   UNL     1       7.683   3.276  12.061  0.00  0.00    +0.000 A 
ATOM     30  C   UNL     1       7.467   2.142  11.275  0.00  0.00    +0.000 A 
ATOM     31  C   UNL     1       6.177   1.652  11.111  0.00  0.00    +0.000 A 
ATOM     32  F   UNL     1       5.976   0.559  10.365  0.00  0.00    +0.000 F 
ATOM     33  C   UNL     1       5.095   2.279  11.714  0.00  0.00    +0.000 A 
ATOM     34  C   UNL     1       5.305   3.414  12.501  0.00  0.00    +0.000 A 
ENDBRANCH  27  28
ENDBRANCH  25  27
ENDBRANCH   3  22
BRANCH   4  35
ATOM     35  O   UNL     1       5.222   2.439  18.639  0.00  0.00    +0.000 OA
ATOM     36  H   UNL     1       4.644   1.666  18.487  0.00  0.00    +0.000 HD
ENDBRANCH   4  35
TORSDOF 6
ENDMDL
MODEL 3
REMARK VINA RESULT:     -10.0      1.565      1.903
REMARK  Name = 
REMARK  7 active torsions:
REMARK  status: ('A' for Active; 'I' for Inactive)
REMARK    1  A    between atoms: C_1  and  N_2
REMARK    2  A    between atoms: C_3  and  C_5
REMARK    3  A    between atoms: C_8  and  C_9
REMARK    4  A    between atoms: C_11  and  C_12
REMARK    5  A    between atoms: C_15  and  C_16
REMARK    6  A    between atoms: C_16  and  C_17
REMARK    7  A    between atoms: C_25  and  O_26
REMARK                            x       y       z     vdW  Elec       q    Type
REMARK                         _______ _______ _______ _____ _____    ______ ____
ROOT
ATOM      1  C   UNL     1       3.025   5.871  19.259  0.00  0.00    +0.000 A 
ATOM      2  N   UNL     1       4.160   5.817  18.506  0.00  0.00    +0.000 NA
ATOM      3  C   UNL     1       4.887   4.674  18.517  0.00  0.00    +0.000 A 
ATOM      4  C   UNL     1       4.535   3.573  19.298  0.00  0.00    +0.000 A 
ATOM      5  C   UNL     1       3.370   3.609  20.062  0.00  0.00    +0.000 A 
ATOM      6  N   UNL     1       3.030   2.532  20.812  0.00  0.00    +0.000 NA
ATOM      7  C   UNL     1       1.877   2.538  21.507  0.00  0.00    +0.000 A 
ATOM      8  C   UNL     1       0.990   3.586  21.483  0.00  0.00    +0.000 A 
ATOM      9  C   UNL     1       1.329   4.696  20.720  0.00  0.00    +0.000 A 
ATOM     10  C   UNL     1       2.560   4.762  20.017  0.00  0.00    +0.000 A 
ENDROOT
BRANCH   1  14
ATOM     11  C   UNL     1       1.031   9.709  19.009  0.00  0.00    +0.000 A 
ATOM     12  C   UNL     1       1.687   9.171  17.899  0.00  0.00    +0.000 A 
ATOM     13  C   UNL     1       2.325   7.926  17.994  0.00  0.00    +0.000 A 
ATOM     14  C   UNL     1       2.345   7.194  19.196  0.00  0.00    +0.000 A 
ATOM     15  C   UNL     1       1.740   7.794  20.317  0.00  0.00    +0.000 A 
ATOM     16  C   UNL     1       1.069   9.021  20.222  0.00  0.00    +0.000 A 
BRANCH  11  19
ATOM     17  C   UNL     1      -1.520  12.317  18.016  0.00  0.00    +0.000 C 
ATOM     18  N   UNL     1      -0.775  11.093  18.141  0.00  0.00    +0.000 N 
ATOM     19  C   UNL     1       0.336  11.024  18.955  0.00  0.00    +0.000 C 
ATOM     20  O   UNL     1       0.741  11.964  19.628  0.00  0.00    +0.000 OA
ATOM     21  H   UNL     1      -1.173  10.245  17.758  0.00  0.00    +0.000 HD
ENDBRANCH  11  19
ENDBRANCH   1  14
BRANCH   3  22
ATOM     22  C   UNL     1       6.062   4.636  17.650  0.00  0.00    +0.000 A 
ATOM     23  N   UNL     1       7.319   4.403  17.984  0.00  0.00    +0.000 NA
ATOM     24  N   UNL     1       8.060   4.502  16.832  0.00  0.00    +0.000 NA
ATOM     25  C   UNL     1       7.213   4.787  15.865  0.00  0.00    +0.000 A 
ATOM     26  O   UNL     1       5.915   4.886  16.307  0.00  0.00    +0.000 OA
BRANCH  25  27
ATOM     27  C   UNL     1       7.489   5.110  14.444  0.00  0.00    +0.000 C 
BRANCH  27  28
ATOM     28  C   UNL     1       6.711   4.268  13.456  0.00  0.00    +0.000 A 
ATOM     29  C   UNL     1       5.321   4.124  13.586  0.00  0.00    +0.000 A 
ATOM     30  C   UNL     1       4.599   3.378  12.652  0.00  0.00    +0.000 A 
ATOM     31  C   UNL     1       5.264   2.770  11.594  0.00  0.00    +0.000 A 
ATOM     32  F   UNL     1       4.566   2.064  10.695  0.00  0.00    +0.000 F 
ATOM     33  C   UNL     1       6.640   2.887  11.455  0.00  0.00    +0.000 A 
ATOM     34  C   UNL     1       7.367   3.631  12.387  0.00  0.00    +0.000 A 
ENDBRANCH  27  28
ENDBRANCH  25  27
ENDBRANCH   3  22
BRANCH   4  35
ATOM     35  O   UNL     1       5.294   2.420  19.337  0.00  0.00    +0.000 OA
ATOM     36  H   UNL     1       4.738   1.636  19.512  0.00  0.00    +0.000 HD
ENDBRANCH   4  35
TORSDOF 6
ENDMDL
MODEL 4
REMARK VINA RESULT:      -9.9      1.694      2.062
REMARK  Name = 
REMARK  7 active torsions:
REMARK  status: ('A' for Active; 'I' for Inactive)
REMARK    1  A    between atoms: C_1  and  N_2
REMARK    2  A    between atoms: C_3  and  C_5
REMARK    3  A    between atoms: C_8  and  C_9
REMARK    4  A    between atoms: C_11  and  C_12
REMARK    5  A    between atoms: C_15  and  C_16
REMARK    6  A    between atoms: C_16  and  C_17
REMARK    7  A    between atoms: C_25  and  O_26
REMARK                            x       y       z     vdW  Elec       q    Type
REMARK                         _______ _______ _______ _____ _____    ______ ____
ROOT
ATOM      1  C   UNL     1       2.969   5.862  19.318  0.00  0.00    +0.000 A 
ATOM      2  N   UNL     1       4.138   5.827  18.617  0.00  0.00    +0.000 NA
ATOM      3  C   UNL     1       4.874   4.690  18.648  0.00  0.00    +0.000 A 
ATOM      4  C   UNL     1       4.498   3.577  19.400  0.00  0.00    +0.000 A 
ATOM      5  C   UNL     1       3.299   3.593  20.110  0.00  0.00    +0.000 A 
ATOM      6  N   UNL     1       2.936   2.505  20.832  0.00  0.00    +0.000 NA
ATOM      7  C   UNL     1       1.752   2.492  21.474  0.00  0.00    +0.000 A 
ATOM      8  C   UNL     1       0.857   3.532  21.421  0.00  0.00    +0.000 A 
ATOM      9  C   UNL     1       1.220   4.654  20.687  0.00  0.00    +0.000 A 
ATOM     10  C   UNL     1       2.481   4.739  20.041  0.00  0.00    +0.000 A 
ENDROOT
BRANCH   1  14
ATOM     11  C   UNL     1       0.984   9.708  19.153  0.00  0.00    +0.000 A 
ATOM     12  C   UNL     1       1.077   9.003  20.356  0.00  0.00    +0.000 A 
ATOM     13  C   UNL     1       1.726   7.762  20.394  0.00  0.00    +0.000 A 
ATOM     14  C   UNL     1       2.280   7.179  19.239  0.00  0.00    +0.000 A 
ATOM     15  C   UNL     1       2.107   7.877  18.029  0.00  0.00    +0.000 A 
ATOM     16  C   UNL     1       1.492   9.135  17.986  0.00  0.00    +0.000 A 
BRANCH  11  19
ATOM     17  C   UNL     1       0.519  13.395  18.454  0.00  0.00    +0.000 C 
ATOM     18  N   UNL     1       1.073  12.074  18.580  0.00  0.00    +0.000 N 
ATOM     19  C   UNL     1       0.310  11.032  19.064  0.00  0.00    +0.000 C 
ATOM     20  O   UNL     1      -0.867  11.149  19.387  0.00  0.00    +0.000 OA
ATOM     21  H   UNL     1       1.971  11.885  18.155  0.00  0.00    +0.000 HD
ENDBRANCH  11  19
ENDBRANCH   1  14
BRANCH   3  22
ATOM     22  C   UNL     1       6.088   4.674  17.835  0.00  0.00    +0.000 A 
ATOM     23  N   UNL     1       7.331   4.451  18.223  0.00  0.00    +0.000 NA
ATOM     24  N   UNL     1       8.122   4.569  17.108  0.00  0.00    +0.000 NA
ATOM     25  C   UNL     1       7.317   4.854  16.106  0.00  0.00    +0.000 A 
ATOM     26  O   UNL     1       5.999   4.934  16.488  0.00  0.00    +0.000 OA
BRANCH  25  27
ATOM     27  C   UNL     1       7.653   5.193  14.701  0.00  0.00    +0.000 C 
BRANCH  27  28
ATOM     28  C   UNL     1       6.823   4.457  13.672  0.00  0.00    +0.000 A 
ATOM     29  C   UNL     1       7.385   4.088  12.439  0.00  0.00    +0.000 A 
ATOM     30  C   UNL     1       6.629   3.375  11.505  0.00  0.00    +0.000 A 
ATOM     31  C   UNL     1       5.313   3.039  11.797  0.00  0.00    +0.000 A 
ATOM     32  F   UNL     1       4.595   2.346  10.903  0.00  0.00    +0.000 F 
ATOM     33  C   UNL     1       4.733   3.406  13.004  0.00  0.00    +0.000 A 
ATOM     34  C   UNL     1       5.484   4.120  13.941  0.00  0.00    +0.000 A 
ENDBRANCH  27  28
ENDBRANCH  25  27
ENDBRANCH   3  22
BRANCH   4  35
ATOM     35  O   UNL     1       5.265   2.431  19.460  0.00  0.00    +0.000 OA
ATOM     36  H   UNL     1       5.759   2.290  18.629  0.00  0.00    +0.000 HD
ENDBRANCH   4  35
TORSDOF 6
ENDMDL
MODEL 5
REMARK VINA RESULT:      -9.8      0.471      1.260
REMARK  Name = 
REMARK  7 active torsions:
REMARK  status: ('A' for Active; 'I' for Inactive)
REMARK    1  A    between atoms: C_1  and  N_2
REMARK    2  A    between atoms: C_3  and  C_5
REMARK    3  A    between atoms: C_8  and  C_9
REMARK    4  A    between atoms: C_11  and  C_12
REMARK    5  A    between atoms: C_15  and  C_16
REMARK    6  A    between atoms: C_16  and  C_17
REMARK    7  A    between atoms: C_25  and  O_26
REMARK                            x       y       z     vdW  Elec       q    Type
REMARK                         _______ _______ _______ _____ _____    ______ ____
ROOT
ATOM      1  C   UNL     1       2.942   5.928  18.293  0.00  0.00    +0.000 A 
ATOM      2  N   UNL     1       4.015   6.051  17.463  0.00  0.00    +0.000 NA
ATOM      3  C   UNL     1       4.658   4.926  17.069  0.00  0.00    +0.000 A 
ATOM      4  C   UNL     1       4.284   3.658  17.514  0.00  0.00    +0.000 A 
ATOM      5  C   UNL     1       3.179   3.515  18.352  0.00  0.00    +0.000 A 
ATOM      6  N   UNL     1       2.817   2.279  18.773  0.00  0.00    +0.000 NA
ATOM      7  C   UNL     1       1.718   2.128  19.537  0.00  0.00    +0.000 A 
ATOM      8  C   UNL     1       0.908   3.174  19.903  0.00  0.00    +0.000 A 
ATOM      9  C   UNL     1       1.271   4.446  19.480  0.00  0.00    +0.000 A 
ATOM     10  C   UNL     1       2.453   4.664  18.723  0.00  0.00    +0.000 A 
ENDROOT
BRANCH   1  14
ATOM     11  C   UNL     1       1.261   9.733  19.502  0.00  0.00    +0.000 A 
ATOM     12  C   UNL     1       1.433   8.702  20.429  0.00  0.00    +0.000 A 
ATOM     13  C   UNL     1       1.982   7.477  20.024  0.00  0.00    +0.000 A 
ATOM     14  C   UNL     1       2.355   7.238  18.687  0.00  0.00    +0.000 A 
ATOM     15  C   UNL     1       2.102   8.269  17.762  0.00  0.00    +0.000 A 
ATOM     16  C   UNL     1       1.588   9.509  18.164  0.00  0.00    +0.000 A 
BRANCH  11  19
ATOM     17  C   UNL     1      -1.243  12.255  20.794  0.00  0.00    +0.000 C 
ATOM     18  N   UNL     1      -0.594  11.035  20.393  0.00  0.00    +0.000 N 
ATOM     19  C   UNL     1       0.688  11.052  19.886  0.00  0.00    +0.000 C 
ATOM     20  O   UNL     1       1.356  12.073  19.769  0.00  0.00    +0.000 OA
ATOM     21  H   UNL     1      -1.025  10.155  20.643  0.00  0.00    +0.000 HD
ENDBRANCH  11  19
ENDBRANCH   1  14
BRANCH   3  22
ATOM     22  C   UNL     1       5.765   5.098  16.131  0.00  0.00    +0.000 A 
ATOM     23  N   UNL     1       6.990   5.525  16.379  0.00  0.00    +0.000 NA
ATOM     24  N   UNL     1       7.655   5.542  15.179  0.00  0.00    +0.000 NA
ATOM     25  C   UNL     1       6.799   5.123  14.270  0.00  0.00    +0.000 A 
ATOM     26  O   UNL     1       5.569   4.815  14.801  0.00  0.00    +0.000 OA
BRANCH  25  27
ATOM     27  C   UNL     1       6.957   5.051  12.797  0.00  0.00    +0.000 C 
BRANCH  27  28
ATOM     28  C   UNL     1       6.673   3.686  12.210  0.00  0.00    +0.000 A 
ATOM     29  C   UNL     1       5.351   3.232  12.077  0.00  0.00    +0.000 A 
ATOM     30  C   UNL     1       5.088   1.987  11.500  0.00  0.00    +0.000 A 
ATOM     31  C   UNL     1       6.142   1.194  11.063  0.00  0.00    +0.000 A 
ATOM     32  F   UNL     1       5.884   0.007  10.501  0.00  0.00    +0.000 F 
ATOM     33  C   UNL     1       7.457   1.617  11.198  0.00  0.00    +0.000 A 
ATOM     34  C   UNL     1       7.725   2.861  11.776  0.00  0.00    +0.000 A 
ENDBRANCH  27  28
ENDBRANCH  25  27
ENDBRANCH   3  22
BRANCH   4  35
ATOM     35  O   UNL     1       4.960   2.513  17.140  0.00  0.00    +0.000 OA
ATOM     36  H   UNL     1       4.365   1.738  17.128  0.00  0.00    +0.000 HD
ENDBRANCH   4  35
TORSDOF 6
ENDMDL
MODEL 6
REMARK VINA RESULT:      -9.8      0.612      1.028
REMARK  Name = 
REMARK  7 active torsions:
REMARK  status: ('A' for Active; 'I' for Inactive)
REMARK    1  A    between atoms: C_1  and  N_2
REMARK    2  A    between atoms: C_3  and  C_5
REMARK    3  A    between atoms: C_8  and  C_9
REMARK    4  A    between atoms: C_11  and  C_12
REMARK    5  A    between atoms: C_15  and  C_16
REMARK    6  A    between atoms: C_16  and  C_17
REMARK    7  A    between atoms: C_25  and  O_26
REMARK                            x       y       z     vdW  Elec       q    Type
REMARK                         _______ _______ _______ _____ _____    ______ ____
ROOT
ATOM      1  C   UNL     1       2.889   6.026  18.505  0.00  0.00    +0.000 A 
ATOM      2  N   UNL     1       3.947   6.079  17.648  0.00  0.00    +0.000 NA
ATOM      3  C   UNL     1       4.577   4.923  17.330  0.00  0.00    +0.000 A 
ATOM      4  C   UNL     1       4.206   3.694  17.877  0.00  0.00    +0.000 A 
ATOM      5  C   UNL     1       3.116   3.623  18.744  0.00  0.00    +0.000 A 
ATOM      6  N   UNL     1       2.756   2.425  19.265  0.00  0.00    +0.000 NA
ATOM      7  C   UNL     1       1.671   2.339  20.058  0.00  0.00    +0.000 A 
ATOM      8  C   UNL     1       0.872   3.415  20.357  0.00  0.00    +0.000 A 
ATOM      9  C   UNL     1       1.234   4.649  19.831  0.00  0.00    +0.000 A 
ATOM     10  C   UNL     1       2.402   4.801  19.039  0.00  0.00    +0.000 A 
ENDROOT
BRANCH   1  14
ATOM     11  C   UNL     1       1.194   9.928  19.321  0.00  0.00    +0.000 A 
ATOM     12  C   UNL     1       1.670   9.608  18.047  0.00  0.00    +0.000 A 
ATOM     13  C   UNL     1       2.212   8.340  17.797  0.00  0.00    +0.000 A 
ATOM     14  C   UNL     1       2.315   7.365  18.808  0.00  0.00    +0.000 A 
ATOM     15  C   UNL     1       1.895   7.741  20.098  0.00  0.00    +0.000 A 
ATOM     16  C   UNL     1       1.319   8.993  20.350  0.00  0.00    +0.000 A 
BRANCH  11  19
ATOM     17  C   UNL     1      -0.922  13.036  18.920  0.00  0.00    +0.000 C 
ATOM     18  N   UNL     1      -0.295  11.757  18.715  0.00  0.00    +0.000 N 
ATOM     19  C   UNL     1       0.606  11.259  19.633  0.00  0.00    +0.000 C 
ATOM     20  O   UNL     1       0.908  11.841  20.668  0.00  0.00    +0.000 OA
ATOM     21  H   UNL     1      -0.649  11.159  17.981  0.00  0.00    +0.000 HD
ENDBRANCH  11  19
ENDBRANCH   1  14
BRANCH   3  22
ATOM     22  C   UNL     1       5.667   5.016  16.362  0.00  0.00    +0.000 A 
ATOM     23  N   UNL     1       6.948   5.245  16.590  0.00  0.00    +0.000 NA
ATOM     24  N   UNL     1       7.571   5.270  15.367  0.00  0.00    +0.000 NA
ATOM     25  C   UNL     1       6.636   5.052  14.466  0.00  0.00    +0.000 A 
ATOM     26  O   UNL     1       5.391   4.876  15.023  0.00  0.00    +0.000 OA
BRANCH  25  27
ATOM     27  C   UNL     1       6.736   5.082  12.986  0.00  0.00    +0.000 C 
BRANCH  27  28
ATOM     28  C   UNL     1       6.551   3.733  12.326  0.00  0.00    +0.000 A 
ATOM     29  C   UNL     1       5.263   3.206  12.138  0.00  0.00    +0.000 A 
ATOM     30  C   UNL     1       5.091   1.978  11.494  0.00  0.00    +0.000 A 
ATOM     31  C   UNL     1       6.203   1.275  11.045  0.00  0.00    +0.000 A 
ATOM     32  F   UNL     1       6.033   0.104  10.418  0.00  0.00    +0.000 F 
ATOM     33  C   UNL     1       7.486   1.772  11.233  0.00  0.00    +0.000 A 
ATOM     34  C   UNL     1       7.662   2.998  11.878  0.00  0.00    +0.000 A 
ENDBRANCH  27  28
ENDBRANCH  25  27
ENDBRANCH   3  22
BRANCH   4  35
ATOM     35  O   UNL     1       4.869   2.521  17.580  0.00  0.00    +0.000 OA
ATOM     36  H   UNL     1       5.385   2.604  16.755  0.00  0.00    +0.000 HD
ENDBRANCH   4  35
TORSDOF 6
ENDMDL
MODEL 7
REMARK VINA RESULT:      -9.4      1.293      1.601
REMARK  Name = 
REMARK  7 active torsions:
REMARK  status: ('A' for Active; 'I' for Inactive)
REMARK    1  A    between atoms: C_1  and  N_2
REMARK    2  A    between atoms: C_3  and  C_5
REMARK    3  A    between atoms: C_8  and  C_9
REMARK    4  A    between atoms: C_11  and  C_12
REMARK    5  A    between atoms: C_15  and  C_16
REMARK    6  A    between atoms: C_16  and  C_17
REMARK    7  A    between atoms: C_25  and  O_26
REMARK                            x       y       z     vdW  Elec       q    Type
REMARK                         _______ _______ _______ _____ _____    ______ ____
ROOT
ATOM      1  C   UNL     1       2.854   6.232  18.711  0.00  0.00    +0.000 A 
ATOM      2  N   UNL     1       3.911   6.312  17.855  0.00  0.00    +0.000 NA
ATOM      3  C   UNL     1       4.641   5.194  17.627  0.00  0.00    +0.000 A 
ATOM      4  C   UNL     1       4.371   3.982  18.264  0.00  0.00    +0.000 A 
ATOM      5  C   UNL     1       3.284   3.882  19.131  0.00  0.00    +0.000 A 
ATOM      6  N   UNL     1       3.023   2.701  19.741  0.00  0.00    +0.000 NA
ATOM      7  C   UNL     1       1.942   2.582  20.535  0.00  0.00    +0.000 A 
ATOM      8  C   UNL     1       1.052   3.604  20.751  0.00  0.00    +0.000 A 
ATOM      9  C   UNL     1       1.311   4.822  20.134  0.00  0.00    +0.000 A 
ATOM     10  C   UNL     1       2.469   5.014  19.335  0.00  0.00    +0.000 A 
ENDROOT
BRANCH   1  14
ATOM     11  C   UNL     1       0.823  10.024  19.226  0.00  0.00    +0.000 A 
ATOM     12  C   UNL     1       1.312   9.640  17.975  0.00  0.00    +0.000 A 
ATOM     13  C   UNL     1       1.963   8.408  17.823  0.00  0.00    +0.000 A 
ATOM     14  C   UNL     1       2.165   7.536  18.911  0.00  0.00    +0.000 A 
ATOM     15  C   UNL     1       1.727   7.982  20.172  0.00  0.00    +0.000 A 
ATOM     16  C   UNL     1       1.043   9.195  20.328  0.00  0.00    +0.000 A 
BRANCH  11  19
ATOM     17  C   UNL     1      -0.362  13.550  18.547  0.00  0.00    +0.000 C 
ATOM     18  N   UNL     1       0.274  12.263  18.443  0.00  0.00    +0.000 N 
ATOM     19  C   UNL     1       0.120  11.319  19.436  0.00  0.00    +0.000 C 
ATOM     20  O   UNL     1      -0.568  11.493  20.434  0.00  0.00    +0.000 OA
ATOM     21  H   UNL     1       0.694  12.003  17.561  0.00  0.00    +0.000 HD
ENDBRANCH  11  19
ENDBRANCH   1  14
BRANCH   3  22
ATOM     22  C   UNL     1       5.728   5.307  16.657  0.00  0.00    +0.000 A 
ATOM     23  N   UNL     1       6.614   6.278  16.530  0.00  0.00    +0.000 NA
ATOM     24  N   UNL     1       7.411   5.951  15.461  0.00  0.00    +0.000 NA
ATOM     25  C   UNL     1       6.966   4.800  15.001  0.00  0.00    +0.000 A 
ATOM     26  O   UNL     1       5.893   4.320  15.715  0.00  0.00    +0.000 OA
BRANCH  25  27
ATOM     27  C   UNL     1       7.390   4.047  13.795  0.00  0.00    +0.000 C 
BRANCH  27  28
ATOM     28  C   UNL     1       6.247   3.618  12.901  0.00  0.00    +0.000 A 
ATOM     29  C   UNL     1       5.046   4.345  12.887  0.00  0.00    +0.000 A 
ATOM     30  C   UNL     1       4.005   3.971  12.033  0.00  0.00    +0.000 A 
ATOM     31  C   UNL     1       4.161   2.870  11.200  0.00  0.00    +0.000 A 
ATOM     32  F   UNL     1       3.165   2.521  10.375  0.00  0.00    +0.000 F 
ATOM     33  C   UNL     1       5.335   2.128  11.208  0.00  0.00    +0.000 A 
ATOM     34  C   UNL     1       6.377   2.498  12.061  0.00  0.00    +0.000 A 
ENDBRANCH  27  28
ENDBRANCH  25  27
ENDBRANCH   3  22
BRANCH   4  35
ATOM     35  O   UNL     1       5.135   2.851  18.059  0.00  0.00    +0.000 OA
ATOM     36  H   UNL     1       5.768   2.979  17.326  0.00  0.00    +0.000 HD
ENDBRANCH   4  35
TORSDOF 6
ENDMDL
MODEL 8
REMARK VINA RESULT:      -9.2      1.220      1.744
REMARK  Name = 
REMARK  7 active torsions:
REMARK  status: ('A' for Active; 'I' for Inactive)
REMARK    1  A    between atoms: C_1  and  N_2
REMARK    2  A    between atoms: C_3  and  C_5
REMARK    3  A    between atoms: C_8  and  C_9
REMARK    4  A    between atoms: C_11  and  C_12
REMARK    5  A    between atoms: C_15  and  C_16
REMARK    6  A    between atoms: C_16  and  C_17
REMARK    7  A    between atoms: C_25  and  O_26
REMARK                            x       y       z     vdW  Elec       q    Type
REMARK                         _______ _______ _______ _____ _____    ______ ____
ROOT
ATOM      1  C   UNL     1       2.812   6.130  18.605  0.00  0.00    +0.000 A 
ATOM      2  N   UNL     1       3.884   6.226  17.769  0.00  0.00    +0.000 NA
ATOM      3  C   UNL     1       4.552   5.094  17.445  0.00  0.00    +0.000 A 
ATOM      4  C   UNL     1       4.206   3.847  17.966  0.00  0.00    +0.000 A 
ATOM      5  C   UNL     1       3.103   3.731  18.811  0.00  0.00    +0.000 A 
ATOM      6  N   UNL     1       2.767   2.515  19.307  0.00  0.00    +0.000 NA
ATOM      7  C   UNL     1       1.670   2.387  20.077  0.00  0.00    +0.000 A 
ATOM      8  C   UNL     1       0.836   3.435  20.379  0.00  0.00    +0.000 A 
ATOM      9  C   UNL     1       1.173   4.686  19.879  0.00  0.00    +0.000 A 
ATOM     10  C   UNL     1       2.350   4.884  19.111  0.00  0.00    +0.000 A 
ENDROOT
BRANCH   1  14
ATOM     11  C   UNL     1       1.044   9.963  19.579  0.00  0.00    +0.000 A 
ATOM     12  C   UNL     1       1.213   8.984  20.562  0.00  0.00    +0.000 A 
ATOM     13  C   UNL     1       1.791   7.750  20.232  0.00  0.00    +0.000 A 
ATOM     14  C   UNL     1       2.195   7.448  18.918  0.00  0.00    +0.000 A 
ATOM     15  C   UNL     1       1.944   8.425  17.935  0.00  0.00    +0.000 A 
ATOM     16  C   UNL     1       1.401   9.675  18.261  0.00  0.00    +0.000 A 
BRANCH  11  19
ATOM     17  C   UNL     1      -0.158  12.915  21.614  0.00  0.00    +0.000 C 
ATOM     18  N   UNL     1       0.405  11.653  21.211  0.00  0.00    +0.000 N 
ATOM     19  C   UNL     1       0.441  11.289  19.882  0.00  0.00    +0.000 C 
ATOM     20  O   UNL     1       0.032  12.003  18.974  0.00  0.00    +0.000 OA
ATOM     21  H   UNL     1       0.922  11.116  21.895  0.00  0.00    +0.000 HD
ENDBRANCH  11  19
ENDBRANCH   1  14
BRANCH   3  22
ATOM     22  C   UNL     1       5.657   5.232  16.499  0.00  0.00    +0.000 A 
ATOM     23  N   UNL     1       6.558   6.196  16.428  0.00  0.00    +0.000 NA
ATOM     24  N   UNL     1       7.369   5.902  15.359  0.00  0.00    +0.000 NA
ATOM     25  C   UNL     1       6.917   4.778  14.843  0.00  0.00    +0.000 A 
ATOM     26  O   UNL     1       5.825   4.284  15.518  0.00  0.00    +0.000 OA
BRANCH  25  27
ATOM     27  C   UNL     1       7.350   4.071  13.614  0.00  0.00    +0.000 C 
BRANCH  27  28
ATOM     28  C   UNL     1       6.210   3.587  12.744  0.00  0.00    +0.000 A 
ATOM     29  C   UNL     1       5.013   4.317  12.673  0.00  0.00    +0.000 A 
ATOM     30  C   UNL     1       3.975   3.890  11.840  0.00  0.00    +0.000 A 
ATOM     31  C   UNL     1       4.130   2.734  11.085  0.00  0.00    +0.000 A 
ATOM     32  F   UNL     1       3.138   2.334  10.280  0.00  0.00    +0.000 F 
ATOM     33  C   UNL     1       5.301   1.990  11.151  0.00  0.00    +0.000 A 
ATOM     34  C   UNL     1       6.340   2.412  11.983  0.00  0.00    +0.000 A 
ENDBRANCH  27  28
ENDBRANCH  25  27
ENDBRANCH   3  22
BRANCH   4  35
ATOM     35  O   UNL     1       4.907   2.697  17.663  0.00  0.00    +0.000 OA
ATOM     36  H   UNL     1       5.188   2.689  16.728  0.00  0.00    +0.000 HD
ENDBRANCH   4  35
TORSDOF 6
ENDMDL
MODEL 9
REMARK VINA RESULT:      -9.2      1.703      1.945
REMARK  Name = 
REMARK  7 active torsions:
REMARK  status: ('A' for Active; 'I' for Inactive)
REMARK    1  A    between atoms: C_1  and  N_2
REMARK    2  A    between atoms: C_3  and  C_5
REMARK    3  A    between atoms: C_8  and  C_9
REMARK    4  A    between atoms: C_11  and  C_12
REMARK    5  A    between atoms: C_15  and  C_16
REMARK    6  A    between atoms: C_16  and  C_17
REMARK    7  A    between atoms: C_25  and  O_26
REMARK                            x       y       z     vdW  Elec       q    Type
REMARK                         _______ _______ _______ _____ _____    ______ ____
ROOT
ATOM      1  C   UNL     1       2.784   6.301  19.490  0.00  0.00    +0.000 A 
ATOM      2  N   UNL     1       3.874   6.556  18.713  0.00  0.00    +0.000 NA
ATOM      3  C   UNL     1       4.715   5.533  18.427  0.00  0.00    +0.000 A 
ATOM      4  C   UNL     1       4.524   4.246  18.929  0.00  0.00    +0.000 A 
ATOM      5  C   UNL     1       3.406   3.967  19.714  0.00  0.00    +0.000 A 
ATOM      6  N   UNL     1       3.222   2.712  20.192  0.00  0.00    +0.000 NA
ATOM      7  C   UNL     1       2.115   2.422  20.902  0.00  0.00    +0.000 A 
ATOM      8  C   UNL     1       1.124   3.338  21.157  0.00  0.00    +0.000 A 
ATOM      9  C   UNL     1       1.303   4.628  20.675  0.00  0.00    +0.000 A 
ATOM     10  C   UNL     1       2.480   4.998  19.972  0.00  0.00    +0.000 A 
ENDROOT
BRANCH   1  14
ATOM     11  C   UNL     1       0.389   9.834  20.232  0.00  0.00    +0.000 A 
ATOM     12  C   UNL     1       0.996   9.629  18.990  0.00  0.00    +0.000 A 
ATOM     13  C   UNL     1       1.764   8.479  18.763  0.00  0.00    +0.000 A 
ATOM     14  C   UNL     1       1.968   7.515  19.768  0.00  0.00    +0.000 A 
ATOM     15  C   UNL     1       1.407   7.783  21.032  0.00  0.00    +0.000 A 
ATOM     16  C   UNL     1       0.607   8.911  21.257  0.00  0.00    +0.000 A 
BRANCH  11  19
ATOM     17  C   UNL     1      -0.854  12.921  22.026  0.00  0.00    +0.000 C 
ATOM     18  N   UNL     1      -0.115  11.743  21.657  0.00  0.00    +0.000 N 
ATOM     19  C   UNL     1      -0.440  11.036  20.518  0.00  0.00    +0.000 C 
ATOM     20  O   UNL     1      -1.336  11.365  19.750  0.00  0.00    +0.000 OA
ATOM     21  H   UNL     1       0.744  11.540  22.148  0.00  0.00    +0.000 HD
ENDBRANCH  11  19
ENDBRANCH   1  14
BRANCH   3  22
ATOM     22  C   UNL     1       5.837   5.836  17.542  0.00  0.00    +0.000 A 
ATOM     23  N   UNL     1       6.576   6.931  17.501  0.00  0.00    +0.000 NA
ATOM     24  N   UNL     1       7.485   6.758  16.486  0.00  0.00    +0.000 NA
ATOM     25  C   UNL     1       7.250   5.569  15.971  0.00  0.00    +0.000 A 
ATOM     26  O   UNL     1       6.213   4.915  16.594  0.00  0.00    +0.000 OA
BRANCH  25  27
ATOM     27  C   UNL     1       7.863   4.925  14.784  0.00  0.00    +0.000 C 
BRANCH  27  28
ATOM     28  C   UNL     1       6.861   4.374  13.792  0.00  0.00    +0.000 A 
ATOM     29  C   UNL     1       7.266   4.026  12.494  0.00  0.00    +0.000 A 
ATOM     30  C   UNL     1       6.349   3.483  11.591  0.00  0.00    +0.000 A 
ATOM     31  C   UNL     1       5.029   3.293  11.982  0.00  0.00    +0.000 A 
ATOM     32  F   UNL     1       4.155   2.761  11.117  0.00  0.00    +0.000 F 
ATOM     33  C   UNL     1       4.604   3.644  13.256  0.00  0.00    +0.000 A 
ATOM     34  C   UNL     1       5.517   4.189  14.162  0.00  0.00    +0.000 A 
ENDBRANCH  27  28
ENDBRANCH  25  27
ENDBRANCH   3  22
BRANCH   4  35
ATOM     35  O   UNL     1       5.399   3.211  18.666  0.00  0.00    +0.000 OA
ATOM     36  H   UNL     1       4.959   2.343  18.756  0.00  0.00    +0.000 HD
ENDBRANCH   4  35
TORSDOF 6
ENDMDL
