MODEL 1
REMARK VINA RESULT:      -7.0      0.000      0.000
REMARK  Name = 
REMARK  6 active torsions:
REMARK  status: ('A' for Active; 'I' for Inactive)
REMARK    1  A    between atoms: C_1  and  C_2
REMARK    2  A    between atoms: C_2  and  C_3
REMARK    3  A    between atoms: C_2  and  O_4
REMARK    4  A    between atoms: O_4  and  C_5
REMARK    5  A    between atoms: C_5  and  C_12
REMARK    6  A    between atoms: C_6  and  N_7
REMARK                            x       y       z     vdW  Elec       q    Type
REMARK                         _______ _______ _______ _____ _____    ______ ____
ROOT
ATOM      1  C   UNL     1       3.732   4.563  18.066  0.00  0.00    +0.000 C 
ATOM      2  C   UNL     1       4.864   3.906  17.743  0.00  0.00    +0.000 C 
ENDROOT
BRANCH   1   3
ATOM      3  C   UNL     1       2.862   4.013  19.140  0.00  0.00    +0.000 A 
ATOM      4  C   UNL     1       2.832   4.621  20.409  0.00  0.00    +0.000 A 
ATOM      5  C   UNL     1       2.159   4.024  21.476  0.00  0.00    +0.000 A 
ATOM      6  C   UNL     1       1.429   2.863  21.262  0.00  0.00    +0.000 A 
ATOM      7  F   UNL     1       0.796   2.284  22.290  0.00  0.00    +0.000 F 
ATOM      8  C   UNL     1       1.358   2.288  20.003  0.00  0.00    +0.000 A 
ATOM      9  C   UNL     1       2.084   2.854  18.958  0.00  0.00    +0.000 A 
ATOM     10  F   UNL     1       2.034   2.245  17.764  0.00  0.00    +0.000 F 
ENDBRANCH   1   3
BRANCH   2  11
ATOM     11  N   UNL     1       5.803   4.145  16.742  0.00  0.00    +0.000 N 
ATOM     12  C   UNL     1       7.122   4.551  16.851  0.00  0.00    +0.000 A 
ATOM     13  N   UNL     1       7.687   4.697  15.674  0.00  0.00    +0.000 NA
ATOM     14  C   UNL     1       6.676   4.371  14.825  0.00  0.00    +0.000 A 
ATOM     15  N   UNL     1       5.528   4.030  15.406  0.00  0.00    +0.000 NA
ENDBRANCH   2  11
BRANCH   1  16
ATOM     16  O   UNL     1       3.317   5.680  17.355  0.00  0.00    +0.000 OA
BRANCH  16  18
ATOM     17  C   UNL     1       4.799   7.430  16.525  0.00  0.00    +0.000 C 
ATOM     18  C   UNL     1       3.881   6.972  17.647  0.00  0.00    +0.000 C 
ATOM     19  C   UNL     1       2.716   7.940  17.850  0.00  0.00    +0.000 C 
ENDBRANCH  16  18
ENDBRANCH   1  16
TORSDOF 4
ENDMDL
MODEL 2
REMARK VINA RESULT:      -6.8      1.092      1.235
REMARK  Name = 
REMARK  6 active torsions:
REMARK  status: ('A' for Active; 'I' for Inactive)
REMARK    1  A    between atoms: C_1  and  C_2
REMARK    2  A    between atoms: C_2  and  C_3
REMARK    3  A    between atoms: C_2  and  O_4
REMARK    4  A    between atoms: O_4  and  C_5
REMARK    5  A    between atoms: C_5  and  C_12
REMARK    6  A    between atoms: C_6  and  N_7
REMARK                            x       y       z     vdW  Elec       q    Type
REMARK                         _______ _______ _______ _____ _____    ______ ____
ROOT
ATOM      1  C   UNL     1       3.760   4.387  18.012  0.00  0.00    +0.000 C 
ATOM      2  C   UNL     1       4.878   3.769  17.579  0.00  0.00    +0.000 C 
ENDROOT
BRANCH   1   3
ATOM      3  C   UNL     1       2.966   3.759  19.101  0.00  0.00    +0.000 A 
ATOM      4  C   UNL     1       1.574   3.958  19.167  0.00  0.00    +0.000 A 
ATOM      5  C   UNL     1       0.838   3.523  20.271  0.00  0.00    +0.000 A 
ATOM      6  C   UNL     1       1.470   2.800  21.274  0.00  0.00    +0.000 A 
ATOM      7  F   UNL     1       0.766   2.397  22.339  0.00  0.00    +0.000 F 
ATOM      8  C   UNL     1       2.822   2.503  21.195  0.00  0.00    +0.000 A 
ATOM      9  C   UNL     1       3.561   2.995  20.122  0.00  0.00    +0.000 A 
ATOM     10  F   UNL     1       4.877   2.734  20.101  0.00  0.00    +0.000 F 
ENDBRANCH   1   3
BRANCH   2  11
ATOM     11  N   UNL     1       5.749   4.084  16.538  0.00  0.00    +0.000 N 
ATOM     12  C   UNL     1       7.025   4.619  16.589  0.00  0.00    +0.000 A 
ATOM     13  N   UNL     1       7.526   4.802  15.390  0.00  0.00    +0.000 NA
ATOM     14  C   UNL     1       6.520   4.366  14.585  0.00  0.00    +0.000 A 
ATOM     15  N   UNL     1       5.435   3.923  15.216  0.00  0.00    +0.000 NA
ENDBRANCH   2  11
BRANCH   1  16
ATOM     16  O   UNL     1       3.288   5.539  17.398  0.00  0.00    +0.000 OA
BRANCH  16  18
ATOM     17  C   UNL     1       4.721   7.457  16.930  0.00  0.00    +0.000 C 
ATOM     18  C   UNL     1       3.705   6.833  17.874  0.00  0.00    +0.000 C 
ATOM     19  C   UNL     1       2.451   7.697  18.000  0.00  0.00    +0.000 C 
ENDBRANCH  16  18
ENDBRANCH   1  16
TORSDOF 4
ENDMDL
MODEL 3
REMARK VINA RESULT:      -6.8      2.087      3.246
REMARK  Name = 
REMARK  6 active torsions:
REMARK  status: ('A' for Active; 'I' for Inactive)
REMARK    1  A    between atoms: C_1  and  C_2
REMARK    2  A    between atoms: C_2  and  C_3
REMARK    3  A    between atoms: C_2  and  O_4
REMARK    4  A    between atoms: O_4  and  C_5
REMARK    5  A    between atoms: C_5  and  C_12
REMARK    6  A    between atoms: C_6  and  N_7
REMARK                            x       y       z     vdW  Elec       q    Type
REMARK                         _______ _______ _______ _____ _____    ______ ____
ROOT
ATOM      1  C   UNL     1       5.131   4.813  16.309  0.00  0.00    +0.000 C 
ATOM      2  C   UNL     1       5.388   4.133  15.173  0.00  0.00    +0.000 C 
ENDROOT
BRANCH   1   3
ATOM      3  C   UNL     1       4.036   4.342  17.198  0.00  0.00    +0.000 A 
ATOM      4  C   UNL     1       3.882   2.969  17.465  0.00  0.00    +0.000 A 
ATOM      5  C   UNL     1       2.765   2.492  18.153  0.00  0.00    +0.000 A 
ATOM      6  C   UNL     1       1.840   3.392  18.664  0.00  0.00    +0.000 A 
ATOM      7  F   UNL     1       0.761   2.932  19.310  0.00  0.00    +0.000 F 
ATOM      8  C   UNL     1       2.009   4.758  18.501  0.00  0.00    +0.000 A 
ATOM      9  C   UNL     1       3.093   5.222  17.759  0.00  0.00    +0.000 A 
ATOM     10  F   UNL     1       3.201   6.547  17.578  0.00  0.00    +0.000 F 
ENDBRANCH   1   3
BRANCH   2  11
ATOM     11  N   UNL     1       6.281   4.394  14.136  0.00  0.00    +0.000 N 
ATOM     12  C   UNL     1       6.350   3.834  12.871  0.00  0.00    +0.000 A 
ATOM     13  N   UNL     1       7.355   4.318  12.177  0.00  0.00    +0.000 NA
ATOM     14  C   UNL     1       7.914   5.198  13.050  0.00  0.00    +0.000 A 
ATOM     15  N   UNL     1       7.314   5.287  14.235  0.00  0.00    +0.000 NA
ENDBRANCH   2  11
BRANCH   1  16
ATOM     16  O   UNL     1       5.801   5.991  16.612  0.00  0.00    +0.000 OA
BRANCH  16  18
ATOM     17  C   UNL     1       7.566   4.801  17.802  0.00  0.00    +0.000 C 
ATOM     18  C   UNL     1       6.692   6.044  17.742  0.00  0.00    +0.000 C 
ATOM     19  C   UNL     1       7.530   7.313  17.599  0.00  0.00    +0.000 C 
ENDBRANCH  16  18
ENDBRANCH   1  16
TORSDOF 4
ENDMDL
MODEL 4
REMARK VINA RESULT:      -6.8      2.619      4.213
REMARK  Name = 
REMARK  6 active torsions:
REMARK  status: ('A' for Active; 'I' for Inactive)
REMARK    1  A    between atoms: C_1  and  C_2
REMARK    2  A    between atoms: C_2  and  C_3
REMARK    3  A    between atoms: C_2  and  O_4
REMARK    4  A    between atoms: O_4  and  C_5
REMARK    5  A    between atoms: C_5  and  C_12
REMARK    6  A    between atoms: C_6  and  N_7
REMARK                            x       y       z     vdW  Elec       q    Type
REMARK                         _______ _______ _______ _____ _____    ______ ____
ROOT
ATOM      1  C   UNL     1       3.613   6.162  17.896  0.00  0.00    +0.000 C 
ATOM      2  C   UNL     1       4.574   6.525  17.022  0.00  0.00    +0.000 C 
ENDROOT
BRANCH   1   3
ATOM      3  C   UNL     1       2.709   7.206  18.446  0.00  0.00    +0.000 A 
ATOM      4  C   UNL     1       2.374   8.333  17.671  0.00  0.00    +0.000 A 
ATOM      5  C   UNL     1       1.672   9.403  18.227  0.00  0.00    +0.000 A 
ATOM      6  C   UNL     1       1.212   9.316  19.534  0.00  0.00    +0.000 A 
ATOM      7  F   UNL     1       0.550  10.349  20.070  0.00  0.00    +0.000 F 
ATOM      8  C   UNL     1       1.441   8.181  20.296  0.00  0.00    +0.000 A 
ATOM      9  C   UNL     1       2.198   7.144  19.756  0.00  0.00    +0.000 A 
ATOM     10  F   UNL     1       2.444   6.081  20.536  0.00  0.00    +0.000 F 
ENDBRANCH   1   3
BRANCH   2  11
ATOM     11  N   UNL     1       5.592   5.783  16.425  0.00  0.00    +0.000 N 
ATOM     12  C   UNL     1       6.946   5.754  16.714  0.00  0.00    +0.000 A 
ATOM     13  N   UNL     1       7.599   4.945  15.912  0.00  0.00    +0.000 NA
ATOM     14  C   UNL     1       6.609   4.471  15.109  0.00  0.00    +0.000 A 
ATOM     15  N   UNL     1       5.389   4.935  15.371  0.00  0.00    +0.000 NA
ENDBRANCH   2  11
BRANCH   1  16
ATOM     16  O   UNL     1       3.517   4.858  18.362  0.00  0.00    +0.000 OA
BRANCH  16  18
ATOM     17  C   UNL     1       3.466   2.511  17.697  0.00  0.00    +0.000 C 
ATOM     18  C   UNL     1       2.793   3.872  17.602  0.00  0.00    +0.000 C 
ATOM     19  C   UNL     1       1.367   3.832  18.150  0.00  0.00    +0.000 C 
ENDBRANCH  16  18
ENDBRANCH   1  16
TORSDOF 4
ENDMDL
MODEL 5
REMARK VINA RESULT:      -6.8      3.406      5.938
REMARK  Name = 
REMARK  6 active torsions:
REMARK  status: ('A' for Active; 'I' for Inactive)
REMARK    1  A    between atoms: C_1  and  C_2
REMARK    2  A    between atoms: C_2  and  C_3
REMARK    3  A    between atoms: C_2  and  O_4
REMARK    4  A    between atoms: O_4  and  C_5
REMARK    5  A    between atoms: C_5  and  C_12
REMARK    6  A    between atoms: C_6  and  N_7
REMARK                            x       y       z     vdW  Elec       q    Type
REMARK                         _______ _______ _______ _____ _____    ______ ____
ROOT
ATOM      1  C   UNL     1       4.039   4.875  18.504  0.00  0.00    +0.000 C 
ATOM      2  C   UNL     1       3.596   3.660  18.887  0.00  0.00    +0.000 C 
ENDROOT
BRANCH   1   3
ATOM      3  C   UNL     1       4.961   4.971  17.341  0.00  0.00    +0.000 A 
ATOM      4  C   UNL     1       4.626   4.357  16.119  0.00  0.00    +0.000 A 
ATOM      5  C   UNL     1       5.549   4.288  15.074  0.00  0.00    +0.000 A 
ATOM      6  C   UNL     1       6.780   4.916  15.205  0.00  0.00    +0.000 A 
ATOM      7  F   UNL     1       7.669   4.836  14.207  0.00  0.00    +0.000 F 
ATOM      8  C   UNL     1       7.107   5.611  16.359  0.00  0.00    +0.000 A 
ATOM      9  C   UNL     1       6.206   5.621  17.421  0.00  0.00    +0.000 A 
ATOM     10  F   UNL     1       6.573   6.260  18.542  0.00  0.00    +0.000 F 
ENDBRANCH   1   3
BRANCH   2  11
ATOM     11  N   UNL     1       2.808   3.276  19.970  0.00  0.00    +0.000 N 
ATOM     12  C   UNL     1       3.178   2.670  21.159  0.00  0.00    +0.000 A 
ATOM     13  N   UNL     1       2.143   2.436  21.931  0.00  0.00    +0.000 NA
ATOM     14  C   UNL     1       1.111   2.914  21.186  0.00  0.00    +0.000 A 
ATOM     15  N   UNL     1       1.448   3.431  20.006  0.00  0.00    +0.000 NA
ENDBRANCH   2  11
BRANCH   1  16
ATOM     16  O   UNL     1       3.730   6.018  19.229  0.00  0.00    +0.000 OA
BRANCH  16  18
ATOM     17  C   UNL     1       1.934   7.360  20.190  0.00  0.00    +0.000 C 
ATOM     18  C   UNL     1       2.534   6.762  18.927  0.00  0.00    +0.000 C 
ATOM     19  C   UNL     1       2.916   7.845  17.919  0.00  0.00    +0.000 C 
ENDBRANCH  16  18
ENDBRANCH   1  16
TORSDOF 4
ENDMDL
MODEL 6
REMARK VINA RESULT:      -6.7      2.643      4.389
REMARK  Name = 
REMARK  6 active torsions:
REMARK  status: ('A' for Active; 'I' for Inactive)
REMARK    1  A    between atoms: C_1  and  C_2
REMARK    2  A    between atoms: C_2  and  C_3
REMARK    3  A    between atoms: C_2  and  O_4
REMARK    4  A    between atoms: O_4  and  C_5
REMARK    5  A    between atoms: C_5  and  C_12
REMARK    6  A    between atoms: C_6  and  N_7
REMARK                            x       y       z     vdW  Elec       q    Type
REMARK                         _______ _______ _______ _____ _____    ______ ____
ROOT
ATOM      1  C   UNL     1       3.611   6.299  17.895  0.00  0.00    +0.000 C 
ATOM      2  C   UNL     1       4.935   6.544  17.963  0.00  0.00    +0.000 C 
ENDROOT
BRANCH   1   3
ATOM      3  C   UNL     1       2.666   7.287  18.481  0.00  0.00    +0.000 A 
ATOM      4  C   UNL     1       2.259   8.408  17.733  0.00  0.00    +0.000 A 
ATOM      5  C   UNL     1       1.514   9.431  18.321  0.00  0.00    +0.000 A 
ATOM      6  C   UNL     1       1.085   9.299  19.635  0.00  0.00    +0.000 A 
ATOM      7  F   UNL     1       0.383  10.288  20.201  0.00  0.00    +0.000 F 
ATOM      8  C   UNL     1       1.387   8.164  20.372  0.00  0.00    +0.000 A 
ATOM      9  C   UNL     1       2.184   7.177  19.799  0.00  0.00    +0.000 A 
ATOM     10  F   UNL     1       2.500   6.115  20.556  0.00  0.00    +0.000 F 
ENDBRANCH   1   3
BRANCH   2  11
ATOM     11  N   UNL     1       6.026   5.767  17.578  0.00  0.00    +0.000 N 
ATOM     12  C   UNL     1       6.561   5.563  16.317  0.00  0.00    +0.000 A 
ATOM     13  N   UNL     1       7.582   4.737  16.348  0.00  0.00    +0.000 NA
ATOM     14  C   UNL     1       7.666   4.429  17.669  0.00  0.00    +0.000 A 
ATOM     15  N   UNL     1       6.765   5.017  18.453  0.00  0.00    +0.000 NA
ENDBRANCH   2  11
BRANCH   1  16
ATOM     16  O   UNL     1       3.122   5.106  17.381  0.00  0.00    +0.000 OA
BRANCH  16  18
ATOM     17  C   UNL     1       1.463   3.577  18.309  0.00  0.00    +0.000 C 
ATOM     18  C   UNL     1       2.930   3.972  18.247  0.00  0.00    +0.000 C 
ATOM     19  C   UNL     1       3.795   2.835  17.703  0.00  0.00    +0.000 C 
ENDBRANCH  16  18
ENDBRANCH   1  16
TORSDOF 4
ENDMDL
MODEL 7
REMARK VINA RESULT:      -6.6      2.164      2.888
REMARK  Name = 
REMARK  6 active torsions:
REMARK  status: ('A' for Active; 'I' for Inactive)
REMARK    1  A    between atoms: C_1  and  C_2
REMARK    2  A    between atoms: C_2  and  C_3
REMARK    3  A    between atoms: C_2  and  O_4
REMARK    4  A    between atoms: O_4  and  C_5
REMARK    5  A    between atoms: C_5  and  C_12
REMARK    6  A    between atoms: C_6  and  N_7
REMARK                            x       y       z     vdW  Elec       q    Type
REMARK                         _______ _______ _______ _____ _____    ______ ____
ROOT
ATOM      1  C   UNL     1       4.889   4.548  16.585  0.00  0.00    +0.000 C 
ATOM      2  C   UNL     1       5.227   3.981  15.409  0.00  0.00    +0.000 C 
ENDROOT
BRANCH   1   3
ATOM      3  C   UNL     1       3.734   3.998  17.343  0.00  0.00    +0.000 A 
ATOM      4  C   UNL     1       3.633   2.613  17.576  0.00  0.00    +0.000 A 
ATOM      5  C   UNL     1       2.478   2.061  18.131  0.00  0.00    +0.000 A 
ATOM      6  C   UNL     1       1.451   2.896  18.549  0.00  0.00    +0.000 A 
ATOM      7  F   UNL     1       0.338   2.363  19.067  0.00  0.00    +0.000 F 
ATOM      8  C   UNL     1       1.556   4.273  18.423  0.00  0.00    +0.000 A 
ATOM      9  C   UNL     1       2.684   4.812  17.809  0.00  0.00    +0.000 A 
ATOM     10  F   UNL     1       2.733   6.144  17.657  0.00  0.00    +0.000 F 
ENDBRANCH   1   3
BRANCH   2  11
ATOM     11  N   UNL     1       6.193   4.336  14.469  0.00  0.00    +0.000 N 
ATOM     12  C   UNL     1       7.238   5.238  14.579  0.00  0.00    +0.000 A 
ATOM     13  N   UNL     1       7.925   5.326  13.463  0.00  0.00    +0.000 NA
ATOM     14  C   UNL     1       7.275   4.451  12.652  0.00  0.00    +0.000 A 
ATOM     15  N   UNL     1       6.233   3.828  13.199  0.00  0.00    +0.000 NA
ENDBRANCH   2  11
BRANCH   1  16
ATOM     16  O   UNL     1       5.533   5.687  17.049  0.00  0.00    +0.000 OA
BRANCH  16  18
ATOM     17  C   UNL     1       7.525   6.817  17.889  0.00  0.00    +0.000 C 
ATOM     18  C   UNL     1       6.658   5.567  17.939  0.00  0.00    +0.000 C 
ATOM     19  C   UNL     1       6.105   5.323  19.342  0.00  0.00    +0.000 C 
ENDBRANCH  16  18
ENDBRANCH   1  16
TORSDOF 4
ENDMDL
MODEL 8
REMARK VINA RESULT:      -6.6      1.843      2.574
REMARK  Name = 
REMARK  6 active torsions:
REMARK  status: ('A' for Active; 'I' for Inactive)
REMARK    1  A    between atoms: C_1  and  C_2
REMARK    2  A    between atoms: C_2  and  C_3
REMARK    3  A    between atoms: C_2  and  O_4
REMARK    4  A    between atoms: O_4  and  C_5
REMARK    5  A    between atoms: C_5  and  C_12
REMARK    6  A    between atoms: C_6  and  N_7
REMARK                            x       y       z     vdW  Elec       q    Type
REMARK                         _______ _______ _______ _____ _____    ______ ____
ROOT
ATOM      1  C   UNL     1       4.804   4.398  16.449  0.00  0.00    +0.000 C 
ATOM      2  C   UNL     1       5.576   3.704  15.588  0.00  0.00    +0.000 C 
ENDROOT
BRANCH   1   3
ATOM      3  C   UNL     1       4.028   3.656  17.479  0.00  0.00    +0.000 A 
ATOM      4  C   UNL     1       2.745   3.162  17.179  0.00  0.00    +0.000 A 
ATOM      5  C   UNL     1       1.934   2.618  18.177  0.00  0.00    +0.000 A 
ATOM      6  C   UNL     1       2.435   2.473  19.463  0.00  0.00    +0.000 A 
ATOM      7  F   UNL     1       1.651   1.965  20.422  0.00  0.00    +0.000 F 
ATOM      8  C   UNL     1       3.729   2.862  19.773  0.00  0.00    +0.000 A 
ATOM      9  C   UNL     1       4.509   3.463  18.788  0.00  0.00    +0.000 A 
ATOM     10  F   UNL     1       5.739   3.873  19.132  0.00  0.00    +0.000 F 
ENDBRANCH   1   3
BRANCH   2  11
ATOM     11  N   UNL     1       6.328   4.126  14.494  0.00  0.00    +0.000 N 
ATOM     12  C   UNL     1       6.259   3.724  13.171  0.00  0.00    +0.000 A 
ATOM     13  N   UNL     1       7.156   4.332  12.429  0.00  0.00    +0.000 NA
ATOM     14  C   UNL     1       7.790   5.127  13.332  0.00  0.00    +0.000 A 
ATOM     15  N   UNL     1       7.336   5.048  14.581  0.00  0.00    +0.000 NA
ENDBRANCH   2  11
BRANCH   1  16
ATOM     16  O   UNL     1       4.644   5.772  16.330  0.00  0.00    +0.000 OA
BRANCH  16  18
ATOM     17  C   UNL     1       6.191   7.388  17.302  0.00  0.00    +0.000 C 
ATOM     18  C   UNL     1       4.884   6.627  17.463  0.00  0.00    +0.000 C 
ATOM     19  C   UNL     1       3.692   7.576  17.577  0.00  0.00    +0.000 C 
ENDBRANCH  16  18
ENDBRANCH   1  16
TORSDOF 4
ENDMDL
MODEL 9
REMARK VINA RESULT:      -6.6      1.964      2.562
REMARK  Name = 
REMARK  6 active torsions:
REMARK  status: ('A' for Active; 'I' for Inactive)
REMARK    1  A    between atoms: C_1  and  C_2
REMARK    2  A    between atoms: C_2  and  C_3
REMARK    3  A    between atoms: C_2  and  O_4
REMARK    4  A    between atoms: O_4  and  C_5
REMARK    5  A    between atoms: C_5  and  C_12
REMARK    6  A    between atoms: C_6  and  N_7
REMARK                            x       y       z     vdW  Elec       q    Type
REMARK                         _______ _______ _______ _____ _____    ______ ____
ROOT
ATOM      1  C   UNL     1       4.845   4.774  18.448  0.00  0.00    +0.000 C 
ATOM      2  C   UNL     1       4.794   4.208  17.225  0.00  0.00    +0.000 C 
ENDROOT
BRANCH   1   3
ATOM      3  C   UNL     1       3.920   4.286  19.506  0.00  0.00    +0.000 A 
ATOM      4  C   UNL     1       4.016   2.962  19.975  0.00  0.00    +0.000 A 
ATOM      5  C   UNL     1       3.054   2.435  20.837  0.00  0.00    +0.000 A 
ATOM      6  C   UNL     1       2.040   3.254  21.316  0.00  0.00    +0.000 A 
ATOM      7  F   UNL     1       1.109   2.742  22.131  0.00  0.00    +0.000 F 
ATOM      8  C   UNL     1       1.970   4.589  20.949  0.00  0.00    +0.000 A 
ATOM      9  C   UNL     1       2.896   5.091  20.039  0.00  0.00    +0.000 A 
ATOM     10  F   UNL     1       2.770   6.373  19.666  0.00  0.00    +0.000 F 
ENDBRANCH   1   3
BRANCH   2  11
ATOM     11  N   UNL     1       5.472   4.519  16.048  0.00  0.00    +0.000 N 
ATOM     12  C   UNL     1       5.397   5.657  15.262  0.00  0.00    +0.000 A 
ATOM     13  N   UNL     1       6.172   5.573  14.206  0.00  0.00    +0.000 NA
ATOM     14  C   UNL     1       6.733   4.343  14.355  0.00  0.00    +0.000 A 
ATOM     15  N   UNL     1       6.353   3.668  15.438  0.00  0.00    +0.000 NA
ENDBRANCH   2  11
BRANCH   1  16
ATOM     16  O   UNL     1       5.670   5.859  18.708  0.00  0.00    +0.000 OA
BRANCH  16  18
ATOM     17  C   UNL     1       7.582   7.044  17.764  0.00  0.00    +0.000 C 
ATOM     18  C   UNL     1       7.081   5.774  18.435  0.00  0.00    +0.000 C 
ATOM     19  C   UNL     1       7.787   5.528  19.768  0.00  0.00    +0.000 C 
ENDBRANCH  16  18
ENDBRANCH   1  16
TORSDOF 4
ENDMDL
