MODEL 1
REMARK VINA RESULT:      -7.7      0.000      0.000
REMARK  Name = 
REMARK  2 active torsions:
REMARK  status: ('A' for Active; 'I' for Inactive)
REMARK    1  A    between atoms: C_1  and  O_2
REMARK    2  A    between atoms: O_2  and  C_3
REMARK                            x       y       z     vdW  Elec       q    Type
REMARK                         _______ _______ _______ _____ _____    ______ ____
ROOT
ATOM      1  C   UNL     1       6.189   5.645  15.975  0.00  0.00    +0.000 C 
ATOM      2  C   UNL     1       7.122   4.883  16.564  0.00  0.00    +0.000 C 
ATOM      3  C   UNL     1       6.986   4.559  17.993  0.00  0.00    +0.000 C 
ATOM      4  O   UNL     1       7.961   4.392  18.711  0.00  0.00    +0.000 OA
ATOM      5  C   UNL     1       5.590   4.514  18.476  0.00  0.00    +0.000 A 
ATOM      6  N   UNL     1       5.290   3.619  19.430  0.00  0.00    +0.000 NA
ATOM      7  C   UNL     1       4.070   3.674  19.951  0.00  0.00    +0.000 A 
ATOM      8  C   UNL     1       3.722   2.629  20.790  0.00  0.00    +0.000 A 
ATOM      9  C   UNL     1       2.488   2.587  21.423  0.00  0.00    +0.000 A 
ATOM     10  C   UNL     1       1.601   3.639  21.240  0.00  0.00    +0.000 A 
ATOM     11  C   UNL     1       1.925   4.695  20.377  0.00  0.00    +0.000 A 
ATOM     12  C   UNL     1       3.150   4.716  19.669  0.00  0.00    +0.000 A 
ATOM     13  C   UNL     1       3.515   5.677  18.641  0.00  0.00    +0.000 A 
ATOM     14  C   UNL     1       2.791   6.804  18.217  0.00  0.00    +0.000 A 
ATOM     15  C   UNL     1       3.249   7.549  17.133  0.00  0.00    +0.000 A 
ATOM     16  N   UNL     1       4.330   7.219  16.382  0.00  0.00    +0.000 NA
ATOM     17  C   UNL     1       5.047   6.165  16.798  0.00  0.00    +0.000 A 
ATOM     18  C   UNL     1       4.721   5.454  17.961  0.00  0.00    +0.000 A 
ENDROOT
BRANCH   1  20
ATOM     19  C   UNL     1       6.868   4.866  13.793  0.00  0.00    +0.000 C 
ATOM     20  O   UNL     1       6.321   5.881  14.621  0.00  0.00    +0.000 OA
ENDBRANCH   1  20
TORSDOF 1
ENDMDL
MODEL 2
REMARK VINA RESULT:      -6.8      2.461      3.535
REMARK  Name = 
REMARK  2 active torsions:
REMARK  status: ('A' for Active; 'I' for Inactive)
REMARK    1  A    between atoms: C_1  and  O_2
REMARK    2  A    between atoms: O_2  and  C_3
REMARK                            x       y       z     vdW  Elec       q    Type
REMARK                         _______ _______ _______ _____ _____    ______ ____
ROOT
ATOM      1  C   UNL     1       6.138   7.051  16.996  0.00  0.00    +0.000 C 
ATOM      2  C   UNL     1       5.252   7.956  17.437  0.00  0.00    +0.000 C 
ATOM      3  C   UNL     1       3.831   7.586  17.523  0.00  0.00    +0.000 C 
ATOM      4  O   UNL     1       2.940   8.407  17.359  0.00  0.00    +0.000 OA
ATOM      5  C   UNL     1       3.591   6.147  17.761  0.00  0.00    +0.000 A 
ATOM      6  N   UNL     1       2.533   5.809  18.514  0.00  0.00    +0.000 NA
ATOM      7  C   UNL     1       2.248   4.516  18.615  0.00  0.00    +0.000 A 
ATOM      8  C   UNL     1       1.277   4.180  19.542  0.00  0.00    +0.000 A 
ATOM      9  C   UNL     1       0.865   2.866  19.719  0.00  0.00    +0.000 A 
ATOM     10  C   UNL     1       1.415   1.875  18.916  0.00  0.00    +0.000 A 
ATOM     11  C   UNL     1       2.415   2.191  17.988  0.00  0.00    +0.000 A 
ATOM     12  C   UNL     1       2.896   3.516  17.846  0.00  0.00    +0.000 A 
ATOM     13  C   UNL     1       4.029   3.920  17.030  0.00  0.00    +0.000 A 
ATOM     14  C   UNL     1       4.798   3.124  16.166  0.00  0.00    +0.000 A 
ATOM     15  C   UNL     1       5.923   3.665  15.549  0.00  0.00    +0.000 A 
ATOM     16  N   UNL     1       6.394   4.916  15.782  0.00  0.00    +0.000 NA
ATOM     17  C   UNL     1       5.648   5.696  16.578  0.00  0.00    +0.000 A 
ATOM     18  C   UNL     1       4.433   5.260  17.122  0.00  0.00    +0.000 A 
ENDROOT
BRANCH   1  20
ATOM     19  C   UNL     1       7.886   8.536  17.751  0.00  0.00    +0.000 C 
ATOM     20  O   UNL     1       7.470   7.417  16.982  0.00  0.00    +0.000 OA
ENDBRANCH   1  20
TORSDOF 1
ENDMDL
MODEL 3
REMARK VINA RESULT:      -6.8      2.773      5.576
REMARK  Name = 
REMARK  2 active torsions:
REMARK  status: ('A' for Active; 'I' for Inactive)
REMARK    1  A    between atoms: C_1  and  O_2
REMARK    2  A    between atoms: O_2  and  C_3
REMARK                            x       y       z     vdW  Elec       q    Type
REMARK                         _______ _______ _______ _____ _____    ______ ____
ROOT
ATOM      1  C   UNL     1       1.988   3.762  20.180  0.00  0.00    +0.000 C 
ATOM      2  C   UNL     1       1.975   2.570  19.565  0.00  0.00    +0.000 C 
ATOM      3  C   UNL     1       2.358   2.490  18.147  0.00  0.00    +0.000 C 
ATOM      4  O   UNL     1       1.872   1.658  17.395  0.00  0.00    +0.000 OA
ATOM      5  C   UNL     1       3.320   3.526  17.718  0.00  0.00    +0.000 A 
ATOM      6  N   UNL     1       4.226   3.187  16.788  0.00  0.00    +0.000 NA
ATOM      7  C   UNL     1       5.000   4.157  16.313  0.00  0.00    +0.000 A 
ATOM      8  C   UNL     1       6.046   3.753  15.501  0.00  0.00    +0.000 A 
ATOM      9  C   UNL     1       6.906   4.672  14.915  0.00  0.00    +0.000 A 
ATOM     10  C   UNL     1       6.683   6.027  15.119  0.00  0.00    +0.000 A 
ATOM     11  C   UNL     1       5.643   6.455  15.955  0.00  0.00    +0.000 A 
ATOM     12  C   UNL     1       4.803   5.527  16.616  0.00  0.00    +0.000 A 
ATOM     13  C   UNL     1       3.802   5.860  17.618  0.00  0.00    +0.000 A 
ATOM     14  C   UNL     1       3.408   7.135  18.055  0.00  0.00    +0.000 A 
ATOM     15  C   UNL     1       2.509   7.254  19.111  0.00  0.00    +0.000 A 
ATOM     16  N   UNL     1       2.025   6.206  19.824  0.00  0.00    +0.000 NA
ATOM     17  C   UNL     1       2.369   4.982  19.394  0.00  0.00    +0.000 A 
ATOM     18  C   UNL     1       3.159   4.788  18.254  0.00  0.00    +0.000 A 
ENDROOT
BRANCH   1  20
ATOM     19  C   UNL     1       1.458   2.563  22.208  0.00  0.00    +0.000 C 
ATOM     20  O   UNL     1       1.676   3.789  21.525  0.00  0.00    +0.000 OA
ENDBRANCH   1  20
TORSDOF 1
ENDMDL
MODEL 4
REMARK VINA RESULT:      -6.8      2.532      6.062
REMARK  Name = 
REMARK  2 active torsions:
REMARK  status: ('A' for Active; 'I' for Inactive)
REMARK    1  A    between atoms: C_1  and  O_2
REMARK    2  A    between atoms: O_2  and  C_3
REMARK                            x       y       z     vdW  Elec       q    Type
REMARK                         _______ _______ _______ _____ _____    ______ ____
ROOT
ATOM      1  C   UNL     1       4.640   3.295  19.225  0.00  0.00    +0.000 C 
ATOM      2  C   UNL     1       3.586   2.885  18.504  0.00  0.00    +0.000 C 
ATOM      3  C   UNL     1       3.387   3.429  17.152  0.00  0.00    +0.000 C 
ATOM      4  O   UNL     1       2.271   3.575  16.675  0.00  0.00    +0.000 OA
ATOM      5  C   UNL     1       4.635   3.825  16.467  0.00  0.00    +0.000 A 
ATOM      6  N   UNL     1       4.696   3.654  15.137  0.00  0.00    +0.000 NA
ATOM      7  C   UNL     1       5.766   4.133  14.512  0.00  0.00    +0.000 A 
ATOM      8  C   UNL     1       5.897   3.780  13.180  0.00  0.00    +0.000 A 
ATOM      9  C   UNL     1       6.953   4.244  12.407  0.00  0.00    +0.000 A 
ATOM     10  C   UNL     1       7.874   5.112  12.978  0.00  0.00    +0.000 A 
ATOM     11  C   UNL     1       7.771   5.463  14.331  0.00  0.00    +0.000 A 
ATOM     12  C   UNL     1       6.740   4.942  15.149  0.00  0.00    +0.000 A 
ATOM     13  C   UNL     1       6.635   5.119  16.588  0.00  0.00    +0.000 A 
ATOM     14  C   UNL     1       7.453   5.895  17.425  0.00  0.00    +0.000 A 
ATOM     15  C   UNL     1       7.266   5.852  18.805  0.00  0.00    +0.000 A 
ATOM     16  N   UNL     1       6.380   5.036  19.430  0.00  0.00    +0.000 NA
ATOM     17  C   UNL     1       5.571   4.315  18.639  0.00  0.00    +0.000 A 
ATOM     18  C   UNL     1       5.612   4.415  17.242  0.00  0.00    +0.000 A 
ENDROOT
BRANCH   1  20
ATOM     19  C   UNL     1       3.705   2.173  21.148  0.00  0.00    +0.000 C 
ATOM     20  O   UNL     1       4.824   2.721  20.468  0.00  0.00    +0.000 OA
ENDBRANCH   1  20
TORSDOF 1
ENDMDL
MODEL 5
REMARK VINA RESULT:      -6.7      2.041      2.202
REMARK  Name = 
REMARK  2 active torsions:
REMARK  status: ('A' for Active; 'I' for Inactive)
REMARK    1  A    between atoms: C_1  and  O_2
REMARK    2  A    between atoms: O_2  and  C_3
REMARK                            x       y       z     vdW  Elec       q    Type
REMARK                         _______ _______ _______ _____ _____    ______ ____
ROOT
ATOM      1  C   UNL     1       6.784   7.184  17.779  0.00  0.00    +0.000 C 
ATOM      2  C   UNL     1       7.560   6.375  18.515  0.00  0.00    +0.000 C 
ATOM      3  C   UNL     1       6.928   5.402  19.419  0.00  0.00    +0.000 C 
ATOM      4  O   UNL     1       7.457   5.057  20.466  0.00  0.00    +0.000 OA
ATOM      5  C   UNL     1       5.597   4.938  18.976  0.00  0.00    +0.000 A 
ATOM      6  N   UNL     1       5.260   3.667  19.245  0.00  0.00    +0.000 NA
ATOM      7  C   UNL     1       4.016   3.296  18.963  0.00  0.00    +0.000 A 
ATOM      8  C   UNL     1       3.749   1.942  19.070  0.00  0.00    +0.000 A 
ATOM      9  C   UNL     1       2.479   1.432  18.835  0.00  0.00    +0.000 A 
ATOM     10  C   UNL     1       1.448   2.310  18.524  0.00  0.00    +0.000 A 
ATOM     11  C   UNL     1       1.704   3.681  18.389  0.00  0.00    +0.000 A 
ATOM     12  C   UNL     1       3.008   4.206  18.556  0.00  0.00    +0.000 A 
ATOM     13  C   UNL     1       3.405   5.579  18.288  0.00  0.00    +0.000 A 
ATOM     14  C   UNL     1       2.587   6.657  17.912  0.00  0.00    +0.000 A 
ATOM     15  C   UNL     1       3.167   7.880  17.586  0.00  0.00    +0.000 A 
ATOM     16  N   UNL     1       4.505   8.100  17.528  0.00  0.00    +0.000 NA
ATOM     17  C   UNL     1       5.293   7.088  17.918  0.00  0.00    +0.000 A 
ATOM     18  C   UNL     1       4.772   5.876  18.389  0.00  0.00    +0.000 A 
ENDROOT
BRANCH   1  20
ATOM     19  C   UNL     1       8.123   9.161  17.419  0.00  0.00    +0.000 C 
ATOM     20  O   UNL     1       7.413   8.046  16.902  0.00  0.00    +0.000 OA
ENDBRANCH   1  20
TORSDOF 1
ENDMDL
MODEL 6
REMARK VINA RESULT:      -6.5      1.879      4.569
REMARK  Name = 
REMARK  2 active torsions:
REMARK  status: ('A' for Active; 'I' for Inactive)
REMARK    1  A    between atoms: C_1  and  O_2
REMARK    2  A    between atoms: O_2  and  C_3
REMARK                            x       y       z     vdW  Elec       q    Type
REMARK                         _______ _______ _______ _____ _____    ______ ____
ROOT
ATOM      1  C   UNL     1       6.064   5.258  17.977  0.00  0.00    +0.000 C 
ATOM      2  C   UNL     1       6.194   5.967  16.845  0.00  0.00    +0.000 C 
ATOM      3  C   UNL     1       5.039   6.718  16.333  0.00  0.00    +0.000 C 
ATOM      4  O   UNL     1       4.868   6.900  15.136  0.00  0.00    +0.000 OA
ATOM      5  C   UNL     1       4.096   7.170  17.377  0.00  0.00    +0.000 A 
ATOM      6  N   UNL     1       3.479   8.348  17.191  0.00  0.00    +0.000 NA
ATOM      7  C   UNL     1       2.538   8.684  18.066  0.00  0.00    +0.000 A 
ATOM      8  C   UNL     1       2.052   9.977  17.965  0.00  0.00    +0.000 A 
ATOM      9  C   UNL     1       1.043  10.439  18.799  0.00  0.00    +0.000 A 
ATOM     10  C   UNL     1       0.484   9.570  19.726  0.00  0.00    +0.000 A 
ATOM     11  C   UNL     1       0.977   8.265  19.858  0.00  0.00    +0.000 A 
ATOM     12  C   UNL     1       2.053   7.801  19.064  0.00  0.00    +0.000 A 
ATOM     13  C   UNL     1       2.736   6.528  19.228  0.00  0.00    +0.000 A 
ATOM     14  C   UNL     1       2.420   5.487  20.116  0.00  0.00    +0.000 A 
ATOM     15  C   UNL     1       3.262   4.382  20.209  0.00  0.00    +0.000 A 
ATOM     16  N   UNL     1       4.440   4.261  19.547  0.00  0.00    +0.000 NA
ATOM     17  C   UNL     1       4.734   5.233  18.671  0.00  0.00    +0.000 A 
ATOM     18  C   UNL     1       3.865   6.305  18.427  0.00  0.00    +0.000 A 
ENDROOT
BRANCH   1  20
ATOM     19  C   UNL     1       8.121   5.339  19.239  0.00  0.00    +0.000 C 
ATOM     20  O   UNL     1       7.186   4.611  18.456  0.00  0.00    +0.000 OA
ENDBRANCH   1  20
TORSDOF 1
ENDMDL
MODEL 7
REMARK VINA RESULT:      -6.4      6.853      9.232
REMARK  Name = 
REMARK  2 active torsions:
REMARK  status: ('A' for Active; 'I' for Inactive)
REMARK    1  A    between atoms: C_1  and  O_2
REMARK    2  A    between atoms: O_2  and  C_3
REMARK                            x       y       z     vdW  Elec       q    Type
REMARK                         _______ _______ _______ _____ _____    ______ ____
ROOT
ATOM      1  C   UNL     1      -2.000  12.544  21.200  0.00  0.00    +0.000 C 
ATOM      2  C   UNL     1      -1.564  13.243  20.142  0.00  0.00    +0.000 C 
ATOM      3  C   UNL     1      -0.263  12.904  19.544  0.00  0.00    +0.000 C 
ATOM      4  O   UNL     1       0.442  13.750  19.014  0.00  0.00    +0.000 OA
ATOM      5  C   UNL     1       0.125  11.486  19.697  0.00  0.00    +0.000 A 
ATOM      6  N   UNL     1       0.821  10.921  18.699  0.00  0.00    +0.000 NA
ATOM      7  C   UNL     1       1.278   9.690  18.900  0.00  0.00    +0.000 A 
ATOM      8  C   UNL     1       1.824   9.059  17.795  0.00  0.00    +0.000 A 
ATOM      9  C   UNL     1       2.367   7.785  17.882  0.00  0.00    +0.000 A 
ATOM     10  C   UNL     1       2.396   7.148  19.115  0.00  0.00    +0.000 A 
ATOM     11  C   UNL     1       1.829   7.761  20.241  0.00  0.00    +0.000 A 
ATOM     12  C   UNL     1       1.208   9.030  20.152  0.00  0.00    +0.000 A 
ATOM     13  C   UNL     1       0.459   9.679  21.216  0.00  0.00    +0.000 A 
ATOM     14  C   UNL     1       0.281   9.240  22.538  0.00  0.00    +0.000 A 
ATOM     15  C   UNL     1      -0.569   9.943  23.389  0.00  0.00    +0.000 A 
ATOM     16  N   UNL     1      -1.322  11.006  23.009  0.00  0.00    +0.000 NA
ATOM     17  C   UNL     1      -1.134  11.453  21.758  0.00  0.00    +0.000 A 
ATOM     18  C   UNL     1      -0.194  10.878  20.894  0.00  0.00    +0.000 A 
ENDROOT
BRANCH   1  20
ATOM     19  C   UNL     1      -4.384  12.714  20.855  0.00  0.00    +0.000 C 
ATOM     20  O   UNL     1      -3.250  12.855  21.698  0.00  0.00    +0.000 OA
ENDBRANCH   1  20
TORSDOF 1
ENDMDL
MODEL 8
REMARK VINA RESULT:      -6.4      3.235      4.979
REMARK  Name = 
REMARK  2 active torsions:
REMARK  status: ('A' for Active; 'I' for Inactive)
REMARK    1  A    between atoms: C_1  and  O_2
REMARK    2  A    between atoms: O_2  and  C_3
REMARK                            x       y       z     vdW  Elec       q    Type
REMARK                         _______ _______ _______ _____ _____    ______ ____
ROOT
ATOM      1  C   UNL     1       2.796   3.365  18.778  0.00  0.00    +0.000 C 
ATOM      2  C   UNL     1       2.369   3.083  20.017  0.00  0.00    +0.000 C 
ATOM      3  C   UNL     1       2.264   4.169  21.004  0.00  0.00    +0.000 C 
ATOM      4  O   UNL     1       2.439   3.974  22.198  0.00  0.00    +0.000 OA
ATOM      5  C   UNL     1       1.990   5.498  20.418  0.00  0.00    +0.000 A 
ATOM      6  N   UNL     1       1.221   6.342  21.123  0.00  0.00    +0.000 NA
ATOM      7  C   UNL     1       1.088   7.578  20.653  0.00  0.00    +0.000 A 
ATOM      8  C   UNL     1       0.145   8.369  21.288  0.00  0.00    +0.000 A 
ATOM      9  C   UNL     1      -0.064   9.689  20.913  0.00  0.00    +0.000 A 
ATOM     10  C   UNL     1       0.719  10.235  19.906  0.00  0.00    +0.000 A 
ATOM     11  C   UNL     1       1.663   9.445  19.236  0.00  0.00    +0.000 A 
ATOM     12  C   UNL     1       1.838   8.078  19.559  0.00  0.00    +0.000 A 
ATOM     13  C   UNL     1       2.673   7.139  18.827  0.00  0.00    +0.000 A 
ATOM     14  C   UNL     1       3.524   7.403  17.742  0.00  0.00    +0.000 A 
ATOM     15  C   UNL     1       4.163   6.349  17.094  0.00  0.00    +0.000 A 
ATOM     16  N   UNL     1       3.963   5.039  17.387  0.00  0.00    +0.000 NA
ATOM     17  C   UNL     1       3.178   4.777  18.443  0.00  0.00    +0.000 A 
ATOM     18  C   UNL     1       2.615   5.794  19.224  0.00  0.00    +0.000 A 
ENDROOT
BRANCH   1  20
ATOM     19  C   UNL     1       3.680   1.220  18.108  0.00  0.00    +0.000 C 
ATOM     20  O   UNL     1       2.829   2.330  17.864  0.00  0.00    +0.000 OA
ENDBRANCH   1  20
TORSDOF 1
ENDMDL
MODEL 9
REMARK VINA RESULT:      -6.3     10.132     12.239
REMARK  Name = 
REMARK  2 active torsions:
REMARK  status: ('A' for Active; 'I' for Inactive)
REMARK    1  A    between atoms: C_1  and  O_2
REMARK    2  A    between atoms: O_2  and  C_3
REMARK                            x       y       z     vdW  Elec       q    Type
REMARK                         _______ _______ _______ _____ _____    ______ ____
ROOT
ATOM      1  C   UNL     1       6.549  17.423  19.186  0.00  0.00    +0.000 C 
ATOM      2  C   UNL     1       5.671  16.420  19.047  0.00  0.00    +0.000 C 
ATOM      3  C   UNL     1       6.033  15.258  18.221  0.00  0.00    +0.000 C 
ATOM      4  O   UNL     1       5.194  14.625  17.597  0.00  0.00    +0.000 OA
ATOM      5  C   UNL     1       7.483  14.976  18.173  0.00  0.00    +0.000 A 
ATOM      6  N   UNL     1       7.864  13.691  18.097  0.00  0.00    +0.000 NA
ATOM      7  C   UNL     1       9.159  13.452  17.922  0.00  0.00    +0.000 A 
ATOM      8  C   UNL     1       9.551  12.129  18.037  0.00  0.00    +0.000 A 
ATOM      9  C   UNL     1      10.870  11.744  17.842  0.00  0.00    +0.000 A 
ATOM     10  C   UNL     1      11.807  12.706  17.486  0.00  0.00    +0.000 A 
ATOM     11  C   UNL     1      11.434  14.053  17.387  0.00  0.00    +0.000 A 
ATOM     12  C   UNL     1      10.108  14.470  17.652  0.00  0.00    +0.000 A 
ATOM     13  C   UNL     1       9.657  15.850  17.727  0.00  0.00    +0.000 A 
ATOM     14  C   UNL     1      10.396  17.016  17.469  0.00  0.00    +0.000 A 
ATOM     15  C   UNL     1       9.822  18.263  17.706  0.00  0.00    +0.000 A 
ATOM     16  N   UNL     1       8.595  18.447  18.255  0.00  0.00    +0.000 NA
ATOM     17  C   UNL     1       7.867  17.341  18.474  0.00  0.00    +0.000 A 
ATOM     18  C   UNL     1       8.330  16.064  18.131  0.00  0.00    +0.000 A 
ENDROOT
BRANCH   1  20
ATOM     19  C   UNL     1       5.095  18.311  20.898  0.00  0.00    +0.000 C 
ATOM     20  O   UNL     1       6.195  18.470  20.014  0.00  0.00    +0.000 OA
ENDBRANCH   1  20
TORSDOF 1
ENDMDL
