MODEL 1
REMARK VINA RESULT:      -8.5      0.000      0.000
REMARK  Name = 
REMARK  8 active torsions:
REMARK  status: ('A' for Active; 'I' for Inactive)
REMARK    1  A    between atoms: C_2  and  C_3
REMARK    2  A    between atoms: C_3  and  N_4
REMARK    3  A    between atoms: C_7  and  C_8
REMARK    4  A    between atoms: C_8  and  C_9
REMARK    5  A    between atoms: N_22  and  N_23
REMARK    6  A    between atoms: N_23  and  C_24
REMARK    7  A    between atoms: C_24  and  N_26
REMARK    8  A    between atoms: N_26  and  C_27
REMARK                            x       y       z     vdW  Elec       q    Type
REMARK                         _______ _______ _______ _____ _____    ______ ____
ROOT
ATOM      1  N   UNL     1       1.139  10.859  19.452  0.00  0.00    +0.000 N 
ATOM      2  C   UNL     1       1.663   9.826  18.678  0.00  0.00    +0.000 A 
ATOM      3  O   UNL     1       2.047   9.959  17.521  0.00  0.00    +0.000 OA
ATOM      4  C   UNL     1       1.786   8.467  19.356  0.00  0.00    +0.000 A 
ATOM      5  N   UNL     1       1.252   8.204  20.512  0.00  0.00    +0.000 NA
ATOM      6  C   UNL     1       0.591   9.240  21.189  0.00  0.00    +0.000 A 
ATOM      7  C   UNL     1      -0.008   8.915  22.410  0.00  0.00    +0.000 A 
ATOM      8  C   UNL     1      -0.645   9.888  23.174  0.00  0.00    +0.000 A 
ATOM      9  C   UNL     1      -0.673  11.203  22.723  0.00  0.00    +0.000 A 
ATOM     10  C   UNL     1      -0.068  11.546  21.509  0.00  0.00    +0.000 A 
ATOM     11  C   UNL     1       0.561  10.571  20.721  0.00  0.00    +0.000 A 
ENDROOT
BRANCH   1  12
ATOM     12  C   UNL     1       1.203  12.211  18.904  0.00  0.00    +0.000 C 
BRANCH  12  14
ATOM     13  O   UNL     1      -0.679  13.751  18.719  0.00  0.00    +0.000 OA
ATOM     14  C   UNL     1      -0.188  12.668  18.442  0.00  0.00    +0.000 C 
ATOM     15  N   UNL     1      -0.792  11.733  17.624  0.00  0.00    +0.000 N 
ATOM     16  H   UNL     1      -0.301  10.882  17.333  0.00  0.00    +0.000 HD
BRANCH  15  17
ATOM     17  N   UNL     1      -2.060  11.943  17.061  0.00  0.00    +0.000 N 
ATOM     18  H   UNL     1      -2.222  12.887  16.704  0.00  0.00    +0.000 HD
BRANCH  17  19
ATOM     19  C   UNL     1      -3.161  11.302  17.636  0.00  0.00    +0.000 C 
ATOM     20  S   UNL     1      -3.385   9.635  17.584  0.00  0.00    +0.000 S 
BRANCH  19  21
ATOM     21  N   UNL     1      -4.082  12.242  18.103  0.00  0.00    +0.000 N 
ATOM     22  H   UNL     1      -4.823  12.409  17.431  0.00  0.00    +0.000 HD
BRANCH  21  23
ATOM     23  C   UNL     1      -4.419  12.464  19.458  0.00  0.00    +0.000 A 
ATOM     24  C   UNL     1      -3.439  12.816  20.389  0.00  0.00    +0.000 A 
ATOM     25  C   UNL     1      -3.758  12.948  21.739  0.00  0.00    +0.000 A 
ATOM     26  C   UNL     1      -5.071  12.759  22.163  0.00  0.00    +0.000 A 
ATOM     27  C   UNL     1      -6.071  12.490  21.228  0.00  0.00    +0.000 A 
ATOM     28  C   UNL     1      -5.750  12.359  19.872  0.00  0.00    +0.000 A 
ENDBRANCH  21  23
ENDBRANCH  19  21
ENDBRANCH  17  19
ENDBRANCH  15  17
ENDBRANCH  12  14
ENDBRANCH   1  12
BRANCH   4  29
ATOM     29  C   UNL     1       2.652   7.427  18.676  0.00  0.00    +0.000 C 
BRANCH  29  30
ATOM     30  C   UNL     1       2.157   6.027  18.966  0.00  0.00    +0.000 A 
ATOM     31  C   UNL     1       2.105   5.550  20.286  0.00  0.00    +0.000 A 
ATOM     32  C   UNL     1       1.764   4.222  20.549  0.00  0.00    +0.000 A 
ATOM     33  C   UNL     1       1.447   3.364  19.499  0.00  0.00    +0.000 A 
ATOM     34  C   UNL     1       1.438   3.841  18.190  0.00  0.00    +0.000 A 
ATOM     35  C   UNL     1       1.788   5.167  17.923  0.00  0.00    +0.000 A 
ENDBRANCH  29  30
ENDBRANCH   4  29
TORSDOF 8
ENDMDL
MODEL 2
REMARK VINA RESULT:      -8.5      0.607      1.219
REMARK  Name = 
REMARK  8 active torsions:
REMARK  status: ('A' for Active; 'I' for Inactive)
REMARK    1  A    between atoms: C_2  and  C_3
REMARK    2  A    between atoms: C_3  and  N_4
REMARK    3  A    between atoms: C_7  and  C_8
REMARK    4  A    between atoms: C_8  and  C_9
REMARK    5  A    between atoms: N_22  and  N_23
REMARK    6  A    between atoms: N_23  and  C_24
REMARK    7  A    between atoms: C_24  and  N_26
REMARK    8  A    between atoms: N_26  and  C_27
REMARK                            x       y       z     vdW  Elec       q    Type
REMARK                         _______ _______ _______ _____ _____    ______ ____
ROOT
ATOM      1  N   UNL     1       1.093  10.715  19.485  0.00  0.00    +0.000 N 
ATOM      2  C   UNL     1       1.641   9.669  18.744  0.00  0.00    +0.000 A 
ATOM      3  O   UNL     1       2.032   9.776  17.587  0.00  0.00    +0.000 OA
ATOM      4  C   UNL     1       1.781   8.332  19.461  0.00  0.00    +0.000 A 
ATOM      5  N   UNL     1       1.242   8.092  20.619  0.00  0.00    +0.000 NA
ATOM      6  C   UNL     1       0.558   9.135  21.262  0.00  0.00    +0.000 A 
ATOM      7  C   UNL     1      -0.046   8.835  22.487  0.00  0.00    +0.000 A 
ATOM      8  C   UNL     1      -0.706   9.818  23.218  0.00  0.00    +0.000 A 
ATOM      9  C   UNL     1      -0.752  11.119  22.730  0.00  0.00    +0.000 A 
ATOM     10  C   UNL     1      -0.143  11.437  21.511  0.00  0.00    +0.000 A 
ATOM     11  C   UNL     1       0.509  10.452  20.757  0.00  0.00    +0.000 A 
ENDROOT
BRANCH   1  12
ATOM     12  C   UNL     1       1.138  12.051  18.899  0.00  0.00    +0.000 C 
BRANCH  12  14
ATOM     13  O   UNL     1      -0.811  13.506  19.069  0.00  0.00    +0.000 OA
ATOM     14  C   UNL     1      -0.278  12.535  18.557  0.00  0.00    +0.000 C 
ATOM     15  N   UNL     1      -0.854  11.776  17.556  0.00  0.00    +0.000 N 
ATOM     16  H   UNL     1      -0.331  11.034  17.082  0.00  0.00    +0.000 HD
BRANCH  15  17
ATOM     17  N   UNL     1      -2.138  12.047  17.060  0.00  0.00    +0.000 N 
ATOM     18  H   UNL     1      -2.334  13.035  16.889  0.00  0.00    +0.000 HD
BRANCH  17  19
ATOM     19  C   UNL     1      -3.209  11.276  17.522  0.00  0.00    +0.000 C 
ATOM     20  S   UNL     1      -3.145   9.600  17.650  0.00  0.00    +0.000 S 
BRANCH  19  21
ATOM     21  N   UNL     1      -4.341  12.073  17.701  0.00  0.00    +0.000 N 
ATOM     22  H   UNL     1      -4.745  12.359  16.816  0.00  0.00    +0.000 HD
BRANCH  21  23
ATOM     23  C   UNL     1      -5.239  11.997  18.790  0.00  0.00    +0.000 A 
ATOM     24  C   UNL     1      -4.914  12.564  20.025  0.00  0.00    +0.000 A 
ATOM     25  C   UNL     1      -5.761  12.412  21.120  0.00  0.00    +0.000 A 
ATOM     26  C   UNL     1      -6.959  11.715  20.979  0.00  0.00    +0.000 A 
ATOM     27  C   UNL     1      -7.330  11.217  19.730  0.00  0.00    +0.000 A 
ATOM     28  C   UNL     1      -6.479  11.373  18.629  0.00  0.00    +0.000 A 
ENDBRANCH  21  23
ENDBRANCH  19  21
ENDBRANCH  17  19
ENDBRANCH  15  17
ENDBRANCH  12  14
ENDBRANCH   1  12
BRANCH   4  29
ATOM     29  C   UNL     1       2.671   7.289  18.818  0.00  0.00    +0.000 C 
BRANCH  29  30
ATOM     30  C   UNL     1       2.164   5.890  19.096  0.00  0.00    +0.000 A 
ATOM     31  C   UNL     1       1.885   5.011  18.037  0.00  0.00    +0.000 A 
ATOM     32  C   UNL     1       1.304   3.765  18.281  0.00  0.00    +0.000 A 
ATOM     33  C   UNL     1       1.018   3.375  19.587  0.00  0.00    +0.000 A 
ATOM     34  C   UNL     1       1.345   4.214  20.650  0.00  0.00    +0.000 A 
ATOM     35  C   UNL     1       1.917   5.465  20.408  0.00  0.00    +0.000 A 
ENDBRANCH  29  30
ENDBRANCH   4  29
TORSDOF 8
ENDMDL
MODEL 3
REMARK VINA RESULT:      -8.3      3.932      6.498
REMARK  Name = 
REMARK  8 active torsions:
REMARK  status: ('A' for Active; 'I' for Inactive)
REMARK    1  A    between atoms: C_2  and  C_3
REMARK    2  A    between atoms: C_3  and  N_4
REMARK    3  A    between atoms: C_7  and  C_8
REMARK    4  A    between atoms: C_8  and  C_9
REMARK    5  A    between atoms: N_22  and  N_23
REMARK    6  A    between atoms: N_23  and  C_24
REMARK    7  A    between atoms: C_24  and  N_26
REMARK    8  A    between atoms: N_26  and  C_27
REMARK                            x       y       z     vdW  Elec       q    Type
REMARK                         _______ _______ _______ _____ _____    ______ ____
ROOT
ATOM      1  N   UNL     1       3.675   5.813  18.304  0.00  0.00    +0.000 N 
ATOM      2  C   UNL     1       4.799   5.944  17.490  0.00  0.00    +0.000 A 
ATOM      3  O   UNL     1       5.355   7.011  17.250  0.00  0.00    +0.000 OA
ATOM      4  C   UNL     1       5.367   4.656  16.908  0.00  0.00    +0.000 A 
ATOM      5  N   UNL     1       4.745   3.516  16.975  0.00  0.00    +0.000 NA
ATOM      6  C   UNL     1       3.530   3.463  17.673  0.00  0.00    +0.000 A 
ATOM      7  C   UNL     1       2.865   2.233  17.693  0.00  0.00    +0.000 A 
ATOM      8  C   UNL     1       1.677   2.075  18.399  0.00  0.00    +0.000 A 
ATOM      9  C   UNL     1       1.152   3.151  19.106  0.00  0.00    +0.000 A 
ATOM     10  C   UNL     1       1.811   4.385  19.105  0.00  0.00    +0.000 A 
ATOM     11  C   UNL     1       2.999   4.562  18.383  0.00  0.00    +0.000 A 
ENDROOT
BRANCH   1  12
ATOM     12  C   UNL     1       3.235   6.995  19.040  0.00  0.00    +0.000 C 
BRANCH  12  14
ATOM     13  O   UNL     1       1.489   7.393  17.385  0.00  0.00    +0.000 OA
ATOM     14  C   UNL     1       2.303   7.851  18.172  0.00  0.00    +0.000 C 
ATOM     15  N   UNL     1       2.450   9.200  18.432  0.00  0.00    +0.000 N 
ATOM     16  H   UNL     1       3.072   9.534  19.175  0.00  0.00    +0.000 HD
BRANCH  15  17
ATOM     17  N   UNL     1       1.685  10.174  17.775  0.00  0.00    +0.000 N 
ATOM     18  H   UNL     1       2.018  10.428  16.843  0.00  0.00    +0.000 HD
BRANCH  17  19
ATOM     19  C   UNL     1       1.124  11.206  18.533  0.00  0.00    +0.000 C 
ATOM     20  S   UNL     1       1.931  12.645  18.866  0.00  0.00    +0.000 S 
BRANCH  19  21
ATOM     21  N   UNL     1      -0.099  10.804  19.074  0.00  0.00    +0.000 N 
ATOM     22  H   UNL     1      -0.638  10.250  18.416  0.00  0.00    +0.000 HD
BRANCH  21  23
ATOM     23  C   UNL     1      -0.352  10.553  20.441  0.00  0.00    +0.000 A 
ATOM     24  C   UNL     1      -0.895  11.546  21.261  0.00  0.00    +0.000 A 
ATOM     25  C   UNL     1      -1.062  11.325  22.626  0.00  0.00    +0.000 A 
ATOM     26  C   UNL     1      -0.716  10.094  23.177  0.00  0.00    +0.000 A 
ATOM     27  C   UNL     1      -0.253   9.069  22.353  0.00  0.00    +0.000 A 
ATOM     28  C   UNL     1      -0.087   9.290  20.980  0.00  0.00    +0.000 A 
ENDBRANCH  21  23
ENDBRANCH  19  21
ENDBRANCH  17  19
ENDBRANCH  15  17
ENDBRANCH  12  14
ENDBRANCH   1  12
BRANCH   4  29
ATOM     29  C   UNL     1       6.760   4.717  16.315  0.00  0.00    +0.000 C 
BRANCH  29  30
ATOM     30  C   UNL     1       6.720   4.579  14.808  0.00  0.00    +0.000 A 
ATOM     31  C   UNL     1       5.803   3.707  14.198  0.00  0.00    +0.000 A 
ATOM     32  C   UNL     1       5.842   3.484  12.821  0.00  0.00    +0.000 A 
ATOM     33  C   UNL     1       6.780   4.149  12.035  0.00  0.00    +0.000 A 
ATOM     34  C   UNL     1       7.656   5.062  12.621  0.00  0.00    +0.000 A 
ATOM     35  C   UNL     1       7.625   5.278  14.001  0.00  0.00    +0.000 A 
ENDBRANCH  29  30
ENDBRANCH   4  29
TORSDOF 8
ENDMDL
MODEL 4
REMARK VINA RESULT:      -8.3      0.909      1.241
REMARK  Name = 
REMARK  8 active torsions:
REMARK  status: ('A' for Active; 'I' for Inactive)
REMARK    1  A    between atoms: C_2  and  C_3
REMARK    2  A    between atoms: C_3  and  N_4
REMARK    3  A    between atoms: C_7  and  C_8
REMARK    4  A    between atoms: C_8  and  C_9
REMARK    5  A    between atoms: N_22  and  N_23
REMARK    6  A    between atoms: N_23  and  C_24
REMARK    7  A    between atoms: C_24  and  N_26
REMARK    8  A    between atoms: N_26  and  C_27
REMARK                            x       y       z     vdW  Elec       q    Type
REMARK                         _______ _______ _______ _____ _____    ______ ____
ROOT
ATOM      1  N   UNL     1       1.140  10.792  19.471  0.00  0.00    +0.000 N 
ATOM      2  C   UNL     1       1.683   9.717  18.769  0.00  0.00    +0.000 A 
ATOM      3  O   UNL     1       2.106   9.789  17.620  0.00  0.00    +0.000 OA
ATOM      4  C   UNL     1       1.774   8.395  19.521  0.00  0.00    +0.000 A 
ATOM      5  N   UNL     1       1.200   8.195  20.669  0.00  0.00    +0.000 NA
ATOM      6  C   UNL     1       0.525   9.268  21.270  0.00  0.00    +0.000 A 
ATOM      7  C   UNL     1      -0.117   9.010  22.485  0.00  0.00    +0.000 A 
ATOM      8  C   UNL     1      -0.773  10.025  23.176  0.00  0.00    +0.000 A 
ATOM      9  C   UNL     1      -0.777  11.315  22.656  0.00  0.00    +0.000 A 
ATOM     10  C   UNL     1      -0.130  11.590  21.447  0.00  0.00    +0.000 A 
ATOM     11  C   UNL     1       0.518  10.573  20.733  0.00  0.00    +0.000 A 
ENDROOT
BRANCH   1  12
ATOM     12  C   UNL     1       1.230  12.113  18.855  0.00  0.00    +0.000 C 
BRANCH  12  14
ATOM     13  O   UNL     1      -0.644  13.673  18.855  0.00  0.00    +0.000 OA
ATOM     14  C   UNL     1      -0.165  12.619  18.465  0.00  0.00    +0.000 C 
ATOM     15  N   UNL     1      -0.790  11.772  17.571  0.00  0.00    +0.000 N 
ATOM     16  H   UNL     1      -0.309  10.951  17.190  0.00  0.00    +0.000 HD
BRANCH  15  17
ATOM     17  N   UNL     1      -2.065  12.041  17.054  0.00  0.00    +0.000 N 
ATOM     18  H   UNL     1      -2.518  12.874  17.437  0.00  0.00    +0.000 HD
BRANCH  17  19
ATOM     19  C   UNL     1      -2.906  10.966  16.752  0.00  0.00    +0.000 C 
ATOM     20  S   UNL     1      -3.021  10.294  15.213  0.00  0.00    +0.000 S 
BRANCH  19  21
ATOM     21  N   UNL     1      -3.712  10.655  17.848  0.00  0.00    +0.000 N 
ATOM     22  H   UNL     1      -3.213  10.102  18.538  0.00  0.00    +0.000 HD
BRANCH  21  23
ATOM     23  C   UNL     1      -4.770  11.449  18.345  0.00  0.00    +0.000 A 
ATOM     24  C   UNL     1      -4.616  12.190  19.519  0.00  0.00    +0.000 A 
ATOM     25  C   UNL     1      -5.688  12.903  20.054  0.00  0.00    +0.000 A 
ATOM     26  C   UNL     1      -6.916  12.904  19.397  0.00  0.00    +0.000 A 
ATOM     27  C   UNL     1      -7.055  12.235  18.181  0.00  0.00    +0.000 A 
ATOM     28  C   UNL     1      -5.977  11.521  17.643  0.00  0.00    +0.000 A 
ENDBRANCH  21  23
ENDBRANCH  19  21
ENDBRANCH  17  19
ENDBRANCH  15  17
ENDBRANCH  12  14
ENDBRANCH   1  12
BRANCH   4  29
ATOM     29  C   UNL     1       2.656   7.317  18.924  0.00  0.00    +0.000 C 
BRANCH  29  30
ATOM     30  C   UNL     1       2.069   5.941  19.153  0.00  0.00    +0.000 A 
ATOM     31  C   UNL     1       1.823   5.480  20.457  0.00  0.00    +0.000 A 
ATOM     32  C   UNL     1       1.396   4.170  20.679  0.00  0.00    +0.000 A 
ATOM     33  C   UNL     1       1.186   3.314  19.601  0.00  0.00    +0.000 A 
ATOM     34  C   UNL     1       1.370   3.778  18.300  0.00  0.00    +0.000 A 
ATOM     35  C   UNL     1       1.807   5.086  18.075  0.00  0.00    +0.000 A 
ENDBRANCH  29  30
ENDBRANCH   4  29
TORSDOF 8
ENDMDL
MODEL 5
REMARK VINA RESULT:      -8.3      6.690     10.610
REMARK  Name = 
REMARK  8 active torsions:
REMARK  status: ('A' for Active; 'I' for Inactive)
REMARK    1  A    between atoms: C_2  and  C_3
REMARK    2  A    between atoms: C_3  and  N_4
REMARK    3  A    between atoms: C_7  and  C_8
REMARK    4  A    between atoms: C_8  and  C_9
REMARK    5  A    between atoms: N_22  and  N_23
REMARK    6  A    between atoms: N_23  and  C_24
REMARK    7  A    between atoms: C_24  and  N_26
REMARK    8  A    between atoms: N_26  and  C_27
REMARK                            x       y       z     vdW  Elec       q    Type
REMARK                         _______ _______ _______ _____ _____    ______ ____
ROOT
ATOM      1  N   UNL     1       6.500   5.549  17.591  0.00  0.00    +0.000 N 
ATOM      2  C   UNL     1       5.495   5.333  18.532  0.00  0.00    +0.000 A 
ATOM      3  O   UNL     1       5.599   5.601  19.724  0.00  0.00    +0.000 OA
ATOM      4  C   UNL     1       4.186   4.760  18.004  0.00  0.00    +0.000 A 
ATOM      5  N   UNL     1       4.054   4.295  16.798  0.00  0.00    +0.000 NA
ATOM      6  C   UNL     1       5.149   4.390  15.926  0.00  0.00    +0.000 A 
ATOM      7  C   UNL     1       4.989   3.845  14.649  0.00  0.00    +0.000 A 
ATOM      8  C   UNL     1       6.006   3.933  13.702  0.00  0.00    +0.000 A 
ATOM      9  C   UNL     1       7.190   4.586  14.028  0.00  0.00    +0.000 A 
ATOM     10  C   UNL     1       7.360   5.146  15.299  0.00  0.00    +0.000 A 
ATOM     11  C   UNL     1       6.351   5.047  16.267  0.00  0.00    +0.000 A 
ENDROOT
BRANCH   1  12
ATOM     12  C   UNL     1       7.683   6.287  18.026  0.00  0.00    +0.000 C 
BRANCH  12  14
ATOM     13  O   UNL     1       6.697   8.223  16.919  0.00  0.00    +0.000 OA
ATOM     14  C   UNL     1       7.548   7.774  17.670  0.00  0.00    +0.000 C 
ATOM     15  N   UNL     1       8.467   8.552  18.348  0.00  0.00    +0.000 N 
ATOM     16  H   UNL     1       9.096   8.145  19.047  0.00  0.00    +0.000 HD
BRANCH  15  17
ATOM     17  N   UNL     1       8.517   9.945  18.200  0.00  0.00    +0.000 N 
ATOM     18  H   UNL     1       8.287  10.288  17.265  0.00  0.00    +0.000 HD
BRANCH  17  19
ATOM     19  C   UNL     1       9.502  10.656  18.893  0.00  0.00    +0.000 C 
ATOM     20  S   UNL     1       9.437  10.934  20.552  0.00  0.00    +0.000 S 
BRANCH  19  21
ATOM     21  N   UNL     1      10.425  11.205  18.002  0.00  0.00    +0.000 N 
ATOM     22  H   UNL     1      10.576  10.604  17.199  0.00  0.00    +0.000 HD
BRANCH  21  23
ATOM     23  C   UNL     1      10.643  12.585  17.787  0.00  0.00    +0.000 A 
ATOM     24  C   UNL     1       9.649  13.520  18.087  0.00  0.00    +0.000 A 
ATOM     25  C   UNL     1       9.833  14.870  17.793  0.00  0.00    +0.000 A 
ATOM     26  C   UNL     1      11.030  15.298  17.224  0.00  0.00    +0.000 A 
ATOM     27  C   UNL     1      12.059  14.384  16.998  0.00  0.00    +0.000 A 
ATOM     28  C   UNL     1      11.874  13.029  17.296  0.00  0.00    +0.000 A 
ENDBRANCH  21  23
ENDBRANCH  19  21
ENDBRANCH  17  19
ENDBRANCH  15  17
ENDBRANCH  12  14
ENDBRANCH   1  12
BRANCH   4  29
ATOM     29  C   UNL     1       2.979   4.833  18.916  0.00  0.00    +0.000 C 
BRANCH  29  30
ATOM     30  C   UNL     1       2.524   6.264  19.107  0.00  0.00    +0.000 A 
ATOM     31  C   UNL     1       2.045   6.698  20.355  0.00  0.00    +0.000 A 
ATOM     32  C   UNL     1       1.512   7.979  20.505  0.00  0.00    +0.000 A 
ATOM     33  C   UNL     1       1.474   8.849  19.418  0.00  0.00    +0.000 A 
ATOM     34  C   UNL     1       2.000   8.450  18.191  0.00  0.00    +0.000 A 
ATOM     35  C   UNL     1       2.524   7.165  18.035  0.00  0.00    +0.000 A 
ENDBRANCH  29  30
ENDBRANCH   4  29
TORSDOF 8
ENDMDL
MODEL 6
REMARK VINA RESULT:      -8.2      1.590      2.005
REMARK  Name = 
REMARK  8 active torsions:
REMARK  status: ('A' for Active; 'I' for Inactive)
REMARK    1  A    between atoms: C_2  and  C_3
REMARK    2  A    between atoms: C_3  and  N_4
REMARK    3  A    between atoms: C_7  and  C_8
REMARK    4  A    between atoms: C_8  and  C_9
REMARK    5  A    between atoms: N_22  and  N_23
REMARK    6  A    between atoms: N_23  and  C_24
REMARK    7  A    between atoms: C_24  and  N_26
REMARK    8  A    between atoms: N_26  and  C_27
REMARK                            x       y       z     vdW  Elec       q    Type
REMARK                         _______ _______ _______ _____ _____    ______ ____
ROOT
ATOM      1  N   UNL     1       0.474   9.968  19.328  0.00  0.00    +0.000 N 
ATOM      2  C   UNL     1       1.185   8.841  18.920  0.00  0.00    +0.000 A 
ATOM      3  O   UNL     1       1.403   8.552  17.748  0.00  0.00    +0.000 OA
ATOM      4  C   UNL     1       1.743   7.955  20.026  0.00  0.00    +0.000 A 
ATOM      5  N   UNL     1       1.417   8.096  21.276  0.00  0.00    +0.000 NA
ATOM      6  C   UNL     1       0.566   9.156  21.624  0.00  0.00    +0.000 A 
ATOM      7  C   UNL     1       0.202   9.258  22.971  0.00  0.00    +0.000 A 
ATOM      8  C   UNL     1      -0.601  10.303  23.416  0.00  0.00    +0.000 A 
ATOM      9  C   UNL     1      -1.034  11.267  22.512  0.00  0.00    +0.000 A 
ATOM     10  C   UNL     1      -0.668  11.185  21.164  0.00  0.00    +0.000 A 
ATOM     11  C   UNL     1       0.125  10.126  20.700  0.00  0.00    +0.000 A 
ENDROOT
BRANCH   1  12
ATOM     12  C   UNL     1       0.109  10.943  18.304  0.00  0.00    +0.000 C 
BRANCH  12  14
ATOM     13  O   UNL     1      -2.075   9.861  18.230  0.00  0.00    +0.000 OA
ATOM     14  C   UNL     1      -1.385  10.834  17.970  0.00  0.00    +0.000 C 
ATOM     15  N   UNL     1      -1.870  11.993  17.395  0.00  0.00    +0.000 N 
ATOM     16  H   UNL     1      -1.279  12.823  17.289  0.00  0.00    +0.000 HD
BRANCH  15  17
ATOM     17  N   UNL     1      -3.216  12.135  17.026  0.00  0.00    +0.000 N 
ATOM     18  H   UNL     1      -3.777  12.711  17.657  0.00  0.00    +0.000 HD
BRANCH  17  19
ATOM     19  C   UNL     1      -3.867  11.046  16.440  0.00  0.00    +0.000 C 
ATOM     20  S   UNL     1      -3.493  10.470  14.904  0.00  0.00    +0.000 S 
BRANCH  19  21
ATOM     21  N   UNL     1      -4.936  10.632  17.237  0.00  0.00    +0.000 N 
ATOM     22  H   UNL     1      -4.751   9.739  17.680  0.00  0.00    +0.000 HD
BRANCH  21  23
ATOM     23  C   UNL     1      -5.833  11.484  17.921  0.00  0.00    +0.000 A 
ATOM     24  C   UNL     1      -6.760  12.257  17.219  0.00  0.00    +0.000 A 
ATOM     25  C   UNL     1      -7.582  13.161  17.889  0.00  0.00    +0.000 A 
ATOM     26  C   UNL     1      -7.505  13.273  19.275  0.00  0.00    +0.000 A 
ATOM     27  C   UNL     1      -6.642  12.445  19.992  0.00  0.00    +0.000 A 
ATOM     28  C   UNL     1      -5.817  11.535  19.318  0.00  0.00    +0.000 A 
ENDBRANCH  21  23
ENDBRANCH  19  21
ENDBRANCH  17  19
ENDBRANCH  15  17
ENDBRANCH  12  14
ENDBRANCH   1  12
BRANCH   4  29
ATOM     29  C   UNL     1       2.792   6.934  19.635  0.00  0.00    +0.000 C 
BRANCH  29  30
ATOM     30  C   UNL     1       2.162   5.594  19.324  0.00  0.00    +0.000 A 
ATOM     31  C   UNL     1       1.583   4.825  20.347  0.00  0.00    +0.000 A 
ATOM     32  C   UNL     1       1.110   3.538  20.089  0.00  0.00    +0.000 A 
ATOM     33  C   UNL     1       1.186   3.014  18.801  0.00  0.00    +0.000 A 
ATOM     34  C   UNL     1       1.704   3.789  17.765  0.00  0.00    +0.000 A 
ATOM     35  C   UNL     1       2.188   5.074  18.023  0.00  0.00    +0.000 A 
ENDBRANCH  29  30
ENDBRANCH   4  29
TORSDOF 8
ENDMDL
MODEL 7
REMARK VINA RESULT:      -8.2      4.045      6.857
REMARK  Name = 
REMARK  8 active torsions:
REMARK  status: ('A' for Active; 'I' for Inactive)
REMARK    1  A    between atoms: C_2  and  C_3
REMARK    2  A    between atoms: C_3  and  N_4
REMARK    3  A    between atoms: C_7  and  C_8
REMARK    4  A    between atoms: C_8  and  C_9
REMARK    5  A    between atoms: N_22  and  N_23
REMARK    6  A    between atoms: N_23  and  C_24
REMARK    7  A    between atoms: C_24  and  N_26
REMARK    8  A    between atoms: N_26  and  C_27
REMARK                            x       y       z     vdW  Elec       q    Type
REMARK                         _______ _______ _______ _____ _____    ______ ____
ROOT
ATOM      1  N   UNL     1       3.152   5.597  17.659  0.00  0.00    +0.000 N 
ATOM      2  C   UNL     1       4.330   5.761  16.932  0.00  0.00    +0.000 A 
ATOM      3  O   UNL     1       4.723   6.836  16.492  0.00  0.00    +0.000 OA
ATOM      4  C   UNL     1       5.174   4.511  16.722  0.00  0.00    +0.000 A 
ATOM      5  N   UNL     1       4.750   3.315  17.007  0.00  0.00    +0.000 NA
ATOM      6  C   UNL     1       3.483   3.184  17.596  0.00  0.00    +0.000 A 
ATOM      7  C   UNL     1       3.038   1.883  17.853  0.00  0.00    +0.000 A 
ATOM      8  C   UNL     1       1.815   1.657  18.476  0.00  0.00    +0.000 A 
ATOM      9  C   UNL     1       1.033   2.740  18.862  0.00  0.00    +0.000 A 
ATOM     10  C   UNL     1       1.470   4.048  18.622  0.00  0.00    +0.000 A 
ATOM     11  C   UNL     1       2.692   4.287  17.978  0.00  0.00    +0.000 A 
ENDROOT
BRANCH   1  12
ATOM     12  C   UNL     1       2.431   6.804  18.055  0.00  0.00    +0.000 C 
BRANCH  12  14
ATOM     13  O   UNL     1       3.157   6.297  20.327  0.00  0.00    +0.000 OA
ATOM     14  C   UNL     1       2.474   6.978  19.579  0.00  0.00    +0.000 C 
ATOM     15  N   UNL     1       1.694   8.039  19.999  0.00  0.00    +0.000 N 
ATOM     16  H   UNL     1       1.218   8.649  19.327  0.00  0.00    +0.000 HD
BRANCH  15  17
ATOM     17  N   UNL     1       1.597   8.405  21.349  0.00  0.00    +0.000 N 
ATOM     18  H   UNL     1       1.531   7.623  22.004  0.00  0.00    +0.000 HD
BRANCH  17  19
ATOM     19  C   UNL     1       0.867   9.550  21.681  0.00  0.00    +0.000 C 
ATOM     20  S   UNL     1      -0.233   9.602  22.953  0.00  0.00    +0.000 S 
BRANCH  19  21
ATOM     21  N   UNL     1       1.075  10.552  20.731  0.00  0.00    +0.000 N 
ATOM     22  H   UNL     1       2.036  10.568  20.405  0.00  0.00    +0.000 HD
BRANCH  21  23
ATOM     23  C   UNL     1       0.109  11.039  19.821  0.00  0.00    +0.000 A 
ATOM     24  C   UNL     1      -0.880  10.195  19.310  0.00  0.00    +0.000 A 
ATOM     25  C   UNL     1      -1.777  10.654  18.348  0.00  0.00    +0.000 A 
ATOM     26  C   UNL     1      -1.710  11.976  17.913  0.00  0.00    +0.000 A 
ATOM     27  C   UNL     1      -0.780  12.847  18.478  0.00  0.00    +0.000 A 
ATOM     28  C   UNL     1       0.120  12.386  19.447  0.00  0.00    +0.000 A 
ENDBRANCH  21  23
ENDBRANCH  19  21
ENDBRANCH  17  19
ENDBRANCH  15  17
ENDBRANCH  12  14
ENDBRANCH   1  12
BRANCH   4  29
ATOM     29  C   UNL     1       6.599   4.708  16.247  0.00  0.00    +0.000 C 
BRANCH  29  30
ATOM     30  C   UNL     1       6.696   4.590  14.742  0.00  0.00    +0.000 A 
ATOM     31  C   UNL     1       5.878   3.686  14.044  0.00  0.00    +0.000 A 
ATOM     32  C   UNL     1       6.047   3.486  12.673  0.00  0.00    +0.000 A 
ATOM     33  C   UNL     1       7.016   4.205  11.979  0.00  0.00    +0.000 A 
ATOM     34  C   UNL     1       7.793   5.149  12.649  0.00  0.00    +0.000 A 
ATOM     35  C   UNL     1       7.634   5.343  14.023  0.00  0.00    +0.000 A 
ENDBRANCH  29  30
ENDBRANCH   4  29
TORSDOF 8
ENDMDL
MODEL 8
REMARK VINA RESULT:      -8.2      1.435      1.743
REMARK  Name = 
REMARK  8 active torsions:
REMARK  status: ('A' for Active; 'I' for Inactive)
REMARK    1  A    between atoms: C_2  and  C_3
REMARK    2  A    between atoms: C_3  and  N_4
REMARK    3  A    between atoms: C_7  and  C_8
REMARK    4  A    between atoms: C_8  and  C_9
REMARK    5  A    between atoms: N_22  and  N_23
REMARK    6  A    between atoms: N_23  and  C_24
REMARK    7  A    between atoms: C_24  and  N_26
REMARK    8  A    between atoms: N_26  and  C_27
REMARK                            x       y       z     vdW  Elec       q    Type
REMARK                         _______ _______ _______ _____ _____    ______ ____
ROOT
ATOM      1  N   UNL     1       0.361  10.189  19.337  0.00  0.00    +0.000 N 
ATOM      2  C   UNL     1       1.091   9.086  18.897  0.00  0.00    +0.000 A 
ATOM      3  O   UNL     1       1.335   8.848  17.719  0.00  0.00    +0.000 OA
ATOM      4  C   UNL     1       1.636   8.160  19.977  0.00  0.00    +0.000 A 
ATOM      5  N   UNL     1       1.284   8.247  21.225  0.00  0.00    +0.000 NA
ATOM      6  C   UNL     1       0.415   9.284  21.599  0.00  0.00    +0.000 A 
ATOM      7  C   UNL     1       0.023   9.326  22.941  0.00  0.00    +0.000 A 
ATOM      8  C   UNL     1      -0.800  10.345  23.412  0.00  0.00    +0.000 A 
ATOM      9  C   UNL     1      -1.225  11.341  22.540  0.00  0.00    +0.000 A 
ATOM     10  C   UNL     1      -0.831  11.318  21.198  0.00  0.00    +0.000 A 
ATOM     11  C   UNL     1      -0.018  10.287  20.707  0.00  0.00    +0.000 A 
ENDROOT
BRANCH   1  12
ATOM     12  C   UNL     1       0.006  11.201  18.346  0.00  0.00    +0.000 C 
BRANCH  12  14
ATOM     13  O   UNL     1      -1.662   9.941  17.089  0.00  0.00    +0.000 OA
ATOM     14  C   UNL     1      -1.387  10.919  17.768  0.00  0.00    +0.000 C 
ATOM     15  N   UNL     1      -2.310  11.871  18.157  0.00  0.00    +0.000 N 
ATOM     16  H   UNL     1      -2.060  12.619  18.811  0.00  0.00    +0.000 HD
BRANCH  15  17
ATOM     17  N   UNL     1      -3.656  11.808  17.769  0.00  0.00    +0.000 N 
ATOM     18  H   UNL     1      -3.843  12.104  16.809  0.00  0.00    +0.000 HD
BRANCH  17  19
ATOM     19  C   UNL     1      -4.639  12.119  18.713  0.00  0.00    +0.000 C 
ATOM     20  S   UNL     1      -6.200  11.493  18.654  0.00  0.00    +0.000 S 
BRANCH  19  21
ATOM     21  N   UNL     1      -4.182  13.111  19.583  0.00  0.00    +0.000 N 
ATOM     22  H   UNL     1      -3.718  13.863  19.086  0.00  0.00    +0.000 HD
BRANCH  21  23
ATOM     23  C   UNL     1      -4.777  13.463  20.816  0.00  0.00    +0.000 A 
ATOM     24  C   UNL     1      -5.615  14.577  20.911  0.00  0.00    +0.000 A 
ATOM     25  C   UNL     1      -6.129  14.973  22.144  0.00  0.00    +0.000 A 
ATOM     26  C   UNL     1      -5.833  14.237  23.288  0.00  0.00    +0.000 A 
ATOM     27  C   UNL     1      -5.065  13.076  23.189  0.00  0.00    +0.000 A 
ATOM     28  C   UNL     1      -4.551  12.677  21.949  0.00  0.00    +0.000 A 
ENDBRANCH  21  23
ENDBRANCH  19  21
ENDBRANCH  17  19
ENDBRANCH  15  17
ENDBRANCH  12  14
ENDBRANCH   1  12
BRANCH   4  29
ATOM     29  C   UNL     1       2.703   7.167  19.566  0.00  0.00    +0.000 C 
BRANCH  29  30
ATOM     30  C   UNL     1       2.112   5.791  19.341  0.00  0.00    +0.000 A 
ATOM     31  C   UNL     1       1.608   5.048  20.421  0.00  0.00    +0.000 A 
ATOM     32  C   UNL     1       1.174   3.734  20.239  0.00  0.00    +0.000 A 
ATOM     33  C   UNL     1       1.215   3.157  18.973  0.00  0.00    +0.000 A 
ATOM     34  C   UNL     1       1.658   3.904  17.883  0.00  0.00    +0.000 A 
ATOM     35  C   UNL     1       2.102   5.216  18.064  0.00  0.00    +0.000 A 
ENDBRANCH  29  30
ENDBRANCH   4  29
TORSDOF 8
ENDMDL
MODEL 9
REMARK VINA RESULT:      -8.1      3.273      4.824
REMARK  Name = 
REMARK  8 active torsions:
REMARK  status: ('A' for Active; 'I' for Inactive)
REMARK    1  A    between atoms: C_2  and  C_3
REMARK    2  A    between atoms: C_3  and  N_4
REMARK    3  A    between atoms: C_7  and  C_8
REMARK    4  A    between atoms: C_8  and  C_9
REMARK    5  A    between atoms: N_22  and  N_23
REMARK    6  A    between atoms: N_23  and  C_24
REMARK    7  A    between atoms: C_24  and  N_26
REMARK    8  A    between atoms: N_26  and  C_27
REMARK                            x       y       z     vdW  Elec       q    Type
REMARK                         _______ _______ _______ _____ _____    ______ ____
ROOT
ATOM      1  N   UNL     1       0.952  10.509  19.337  0.00  0.00    +0.000 N 
ATOM      2  C   UNL     1       1.577   9.425  18.725  0.00  0.00    +0.000 A 
ATOM      3  O   UNL     1       1.918   9.402  17.547  0.00  0.00    +0.000 OA
ATOM      4  C   UNL     1       1.874   8.223  19.614  0.00  0.00    +0.000 A 
ATOM      5  N   UNL     1       1.399   8.101  20.817  0.00  0.00    +0.000 NA
ATOM      6  C   UNL     1       0.636   9.157  21.340  0.00  0.00    +0.000 A 
ATOM      7  C   UNL     1       0.105   8.978  22.621  0.00  0.00    +0.000 A 
ATOM      8  C   UNL     1      -0.626   9.989  23.238  0.00  0.00    +0.000 A 
ATOM      9  C   UNL     1      -0.818  11.197  22.576  0.00  0.00    +0.000 A 
ATOM     10  C   UNL     1      -0.283  11.394  21.299  0.00  0.00    +0.000 A 
ATOM     11  C   UNL     1       0.439  10.377  20.659  0.00  0.00    +0.000 A 
ENDROOT
BRANCH   1  12
ATOM     12  C   UNL     1       0.844  11.746  18.570  0.00  0.00    +0.000 C 
BRANCH  12  14
ATOM     13  O   UNL     1       3.031  12.557  17.859  0.00  0.00    +0.000 OA
ATOM     14  C   UNL     1       2.136  12.566  18.690  0.00  0.00    +0.000 C 
ATOM     15  N   UNL     1       2.139  13.362  19.819  0.00  0.00    +0.000 N 
ATOM     16  H   UNL     1       1.322  13.415  20.435  0.00  0.00    +0.000 HD
BRANCH  15  17
ATOM     17  N   UNL     1       3.207  14.217  20.126  0.00  0.00    +0.000 N 
ATOM     18  H   UNL     1       3.742  13.958  20.957  0.00  0.00    +0.000 HD
BRANCH  17  19
ATOM     19  C   UNL     1       3.056  15.587  19.891  0.00  0.00    +0.000 C 
ATOM     20  S   UNL     1       3.071  16.736  21.120  0.00  0.00    +0.000 S 
BRANCH  19  21
ATOM     21  N   UNL     1       2.747  15.820  18.550  0.00  0.00    +0.000 N 
ATOM     22  H   UNL     1       2.964  15.017  17.969  0.00  0.00    +0.000 HD
BRANCH  21  23
ATOM     23  C   UNL     1       1.716  16.662  18.075  0.00  0.00    +0.000 A 
ATOM     24  C   UNL     1       0.404  16.508  18.526  0.00  0.00    +0.000 A 
ATOM     25  C   UNL     1      -0.625  17.281  17.992  0.00  0.00    +0.000 A 
ATOM     26  C   UNL     1      -0.341  18.239  17.022  0.00  0.00    +0.000 A 
ATOM     27  C   UNL     1       0.978  18.457  16.626  0.00  0.00    +0.000 A 
ATOM     28  C   UNL     1       2.012  17.682  17.165  0.00  0.00    +0.000 A 
ENDBRANCH  21  23
ENDBRANCH  19  21
ENDBRANCH  17  19
ENDBRANCH  15  17
ENDBRANCH  12  14
ENDBRANCH   1  12
BRANCH   4  29
ATOM     29  C   UNL     1       2.842   7.187  19.080  0.00  0.00    +0.000 C 
BRANCH  29  30
ATOM     30  C   UNL     1       2.267   5.792  19.193  0.00  0.00    +0.000 A 
ATOM     31  C   UNL     1       2.005   5.035  18.039  0.00  0.00    +0.000 A 
ATOM     32  C   UNL     1       1.364   3.799  18.130  0.00  0.00    +0.000 A 
ATOM     33  C   UNL     1       1.000   3.293  19.375  0.00  0.00    +0.000 A 
ATOM     34  C   UNL     1       1.307   4.008  20.531  0.00  0.00    +0.000 A 
ATOM     35  C   UNL     1       1.939   5.250  20.443  0.00  0.00    +0.000 A 
ENDBRANCH  29  30
ENDBRANCH   4  29
TORSDOF 8
ENDMDL
