MODEL 1
REMARK VINA RESULT:      -6.5      0.000      0.000
REMARK  Name = 
REMARK  13 active torsions:
REMARK  status: ('A' for Active; 'I' for Inactive)
REMARK    1  A    between atoms: C_1  and  C_2
REMARK    2  A    between atoms: C_2  and  C_3
REMARK    3  A    between atoms: C_3  and  C_4
REMARK    4  A    between atoms: N_6  and  C_7
REMARK    5  A    between atoms: C_14  and  N_15
REMARK    6  A    between atoms: N_18  and  C_19
REMARK    7  A    between atoms: C_22  and  C_23
REMARK    8  A    between atoms: C_23  and  N_24
REMARK    9  A    between atoms: N_24  and  C_25
REMARK   10  A    between atoms: N_24  and  C_33
REMARK   11  A    between atoms: C_25  and  C_26
REMARK   12  A    between atoms: C_33  and  C_34
REMARK   13  A    between atoms: C_33  and  C_35
REMARK                            x       y       z     vdW  Elec       q    Type
REMARK                         _______ _______ _______ _____ _____    ______ ____
ROOT
ATOM      1  C   UNL     1       2.953   7.595  17.840  0.00  0.00    +0.000 A 
ATOM      2  N   UNL     1       2.186   8.631  17.456  0.00  0.00    +0.000 NA
ATOM      3  N   UNL     1       1.567   9.056  18.594  0.00  0.00    +0.000 N 
ATOM      4  C   UNL     1       1.762   8.170  19.671  0.00  0.00    +0.000 A 
ATOM      5  C   UNL     1       2.677   7.227  19.194  0.00  0.00    +0.000 A 
ENDROOT
BRANCH   3   6
ATOM      6  C   UNL     1       0.911  10.328  18.636  0.00  0.00    +0.000 A 
ATOM      7  C   UNL     1       1.618  11.494  18.940  0.00  0.00    +0.000 A 
ATOM      8  C   UNL     1       0.960  12.741  18.889  0.00  0.00    +0.000 A 
ATOM      9  C   UNL     1      -0.399  12.805  18.592  0.00  0.00    +0.000 A 
ATOM     10  C   UNL     1      -1.106  11.635  18.323  0.00  0.00    +0.000 A 
ATOM     11 CL   UNL     1      -2.786  11.703  17.967  0.00  0.00    +0.000 Cl
ATOM     12  C   UNL     1      -0.457  10.402  18.336  0.00  0.00    +0.000 A 
ENDBRANCH   3   6
BRANCH   4  13
ATOM     13  N   UNL     1       1.111   8.285  20.886  0.00  0.00    +0.000 N 
ATOM     14  C   UNL     1      -0.287   7.910  21.078  0.00  0.00    +0.000 C 
ATOM     15  C   UNL     1      -1.099   9.103  21.609  0.00  0.00    +0.000 C 
ATOM     16  N   UNL     1      -0.576   9.684  22.866  0.00  0.00    +0.000 NA
ATOM     17  C   UNL     1      -1.386  10.840  23.263  0.00  0.00    +0.000 C 
ATOM     18  C   UNL     1       0.828  10.094  22.610  0.00  0.00    +0.000 C 
ATOM     19  C   UNL     1       1.713   8.937  22.079  0.00  0.00    +0.000 C 
ENDBRANCH   4  13
BRANCH   1  20
ATOM     20  C   UNL     1       3.772   6.815  16.822  0.00  0.00    +0.000 C 
BRANCH  20  22
ATOM     21  C   UNL     1       6.232   7.734  17.288  0.00  0.00    +0.000 C 
ATOM     22  C   UNL     1       5.130   7.337  16.303  0.00  0.00    +0.000 C 
ENDBRANCH  20  22
ENDBRANCH   1  20
BRANCH   5  23
ATOM     23  C   UNL     1       3.269   6.024  19.854  0.00  0.00    +0.000 C 
BRANCH  23  24
ATOM     24  N   UNL     1       3.005   4.774  19.152  0.00  0.00    +0.000 NA
BRANCH  24  25
ATOM     25  C   UNL     1       1.628   4.285  19.313  0.00  0.00    +0.000 C 
ATOM     26  C   UNL     1       1.239   3.071  18.461  0.00  0.00    +0.000 C 
ATOM     27  C   UNL     1       1.178   4.055  20.747  0.00  0.00    +0.000 C 
ENDBRANCH  24  25
BRANCH  24  28
ATOM     28  C   UNL     1       4.136   3.860  18.966  0.00  0.00    +0.000 C 
BRANCH  28  29
ATOM     29  C   UNL     1       5.245   4.043  17.949  0.00  0.00    +0.000 A 
ATOM     30  C   UNL     1       4.941   3.664  16.620  0.00  0.00    +0.000 A 
ATOM     31  C   UNL     1       5.881   3.732  15.583  0.00  0.00    +0.000 A 
ATOM     32  C   UNL     1       7.169   4.173  15.846  0.00  0.00    +0.000 A 
ATOM     33  C   UNL     1       7.491   4.584  17.134  0.00  0.00    +0.000 A 
ATOM     34  C   UNL     1       6.541   4.533  18.156  0.00  0.00    +0.000 A 
ATOM     35  F   UNL     1       6.920   5.024  19.335  0.00  0.00    +0.000 F 
ENDBRANCH  28  29
ENDBRANCH  24  28
ENDBRANCH  23  24
ENDBRANCH   5  23
TORSDOF 9
ENDMDL
MODEL 2
REMARK VINA RESULT:      -6.5      0.937      1.243
REMARK  Name = 
REMARK  13 active torsions:
REMARK  status: ('A' for Active; 'I' for Inactive)
REMARK    1  A    between atoms: C_1  and  C_2
REMARK    2  A    between atoms: C_2  and  C_3
REMARK    3  A    between atoms: C_3  and  C_4
REMARK    4  A    between atoms: N_6  and  C_7
REMARK    5  A    between atoms: C_14  and  N_15
REMARK    6  A    between atoms: N_18  and  C_19
REMARK    7  A    between atoms: C_22  and  C_23
REMARK    8  A    between atoms: C_23  and  N_24
REMARK    9  A    between atoms: N_24  and  C_25
REMARK   10  A    between atoms: N_24  and  C_33
REMARK   11  A    between atoms: C_25  and  C_26
REMARK   12  A    between atoms: C_33  and  C_34
REMARK   13  A    between atoms: C_33  and  C_35
REMARK                            x       y       z     vdW  Elec       q    Type
REMARK                         _______ _______ _______ _____ _____    ______ ____
ROOT
ATOM      1  C   UNL     1       2.961   7.607  17.835  0.00  0.00    +0.000 A 
ATOM      2  N   UNL     1       2.182   8.632  17.448  0.00  0.00    +0.000 NA
ATOM      3  N   UNL     1       1.576   9.069  18.589  0.00  0.00    +0.000 N 
ATOM      4  C   UNL     1       1.794   8.199  19.675  0.00  0.00    +0.000 A 
ATOM      5  C   UNL     1       2.708   7.256  19.198  0.00  0.00    +0.000 A 
ENDROOT
BRANCH   3   6
ATOM      6  C   UNL     1       0.913  10.337  18.623  0.00  0.00    +0.000 A 
ATOM      7  C   UNL     1      -0.462  10.437  18.395  0.00  0.00    +0.000 A 
ATOM      8  C   UNL     1      -1.100  11.689  18.520  0.00  0.00    +0.000 A 
ATOM      9  C   UNL     1      -0.354  12.829  18.813  0.00  0.00    +0.000 A 
ATOM     10  C   UNL     1       1.021  12.728  19.005  0.00  0.00    +0.000 A 
ATOM     11 CL   UNL     1       1.951  14.130  19.356  0.00  0.00    +0.000 Cl
ATOM     12  C   UNL     1       1.654  11.489  18.920  0.00  0.00    +0.000 A 
ENDBRANCH   3   6
BRANCH   4  13
ATOM     13  N   UNL     1       1.160   8.328  20.898  0.00  0.00    +0.000 N 
ATOM     14  C   UNL     1      -0.212   7.887  21.133  0.00  0.00    +0.000 C 
ATOM     15  C   UNL     1      -1.077   9.055  21.635  0.00  0.00    +0.000 C 
ATOM     16  N   UNL     1      -0.562   9.711  22.858  0.00  0.00    +0.000 NA
ATOM     17  C   UNL     1      -1.425  10.837  23.227  0.00  0.00    +0.000 C 
ATOM     18  C   UNL     1       0.813  10.185  22.558  0.00  0.00    +0.000 C 
ATOM     19  C   UNL     1       1.749   9.056  22.052  0.00  0.00    +0.000 C 
ENDBRANCH   4  13
BRANCH   1  20
ATOM     20  C   UNL     1       3.770   6.817  16.815  0.00  0.00    +0.000 C 
BRANCH  20  22
ATOM     21  C   UNL     1       6.204   7.787  17.314  0.00  0.00    +0.000 C 
ATOM     22  C   UNL     1       5.146   7.311  16.316  0.00  0.00    +0.000 C 
ENDBRANCH  20  22
ENDBRANCH   1  20
BRANCH   5  23
ATOM     23  C   UNL     1       3.317   6.066  19.866  0.00  0.00    +0.000 C 
BRANCH  23  24
ATOM     24  N   UNL     1       2.993   4.797  19.225  0.00  0.00    +0.000 NA
BRANCH  24  25
ATOM     25  C   UNL     1       1.617   4.344  19.476  0.00  0.00    +0.000 C 
ATOM     26  C   UNL     1       1.046   3.333  18.474  0.00  0.00    +0.000 C 
ATOM     27  C   UNL     1       1.335   3.860  20.889  0.00  0.00    +0.000 C 
ENDBRANCH  24  25
BRANCH  24  28
ATOM     28  C   UNL     1       4.094   3.854  19.014  0.00  0.00    +0.000 C 
BRANCH  28  29
ATOM     29  C   UNL     1       5.228   4.045  18.024  0.00  0.00    +0.000 A 
ATOM     30  C   UNL     1       4.958   3.665  16.688  0.00  0.00    +0.000 A 
ATOM     31  C   UNL     1       5.923   3.741  15.674  0.00  0.00    +0.000 A 
ATOM     32  C   UNL     1       7.202   4.190  15.969  0.00  0.00    +0.000 A 
ATOM     33  C   UNL     1       7.489   4.602  17.265  0.00  0.00    +0.000 A 
ATOM     34  C   UNL     1       6.514   4.543  18.264  0.00  0.00    +0.000 A 
ATOM     35  F   UNL     1       6.861   5.036  19.452  0.00  0.00    +0.000 F 
ENDBRANCH  28  29
ENDBRANCH  24  28
ENDBRANCH  23  24
ENDBRANCH   5  23
TORSDOF 9
ENDMDL
MODEL 3
REMARK VINA RESULT:      -6.4      4.178      7.499
REMARK  Name = 
REMARK  13 active torsions:
REMARK  status: ('A' for Active; 'I' for Inactive)
REMARK    1  A    between atoms: C_1  and  C_2
REMARK    2  A    between atoms: C_2  and  C_3
REMARK    3  A    between atoms: C_3  and  C_4
REMARK    4  A    between atoms: N_6  and  C_7
REMARK    5  A    between atoms: C_14  and  N_15
REMARK    6  A    between atoms: N_18  and  C_19
REMARK    7  A    between atoms: C_22  and  C_23
REMARK    8  A    between atoms: C_23  and  N_24
REMARK    9  A    between atoms: N_24  and  C_25
REMARK   10  A    between atoms: N_24  and  C_33
REMARK   11  A    between atoms: C_25  and  C_26
REMARK   12  A    between atoms: C_33  and  C_34
REMARK   13  A    between atoms: C_33  and  C_35
REMARK                            x       y       z     vdW  Elec       q    Type
REMARK                         _______ _______ _______ _____ _____    ______ ____
ROOT
ATOM      1  C   UNL     1      -2.974  11.585  18.420  0.00  0.00    +0.000 A 
ATOM      2  N   UNL     1      -4.146  11.638  19.078  0.00  0.00    +0.000 NA
ATOM      3  N   UNL     1      -4.025  12.688  19.939  0.00  0.00    +0.000 N 
ATOM      4  C   UNL     1      -2.707  13.181  19.996  0.00  0.00    +0.000 A 
ATOM      5  C   UNL     1      -2.022  12.483  18.998  0.00  0.00    +0.000 A 
ENDROOT
BRANCH   3   6
ATOM      6  C   UNL     1      -5.178  13.238  20.585  0.00  0.00    +0.000 A 
ATOM      7  C   UNL     1      -5.858  14.329  20.038  0.00  0.00    +0.000 A 
ATOM      8  C   UNL     1      -7.040  14.793  20.653  0.00  0.00    +0.000 A 
ATOM      9  C   UNL     1      -7.494  14.204  21.830  0.00  0.00    +0.000 A 
ATOM     10  C   UNL     1      -6.793  13.138  22.389  0.00  0.00    +0.000 A 
ATOM     11 CL   UNL     1      -7.340  12.412  23.847  0.00  0.00    +0.000 Cl
ATOM     12  C   UNL     1      -5.645  12.650  21.768  0.00  0.00    +0.000 A 
ENDBRANCH   3   6
BRANCH   4  13
ATOM     13  N   UNL     1      -2.284  14.134  20.906  0.00  0.00    +0.000 N 
ATOM     14  C   UNL     1      -1.962  15.507  20.527  0.00  0.00    +0.000 C 
ATOM     15  C   UNL     1      -0.521  15.856  20.935  0.00  0.00    +0.000 C 
ATOM     16  N   UNL     1      -0.233  15.670  22.374  0.00  0.00    +0.000 NA
ATOM     17  C   UNL     1       1.172  15.981  22.652  0.00  0.00    +0.000 C 
ATOM     18  C   UNL     1      -0.528  14.252  22.702  0.00  0.00    +0.000 C 
ATOM     19  C   UNL     1      -1.972  13.827  22.326  0.00  0.00    +0.000 C 
ENDBRANCH   4  13
BRANCH   1  20
ATOM     20  C   UNL     1      -2.706  10.495  17.393  0.00  0.00    +0.000 C 
BRANCH  20  22
ATOM     21  C   UNL     1      -3.183   9.845  14.851  0.00  0.00    +0.000 C 
ATOM     22  C   UNL     1      -2.603  10.812  15.884  0.00  0.00    +0.000 C 
ENDBRANCH  20  22
ENDBRANCH   1  20
BRANCH   5  23
ATOM     23  C   UNL     1      -0.590  12.544  18.575  0.00  0.00    +0.000 C 
BRANCH  23  24
ATOM     24  N   UNL     1       0.352  12.149  19.615  0.00  0.00    +0.000 NA
BRANCH  24  25
ATOM     25  C   UNL     1       1.677  12.772  19.479  0.00  0.00    +0.000 C 
ATOM     26  C   UNL     1       1.761  13.982  18.540  0.00  0.00    +0.000 C 
ATOM     27  C   UNL     1       2.382  13.102  20.784  0.00  0.00    +0.000 C 
ENDBRANCH  24  25
BRANCH  24  28
ATOM     28  C   UNL     1       0.177  10.820  20.207  0.00  0.00    +0.000 C 
BRANCH  28  29
ATOM     29  C   UNL     1       0.936   9.574  19.791  0.00  0.00    +0.000 A 
ATOM     30  C   UNL     1       1.130   8.599  20.797  0.00  0.00    +0.000 A 
ATOM     31  C   UNL     1       1.853   7.419  20.573  0.00  0.00    +0.000 A 
ATOM     32  C   UNL     1       2.419   7.181  19.329  0.00  0.00    +0.000 A 
ATOM     33  C   UNL     1       2.218   8.104  18.309  0.00  0.00    +0.000 A 
ATOM     34  C   UNL     1       1.478   9.266  18.537  0.00  0.00    +0.000 A 
ATOM     35  F   UNL     1       1.272  10.048  17.477  0.00  0.00    +0.000 F 
ENDBRANCH  28  29
ENDBRANCH  24  28
ENDBRANCH  23  24
ENDBRANCH   5  23
TORSDOF 9
ENDMDL
MODEL 4
REMARK VINA RESULT:      -6.4      5.449      8.324
REMARK  Name = 
REMARK  13 active torsions:
REMARK  status: ('A' for Active; 'I' for Inactive)
REMARK    1  A    between atoms: C_1  and  C_2
REMARK    2  A    between atoms: C_2  and  C_3
REMARK    3  A    between atoms: C_3  and  C_4
REMARK    4  A    between atoms: N_6  and  C_7
REMARK    5  A    between atoms: C_14  and  N_15
REMARK    6  A    between atoms: N_18  and  C_19
REMARK    7  A    between atoms: C_22  and  C_23
REMARK    8  A    between atoms: C_23  and  N_24
REMARK    9  A    between atoms: N_24  and  C_25
REMARK   10  A    between atoms: N_24  and  C_33
REMARK   11  A    between atoms: C_25  and  C_26
REMARK   12  A    between atoms: C_33  and  C_34
REMARK   13  A    between atoms: C_33  and  C_35
REMARK                            x       y       z     vdW  Elec       q    Type
REMARK                         _______ _______ _______ _____ _____    ______ ____
ROOT
ATOM      1  C   UNL     1      -2.167  11.880  18.694  0.00  0.00    +0.000 A 
ATOM      2  N   UNL     1      -3.347  11.578  19.265  0.00  0.00    +0.000 NA
ATOM      3  N   UNL     1      -3.633  12.639  20.073  0.00  0.00    +0.000 N 
ATOM      4  C   UNL     1      -2.547  13.527  20.192  0.00  0.00    +0.000 A 
ATOM      5  C   UNL     1      -1.596  13.051  19.284  0.00  0.00    +0.000 A 
ENDROOT
BRANCH   3   6
ATOM      6  C   UNL     1      -4.950  12.815  20.605  0.00  0.00    +0.000 A 
ATOM      7  C   UNL     1      -6.027  13.134  19.774  0.00  0.00    +0.000 A 
ATOM      8  C   UNL     1      -7.326  13.216  20.318  0.00  0.00    +0.000 A 
ATOM      9  C   UNL     1      -7.527  13.036  21.684  0.00  0.00    +0.000 A 
ATOM     10  C   UNL     1      -6.444  12.750  22.513  0.00  0.00    +0.000 A 
ATOM     11 CL   UNL     1      -6.680  12.537  24.202  0.00  0.00    +0.000 Cl
ATOM     12  C   UNL     1      -5.162  12.631  21.979  0.00  0.00    +0.000 A 
ENDBRANCH   3   6
BRANCH   4  13
ATOM     13  N   UNL     1      -2.522  14.593  21.074  0.00  0.00    +0.000 N 
ATOM     14  C   UNL     1      -1.930  14.507  22.406  0.00  0.00    +0.000 C 
ATOM     15  C   UNL     1      -2.966  14.872  23.483  0.00  0.00    +0.000 C 
ATOM     16  N   UNL     1      -3.580  16.207  23.309  0.00  0.00    +0.000 NA
ATOM     17  C   UNL     1      -4.584  16.441  24.351  0.00  0.00    +0.000 C 
ATOM     18  C   UNL     1      -4.210  16.231  21.964  0.00  0.00    +0.000 C 
ATOM     19  C   UNL     1      -3.220  15.880  20.822  0.00  0.00    +0.000 C 
ENDBRANCH   4  13
BRANCH   1  20
ATOM     20  C   UNL     1      -1.486  10.900  17.750  0.00  0.00    +0.000 C 
BRANCH  20  22
ATOM     21  C   UNL     1      -3.047  10.761  15.592  0.00  0.00    +0.000 C 
ATOM     22  C   UNL     1      -2.292  10.068  16.728  0.00  0.00    +0.000 C 
ENDBRANCH  20  22
ENDBRANCH   1  20
BRANCH   5  23
ATOM     23  C   UNL     1      -0.227  13.551  18.958  0.00  0.00    +0.000 C 
BRANCH  23  24
ATOM     24  N   UNL     1       0.772  13.247  19.975  0.00  0.00    +0.000 NA
BRANCH  24  25
ATOM     25  C   UNL     1       1.624  14.393  20.327  0.00  0.00    +0.000 C 
ATOM     26  C   UNL     1       1.492  14.916  21.762  0.00  0.00    +0.000 C 
ATOM     27  C   UNL     1       3.097  14.243  19.983  0.00  0.00    +0.000 C 
ENDBRANCH  24  25
BRANCH  24  28
ATOM     28  C   UNL     1       1.261  11.867  20.042  0.00  0.00    +0.000 C 
BRANCH  28  29
ATOM     29  C   UNL     1       0.645  10.763  20.880  0.00  0.00    +0.000 A 
ATOM     30  C   UNL     1      -0.089  11.180  22.016  0.00  0.00    +0.000 A 
ATOM     31  C   UNL     1      -0.675  10.272  22.908  0.00  0.00    +0.000 A 
ATOM     32  C   UNL     1      -0.534   8.908  22.699  0.00  0.00    +0.000 A 
ATOM     33  C   UNL     1       0.153   8.466  21.574  0.00  0.00    +0.000 A 
ATOM     34  C   UNL     1       0.715   9.379  20.679  0.00  0.00    +0.000 A 
ATOM     35  F   UNL     1       1.282   8.860  19.591  0.00  0.00    +0.000 F 
ENDBRANCH  28  29
ENDBRANCH  24  28
ENDBRANCH  23  24
ENDBRANCH   5  23
TORSDOF 9
ENDMDL
MODEL 5
REMARK VINA RESULT:      -6.4      4.222      9.780
REMARK  Name = 
REMARK  13 active torsions:
REMARK  status: ('A' for Active; 'I' for Inactive)
REMARK    1  A    between atoms: C_1  and  C_2
REMARK    2  A    between atoms: C_2  and  C_3
REMARK    3  A    between atoms: C_3  and  C_4
REMARK    4  A    between atoms: N_6  and  C_7
REMARK    5  A    between atoms: C_14  and  N_15
REMARK    6  A    between atoms: N_18  and  C_19
REMARK    7  A    between atoms: C_22  and  C_23
REMARK    8  A    between atoms: C_23  and  N_24
REMARK    9  A    between atoms: N_24  and  C_25
REMARK   10  A    between atoms: N_24  and  C_33
REMARK   11  A    between atoms: C_25  and  C_26
REMARK   12  A    between atoms: C_33  and  C_34
REMARK   13  A    between atoms: C_33  and  C_35
REMARK                            x       y       z     vdW  Elec       q    Type
REMARK                         _______ _______ _______ _____ _____    ______ ____
ROOT
ATOM      1  C   UNL     1      -1.928  12.049  19.386  0.00  0.00    +0.000 A 
ATOM      2  N   UNL     1      -1.458  10.799  19.227  0.00  0.00    +0.000 NA
ATOM      3  N   UNL     1      -0.110  10.899  19.409  0.00  0.00    +0.000 N 
ATOM      4  C   UNL     1       0.321  12.238  19.473  0.00  0.00    +0.000 A 
ATOM      5  C   UNL     1      -0.856  12.991  19.478  0.00  0.00    +0.000 A 
ENDROOT
BRANCH   3   6
ATOM      6  C   UNL     1       0.687   9.728  19.618  0.00  0.00    +0.000 A 
ATOM      7  C   UNL     1       0.653   9.041  20.835  0.00  0.00    +0.000 A 
ATOM      8  C   UNL     1       1.384   7.844  20.979  0.00  0.00    +0.000 A 
ATOM      9  C   UNL     1       2.180   7.378  19.935  0.00  0.00    +0.000 A 
ATOM     10  C   UNL     1       2.235   8.086  18.736  0.00  0.00    +0.000 A 
ATOM     11 CL   UNL     1       3.222   7.525  17.446  0.00  0.00    +0.000 Cl
ATOM     12  C   UNL     1       1.488   9.250  18.572  0.00  0.00    +0.000 A 
ENDBRANCH   3   6
BRANCH   4  13
ATOM     13  N   UNL     1       1.653  12.614  19.492  0.00  0.00    +0.000 N 
ATOM     14  C   UNL     1       2.342  13.033  20.710  0.00  0.00    +0.000 C 
ATOM     15  C   UNL     1       2.932  14.443  20.539  0.00  0.00    +0.000 C 
ATOM     16  N   UNL     1       3.852  14.582  19.388  0.00  0.00    +0.000 NA
ATOM     17  C   UNL     1       4.321  15.967  19.281  0.00  0.00    +0.000 C 
ATOM     18  C   UNL     1       3.096  14.193  18.170  0.00  0.00    +0.000 C 
ATOM     19  C   UNL     1       2.476  12.774  18.266  0.00  0.00    +0.000 C 
ENDBRANCH   4  13
BRANCH   1  20
ATOM     20  C   UNL     1      -3.408  12.352  19.207  0.00  0.00    +0.000 C 
BRANCH  20  22
ATOM     21  C   UNL     1      -5.499  12.431  20.860  0.00  0.00    +0.000 C 
ATOM     22  C   UNL     1      -4.226  13.071  20.302  0.00  0.00    +0.000 C 
ENDBRANCH  20  22
ENDBRANCH   1  20
BRANCH   5  23
ATOM     23  C   UNL     1      -1.065  14.470  19.516  0.00  0.00    +0.000 C 
BRANCH  23  24
ATOM     24  N   UNL     1      -0.924  15.054  20.844  0.00  0.00    +0.000 NA
BRANCH  24  25
ATOM     25  C   UNL     1      -0.267  16.370  20.844  0.00  0.00    +0.000 C 
ATOM     26  C   UNL     1      -1.124  17.553  20.378  0.00  0.00    +0.000 C 
ATOM     27  C   UNL     1       0.446  16.745  22.132  0.00  0.00    +0.000 C 
ENDBRANCH  24  25
BRANCH  24  28
ATOM     28  C   UNL     1      -0.805  14.128  21.973  0.00  0.00    +0.000 C 
BRANCH  28  29
ATOM     29  C   UNL     1      -1.964  13.627  22.815  0.00  0.00    +0.000 A 
ATOM     30  C   UNL     1      -2.807  14.620  23.367  0.00  0.00    +0.000 A 
ATOM     31  C   UNL     1      -3.889  14.310  24.203  0.00  0.00    +0.000 A 
ATOM     32  C   UNL     1      -4.155  12.988  24.526  0.00  0.00    +0.000 A 
ATOM     33  C   UNL     1      -3.365  11.986  23.974  0.00  0.00    +0.000 A 
ATOM     34  C   UNL     1      -2.303  12.304  23.124  0.00  0.00    +0.000 A 
ATOM     35  F   UNL     1      -1.657  11.273  22.582  0.00  0.00    +0.000 F 
ENDBRANCH  28  29
ENDBRANCH  24  28
ENDBRANCH  23  24
ENDBRANCH   5  23
TORSDOF 9
ENDMDL
MODEL 6
REMARK VINA RESULT:      -6.4      4.951      8.705
REMARK  Name = 
REMARK  13 active torsions:
REMARK  status: ('A' for Active; 'I' for Inactive)
REMARK    1  A    between atoms: C_1  and  C_2
REMARK    2  A    between atoms: C_2  and  C_3
REMARK    3  A    between atoms: C_3  and  C_4
REMARK    4  A    between atoms: N_6  and  C_7
REMARK    5  A    between atoms: C_14  and  N_15
REMARK    6  A    between atoms: N_18  and  C_19
REMARK    7  A    between atoms: C_22  and  C_23
REMARK    8  A    between atoms: C_23  and  N_24
REMARK    9  A    between atoms: N_24  and  C_25
REMARK   10  A    between atoms: N_24  and  C_33
REMARK   11  A    between atoms: C_25  and  C_26
REMARK   12  A    between atoms: C_33  and  C_34
REMARK   13  A    between atoms: C_33  and  C_35
REMARK                            x       y       z     vdW  Elec       q    Type
REMARK                         _______ _______ _______ _____ _____    ______ ____
ROOT
ATOM      1  C   UNL     1      -0.579  11.217  22.269  0.00  0.00    +0.000 A 
ATOM      2  N   UNL     1      -1.110  11.866  23.320  0.00  0.00    +0.000 NA
ATOM      3  N   UNL     1      -1.108  13.182  22.963  0.00  0.00    +0.000 N 
ATOM      4  C   UNL     1      -0.383  13.412  21.777  0.00  0.00    +0.000 A 
ATOM      5  C   UNL     1      -0.052  12.137  21.310  0.00  0.00    +0.000 A 
ENDROOT
BRANCH   3   6
ATOM      6  C   UNL     1      -1.876  14.139  23.700  0.00  0.00    +0.000 A 
ATOM      7  C   UNL     1      -3.258  14.245  23.522  0.00  0.00    +0.000 A 
ATOM      8  C   UNL     1      -3.997  15.138  24.326  0.00  0.00    +0.000 A 
ATOM      9  C   UNL     1      -3.347  15.951  25.251  0.00  0.00    +0.000 A 
ATOM     10  C   UNL     1      -1.965  15.864  25.400  0.00  0.00    +0.000 A 
ATOM     11 CL   UNL     1      -1.153  16.871  26.532  0.00  0.00    +0.000 Cl
ATOM     12  C   UNL     1      -1.231  14.959  24.636  0.00  0.00    +0.000 A 
ENDBRANCH   3   6
BRANCH   4  13
ATOM     13  N   UNL     1      -0.094  14.674  21.289  0.00  0.00    +0.000 N 
ATOM     14  C   UNL     1      -0.892  15.328  20.255  0.00  0.00    +0.000 C 
ATOM     15  C   UNL     1      -0.014  15.699  19.049  0.00  0.00    +0.000 C 
ATOM     16  N   UNL     1       1.146  16.556  19.380  0.00  0.00    +0.000 NA
ATOM     17  C   UNL     1       1.944  16.814  18.178  0.00  0.00    +0.000 C 
ATOM     18  C   UNL     1       1.952  15.831  20.395  0.00  0.00    +0.000 C 
ATOM     19  C   UNL     1       1.133  15.430  21.650  0.00  0.00    +0.000 C 
ENDBRANCH   4  13
BRANCH   1  20
ATOM     20  C   UNL     1      -0.368   9.710  22.312  0.00  0.00    +0.000 C 
BRANCH  20  22
ATOM     21  C   UNL     1       1.302   7.939  21.224  0.00  0.00    +0.000 C 
ATOM     22  C   UNL     1       1.041   9.086  22.201  0.00  0.00    +0.000 C 
ENDBRANCH  20  22
ENDBRANCH   1  20
BRANCH   5  23
ATOM     23  C   UNL     1       0.726  11.714  20.107  0.00  0.00    +0.000 C 
BRANCH  23  24
ATOM     24  N   UNL     1      -0.086  11.102  19.062  0.00  0.00    +0.000 NA
BRANCH  24  25
ATOM     25  C   UNL     1       0.520   9.899  18.472  0.00  0.00    +0.000 C 
ATOM     26  C   UNL     1      -0.289   9.209  17.366  0.00  0.00    +0.000 C 
ATOM     27  C   UNL     1       1.962  10.048  18.018  0.00  0.00    +0.000 C 
ENDBRANCH  24  25
BRANCH  24  28
ATOM     28  C   UNL     1      -0.961  11.988  18.289  0.00  0.00    +0.000 C 
BRANCH  28  29
ATOM     29  C   UNL     1      -2.473  11.880  18.225  0.00  0.00    +0.000 A 
ATOM     30  C   UNL     1      -3.174  12.242  19.399  0.00  0.00    +0.000 A 
ATOM     31  C   UNL     1      -4.568  12.149  19.503  0.00  0.00    +0.000 A 
ATOM     32  C   UNL     1      -5.311  11.674  18.432  0.00  0.00    +0.000 A 
ATOM     33  C   UNL     1      -4.656  11.341  17.252  0.00  0.00    +0.000 A 
ATOM     34  C   UNL     1      -3.268  11.459  17.151  0.00  0.00    +0.000 A 
ATOM     35  F   UNL     1      -2.742  11.193  15.956  0.00  0.00    +0.000 F 
ENDBRANCH  28  29
ENDBRANCH  24  28
ENDBRANCH  23  24
ENDBRANCH   5  23
TORSDOF 9
ENDMDL
MODEL 7
REMARK VINA RESULT:      -6.3      3.031      5.750
REMARK  Name = 
REMARK  13 active torsions:
REMARK  status: ('A' for Active; 'I' for Inactive)
REMARK    1  A    between atoms: C_1  and  C_2
REMARK    2  A    between atoms: C_2  and  C_3
REMARK    3  A    between atoms: C_3  and  C_4
REMARK    4  A    between atoms: N_6  and  C_7
REMARK    5  A    between atoms: C_14  and  N_15
REMARK    6  A    between atoms: N_18  and  C_19
REMARK    7  A    between atoms: C_22  and  C_23
REMARK    8  A    between atoms: C_23  and  N_24
REMARK    9  A    between atoms: N_24  and  C_25
REMARK   10  A    between atoms: N_24  and  C_33
REMARK   11  A    between atoms: C_25  and  C_26
REMARK   12  A    between atoms: C_33  and  C_34
REMARK   13  A    between atoms: C_33  and  C_35
REMARK                            x       y       z     vdW  Elec       q    Type
REMARK                         _______ _______ _______ _____ _____    ______ ____
ROOT
ATOM      1  C   UNL     1      -1.229  10.969  18.598  0.00  0.00    +0.000 A 
ATOM      2  N   UNL     1      -1.712  12.138  19.057  0.00  0.00    +0.000 NA
ATOM      3  N   UNL     1      -0.613  12.914  19.281  0.00  0.00    +0.000 N 
ATOM      4  C   UNL     1       0.586  12.183  19.174  0.00  0.00    +0.000 A 
ATOM      5  C   UNL     1       0.195  10.923  18.712  0.00  0.00    +0.000 A 
ENDROOT
BRANCH   3   6
ATOM      6  C   UNL     1      -0.745  14.325  19.481  0.00  0.00    +0.000 A 
ATOM      7  C   UNL     1      -0.258  15.235  18.539  0.00  0.00    +0.000 A 
ATOM      8  C   UNL     1      -0.480  16.616  18.725  0.00  0.00    +0.000 A 
ATOM      9  C   UNL     1      -1.131  17.073  19.867  0.00  0.00    +0.000 A 
ATOM     10  C   UNL     1      -1.586  16.163  20.818  0.00  0.00    +0.000 A 
ATOM     11 CL   UNL     1      -2.381  16.719  22.237  0.00  0.00    +0.000 Cl
ATOM     12  C   UNL     1      -1.403  14.795  20.626  0.00  0.00    +0.000 A 
ENDBRANCH   3   6
BRANCH   4  13
ATOM     13  N   UNL     1       1.827  12.695  19.510  0.00  0.00    +0.000 N 
ATOM     14  C   UNL     1       2.181  13.091  20.870  0.00  0.00    +0.000 C 
ATOM     15  C   UNL     1       2.622  14.564  20.907  0.00  0.00    +0.000 C 
ATOM     16  N   UNL     1       3.746  14.885  20.000  0.00  0.00    +0.000 NA
ATOM     17  C   UNL     1       4.059  16.315  20.070  0.00  0.00    +0.000 C 
ATOM     18  C   UNL     1       3.324  14.512  18.626  0.00  0.00    +0.000 C 
ATOM     19  C   UNL     1       2.872  13.032  18.509  0.00  0.00    +0.000 C 
ENDBRANCH   4  13
BRANCH   1  20
ATOM     20  C   UNL     1      -2.166   9.813  18.278  0.00  0.00    +0.000 C 
BRANCH  20  22
ATOM     21  C   UNL     1      -2.666  10.280  15.701  0.00  0.00    +0.000 C 
ATOM     22  C   UNL     1      -3.154   9.876  17.093  0.00  0.00    +0.000 C 
ENDBRANCH  20  22
ENDBRANCH   1  20
BRANCH   5  23
ATOM     23  C   UNL     1       1.003   9.701  18.417  0.00  0.00    +0.000 C 
BRANCH  23  24
ATOM     24  N   UNL     1       1.140   8.794  19.550  0.00  0.00    +0.000 NA
BRANCH  24  25
ATOM     25  C   UNL     1       0.595   9.331  20.805  0.00  0.00    +0.000 C 
ATOM     26  C   UNL     1      -0.617   8.592  21.385  0.00  0.00    +0.000 C 
ATOM     27  C   UNL     1       1.610   9.570  21.911  0.00  0.00    +0.000 C 
ENDBRANCH  24  25
BRANCH  24  28
ATOM     28  C   UNL     1       2.275   7.867  19.531  0.00  0.00    +0.000 C 
BRANCH  28  29
ATOM     29  C   UNL     1       2.163   6.356  19.459  0.00  0.00    +0.000 A 
ATOM     30  C   UNL     1       1.542   5.724  20.562  0.00  0.00    +0.000 A 
ATOM     31  C   UNL     1       1.411   4.332  20.657  0.00  0.00    +0.000 A 
ATOM     32  C   UNL     1       1.912   3.520  19.650  0.00  0.00    +0.000 A 
ATOM     33  C   UNL     1       2.498   4.111  18.537  0.00  0.00    +0.000 A 
ATOM     34  C   UNL     1       2.604   5.500  18.441  0.00  0.00    +0.000 A 
ATOM     35  F   UNL     1       3.107   5.973  17.302  0.00  0.00    +0.000 F 
ENDBRANCH  28  29
ENDBRANCH  24  28
ENDBRANCH  23  24
ENDBRANCH   5  23
TORSDOF 9
ENDMDL
MODEL 8
REMARK VINA RESULT:      -6.3      4.905      8.537
REMARK  Name = 
REMARK  13 active torsions:
REMARK  status: ('A' for Active; 'I' for Inactive)
REMARK    1  A    between atoms: C_1  and  C_2
REMARK    2  A    between atoms: C_2  and  C_3
REMARK    3  A    between atoms: C_3  and  C_4
REMARK    4  A    between atoms: N_6  and  C_7
REMARK    5  A    between atoms: C_14  and  N_15
REMARK    6  A    between atoms: N_18  and  C_19
REMARK    7  A    between atoms: C_22  and  C_23
REMARK    8  A    between atoms: C_23  and  N_24
REMARK    9  A    between atoms: N_24  and  C_25
REMARK   10  A    between atoms: N_24  and  C_33
REMARK   11  A    between atoms: C_25  and  C_26
REMARK   12  A    between atoms: C_33  and  C_34
REMARK   13  A    between atoms: C_33  and  C_35
REMARK                            x       y       z     vdW  Elec       q    Type
REMARK                         _______ _______ _______ _____ _____    ______ ____
ROOT
ATOM      1  C   UNL     1      -1.045  11.406  22.504  0.00  0.00    +0.000 A 
ATOM      2  N   UNL     1      -2.035  11.952  23.232  0.00  0.00    +0.000 NA
ATOM      3  N   UNL     1      -2.144  13.234  22.780  0.00  0.00    +0.000 N 
ATOM      4  C   UNL     1      -1.091  13.585  21.914  0.00  0.00    +0.000 A 
ATOM      5  C   UNL     1      -0.382  12.397  21.714  0.00  0.00    +0.000 A 
ENDROOT
BRANCH   3   6
ATOM      6  C   UNL     1      -3.291  14.026  23.104  0.00  0.00    +0.000 A 
ATOM      7  C   UNL     1      -4.564  13.673  22.647  0.00  0.00    +0.000 A 
ATOM      8  C   UNL     1      -5.684  14.427  23.055  0.00  0.00    +0.000 A 
ATOM      9  C   UNL     1      -5.518  15.549  23.862  0.00  0.00    +0.000 A 
ATOM     10  C   UNL     1      -4.243  15.915  24.287  0.00  0.00    +0.000 A 
ATOM     11 CL   UNL     1      -4.026  17.306  25.274  0.00  0.00    +0.000 Cl
ATOM     12  C   UNL     1      -3.134  15.156  23.919  0.00  0.00    +0.000 A 
ENDBRANCH   3   6
BRANCH   4  13
ATOM     13  N   UNL     1      -0.880  14.870  21.446  0.00  0.00    +0.000 N 
ATOM     14  C   UNL     1      -1.535  15.399  20.253  0.00  0.00    +0.000 C 
ATOM     15  C   UNL     1      -0.492  15.876  19.229  0.00  0.00    +0.000 C 
ATOM     16  N   UNL     1       0.455  16.887  19.751  0.00  0.00    +0.000 NA
ATOM     17  C   UNL     1       1.435  17.240  18.720  0.00  0.00    +0.000 C 
ATOM     18  C   UNL     1       1.131  16.289  20.930  0.00  0.00    +0.000 C 
ATOM     19  C   UNL     1       0.139  15.791  22.014  0.00  0.00    +0.000 C 
ENDBRANCH   4  13
BRANCH   1  20
ATOM     20  C   UNL     1      -0.592   9.975  22.757  0.00  0.00    +0.000 C 
BRANCH  20  22
ATOM     21  C   UNL     1       1.088   8.400  21.412  0.00  0.00    +0.000 C 
ATOM     22  C   UNL     1      -0.308   8.997  21.596  0.00  0.00    +0.000 C 
ENDBRANCH  20  22
ENDBRANCH   1  20
BRANCH   5  23
ATOM     23  C   UNL     1       0.847  12.119  20.911  0.00  0.00    +0.000 C 
BRANCH  23  24
ATOM     24  N   UNL     1       0.576  11.637  19.562  0.00  0.00    +0.000 NA
BRANCH  24  25
ATOM     25  C   UNL     1       1.767  11.124  18.869  0.00  0.00    +0.000 C 
ATOM     26  C   UNL     1       1.594   9.795  18.124  0.00  0.00    +0.000 C 
ATOM     27  C   UNL     1       2.475  12.117  17.962  0.00  0.00    +0.000 C 
ENDBRANCH  24  25
BRANCH  24  28
ATOM     28  C   UNL     1      -0.534  12.261  18.838  0.00  0.00    +0.000 C 
BRANCH  28  29
ATOM     29  C   UNL     1      -1.849  11.582  18.506  0.00  0.00    +0.000 A 
ATOM     30  C   UNL     1      -3.013  12.184  19.039  0.00  0.00    +0.000 A 
ATOM     31  C   UNL     1      -4.293  11.643  18.855  0.00  0.00    +0.000 A 
ATOM     32  C   UNL     1      -4.449  10.467  18.136  0.00  0.00    +0.000 A 
ATOM     33  C   UNL     1      -3.329   9.868  17.571  0.00  0.00    +0.000 A 
ATOM     34  C   UNL     1      -2.061  10.428  17.741  0.00  0.00    +0.000 A 
ATOM     35  F   UNL     1      -1.063   9.827  17.094  0.00  0.00    +0.000 F 
ENDBRANCH  28  29
ENDBRANCH  24  28
ENDBRANCH  23  24
ENDBRANCH   5  23
TORSDOF 9
ENDMDL
MODEL 9
REMARK VINA RESULT:      -6.3      5.298      8.707
REMARK  Name = 
REMARK  13 active torsions:
REMARK  status: ('A' for Active; 'I' for Inactive)
REMARK    1  A    between atoms: C_1  and  C_2
REMARK    2  A    between atoms: C_2  and  C_3
REMARK    3  A    between atoms: C_3  and  C_4
REMARK    4  A    between atoms: N_6  and  C_7
REMARK    5  A    between atoms: C_14  and  N_15
REMARK    6  A    between atoms: N_18  and  C_19
REMARK    7  A    between atoms: C_22  and  C_23
REMARK    8  A    between atoms: C_23  and  N_24
REMARK    9  A    between atoms: N_24  and  C_25
REMARK   10  A    between atoms: N_24  and  C_33
REMARK   11  A    between atoms: C_25  and  C_26
REMARK   12  A    between atoms: C_33  and  C_34
REMARK   13  A    between atoms: C_33  and  C_35
REMARK                            x       y       z     vdW  Elec       q    Type
REMARK                         _______ _______ _______ _____ _____    ______ ____
ROOT
ATOM      1  C   UNL     1      -1.187  11.597  22.485  0.00  0.00    +0.000 A 
ATOM      2  N   UNL     1      -2.285  11.938  23.183  0.00  0.00    +0.000 NA
ATOM      3  N   UNL     1      -2.534  13.235  22.845  0.00  0.00    +0.000 N 
ATOM      4  C   UNL     1      -1.484  13.803  22.098  0.00  0.00    +0.000 A 
ATOM      5  C   UNL     1      -0.613  12.739  21.844  0.00  0.00    +0.000 A 
ENDROOT
BRANCH   3   6
ATOM      6  C   UNL     1      -3.795  13.839  23.152  0.00  0.00    +0.000 A 
ATOM      7  C   UNL     1      -3.872  14.970  23.970  0.00  0.00    +0.000 A 
ATOM      8  C   UNL     1      -5.120  15.592  24.184  0.00  0.00    +0.000 A 
ATOM      9  C   UNL     1      -6.277  15.049  23.630  0.00  0.00    +0.000 A 
ATOM     10  C   UNL     1      -6.198  13.903  22.843  0.00  0.00    +0.000 A 
ATOM     11 CL   UNL     1      -7.622  13.220  22.164  0.00  0.00    +0.000 Cl
ATOM     12  C   UNL     1      -4.965  13.303  22.596  0.00  0.00    +0.000 A 
ENDBRANCH   3   6
BRANCH   4  13
ATOM     13  N   UNL     1      -1.416  15.145  21.770  0.00  0.00    +0.000 N 
ATOM     14  C   UNL     1      -2.056  15.705  20.583  0.00  0.00    +0.000 C 
ATOM     15  C   UNL     1      -1.020  16.412  19.693  0.00  0.00    +0.000 C 
ATOM     16  N   UNL     1      -0.254  17.476  20.379  0.00  0.00    +0.000 NA
ATOM     17  C   UNL     1       0.737  18.054  19.465  0.00  0.00    +0.000 C 
ATOM     18  C   UNL     1       0.418  16.852  21.547  0.00  0.00    +0.000 C 
ATOM     19  C   UNL     1      -0.569  16.124  22.498  0.00  0.00    +0.000 C 
ENDBRANCH   4  13
BRANCH   1  20
ATOM     20  C   UNL     1      -0.565  10.217  22.639  0.00  0.00    +0.000 C 
BRANCH  20  22
ATOM     21  C   UNL     1       0.959   8.835  20.942  0.00  0.00    +0.000 C 
ATOM     22  C   UNL     1      -0.426   9.253  21.440  0.00  0.00    +0.000 C 
ENDBRANCH  20  22
ENDBRANCH   1  20
BRANCH   5  23
ATOM     23  C   UNL     1       0.691  12.702  21.115  0.00  0.00    +0.000 C 
BRANCH  23  24
ATOM     24  N   UNL     1       0.572  12.344  19.707  0.00  0.00    +0.000 NA
BRANCH  24  25
ATOM     25  C   UNL     1       1.864  12.244  19.012  0.00  0.00    +0.000 C 
ATOM     26  C   UNL     1       2.104  10.955  18.216  0.00  0.00    +0.000 C 
ATOM     27  C   UNL     1       2.239  13.440  18.153  0.00  0.00    +0.000 C 
ENDBRANCH  24  25
BRANCH  24  28
ATOM     28  C   UNL     1      -0.652  12.753  19.013  0.00  0.00    +0.000 C 
BRANCH  28  29
ATOM     29  C   UNL     1      -1.767  11.817  18.588  0.00  0.00    +0.000 A 
ATOM     30  C   UNL     1      -1.382  10.709  17.797  0.00  0.00    +0.000 A 
ATOM     31  C   UNL     1      -2.308   9.786  17.292  0.00  0.00    +0.000 A 
ATOM     32  C   UNL     1      -3.660   9.950  17.552  0.00  0.00    +0.000 A 
ATOM     33  C   UNL     1      -4.068  11.011  18.353  0.00  0.00    +0.000 A 
ATOM     34  C   UNL     1      -3.135  11.912  18.871  0.00  0.00    +0.000 A 
ATOM     35  F   UNL     1      -3.614  12.845  19.692  0.00  0.00    +0.000 F 
ENDBRANCH  28  29
ENDBRANCH  24  28
ENDBRANCH  23  24
ENDBRANCH   5  23
TORSDOF 9
ENDMDL
