MODEL 1
REMARK VINA RESULT:      -8.6      0.000      0.000
REMARK  Name = 
REMARK  7 active torsions:
REMARK  status: ('A' for Active; 'I' for Inactive)
REMARK    1  A    between atoms: C_2  and  C_3
REMARK    2  A    between atoms: C_3  and  O_4
REMARK    3  A    between atoms: O_4  and  C_5
REMARK    4  A    between atoms: C_8  and  C_9
REMARK    5  A    between atoms: N_21  and  C_22
REMARK    6  A    between atoms: C_25  and  C_26
REMARK    7  A    between atoms: C_26  and  O_28
REMARK                            x       y       z     vdW  Elec       q    Type
REMARK                         _______ _______ _______ _____ _____    ______ ____
ROOT
ATOM      1  O   UNL     1       7.379   7.982  17.194  0.00  0.00    +0.000 OA
ENDROOT
BRANCH   1   2
ATOM      2  C   UNL     1       6.479   7.067  17.680  0.00  0.00    +0.000 A 
ATOM      3  C   UNL     1       5.174   7.201  17.220  0.00  0.00    +0.000 A 
ATOM      4  C   UNL     1       4.169   6.333  17.666  0.00  0.00    +0.000 A 
ATOM      5  C   UNL     1       4.442   5.295  18.574  0.00  0.00    +0.000 A 
ATOM      6  C   UNL     1       5.772   5.158  19.001  0.00  0.00    +0.000 A 
ATOM      7  C   UNL     1       6.778   6.028  18.559  0.00  0.00    +0.000 A 
BRANCH   5   8
ATOM      8  C   UNL     1       3.356   4.345  19.103  0.00  0.00    +0.000 C 
ATOM      9  C   UNL     1       2.207   4.106  18.077  0.00  0.00    +0.000 C 
ATOM     10  C   UNL     1       1.131   3.165  18.634  0.00  0.00    +0.000 C 
ATOM     11  C   UNL     1       1.773   1.813  18.971  0.00  0.00    +0.000 C 
ATOM     12  C   UNL     1       2.877   2.007  20.019  0.00  0.00    +0.000 C 
ATOM     13  C   UNL     1       2.269   2.627  21.287  0.00  0.00    +0.000 C 
ATOM     14  C   UNL     1       1.631   3.986  20.955  0.00  0.00    +0.000 C 
ATOM     15  C   UNL     1       0.531   3.785  19.903  0.00  0.00    +0.000 C 
ATOM     16  C   UNL     1       2.710   4.931  20.395  0.00  0.00    +0.000 C 
ATOM     17  C   UNL     1       3.958   2.952  19.457  0.00  0.00    +0.000 C 
ENDBRANCH   5   8
ENDBRANCH   1   2
BRANCH   1  18
ATOM     18  C   UNL     1       8.466   8.235  18.073  0.00  0.00    +0.000 C 
BRANCH  18  20
ATOM     19  O   UNL     1       8.134  10.572  17.750  0.00  0.00    +0.000 OA
ATOM     20  C   UNL     1       8.688   9.703  18.424  0.00  0.00    +0.000 C 
ATOM     21  N   UNL     1       9.517   9.937  19.505  0.00  0.00    +0.000 N 
ATOM     22  H   UNL     1      10.051   9.140  19.841  0.00  0.00    +0.000 HD
BRANCH  21  23
ATOM     23  C   UNL     1       9.730  11.191  20.114  0.00  0.00    +0.000 A 
ATOM     24  C   UNL     1      10.687  12.094  19.643  0.00  0.00    +0.000 A 
ATOM     25  C   UNL     1      10.853  13.350  20.232  0.00  0.00    +0.000 A 
ATOM     26  C   UNL     1      10.072  13.713  21.327  0.00  0.00    +0.000 A 
ATOM     27  C   UNL     1       9.101  12.822  21.805  0.00  0.00    +0.000 A 
ATOM     28  C   UNL     1       8.926  11.569  21.196  0.00  0.00    +0.000 A 
BRANCH  26  29
ATOM     29  C   UNL     1      10.200  15.052  21.953  0.00  0.00    +0.000 C 
ATOM     30  O   UNL     1       9.768  15.302  23.067  0.00  0.00    +0.000 OA
BRANCH  29  31
ATOM     31  O   UNL     1      10.859  15.953  21.196  0.00  0.00    +0.000 OA
ATOM     32  H   UNL     1      11.217  15.614  20.356  0.00  0.00    +0.000 HD
ENDBRANCH  29  31
ENDBRANCH  26  29
ENDBRANCH  21  23
ENDBRANCH  18  20
ENDBRANCH   1  18
TORSDOF 7
ENDMDL
MODEL 2
REMARK VINA RESULT:      -8.6      7.055      8.599
REMARK  Name = 
REMARK  7 active torsions:
REMARK  status: ('A' for Active; 'I' for Inactive)
REMARK    1  A    between atoms: C_2  and  C_3
REMARK    2  A    between atoms: C_3  and  O_4
REMARK    3  A    between atoms: O_4  and  C_5
REMARK    4  A    between atoms: C_8  and  C_9
REMARK    5  A    between atoms: N_21  and  C_22
REMARK    6  A    between atoms: C_25  and  C_26
REMARK    7  A    between atoms: C_26  and  O_28
REMARK                            x       y       z     vdW  Elec       q    Type
REMARK                         _______ _______ _______ _____ _____    ______ ____
ROOT
ATOM      1  O   UNL     1       1.635  10.662  18.774  0.00  0.00    +0.000 OA
ENDROOT
BRANCH   1   2
ATOM      2  C   UNL     1       1.781   9.309  18.961  0.00  0.00    +0.000 A 
ATOM      3  C   UNL     1       2.188   8.586  17.847  0.00  0.00    +0.000 A 
ATOM      4  C   UNL     1       2.349   7.197  17.920  0.00  0.00    +0.000 A 
ATOM      5  C   UNL     1       2.124   6.491  19.115  0.00  0.00    +0.000 A 
ATOM      6  C   UNL     1       1.745   7.245  20.237  0.00  0.00    +0.000 A 
ATOM      7  C   UNL     1       1.578   8.634  20.164  0.00  0.00    +0.000 A 
BRANCH   5   8
ATOM      8  C   UNL     1       2.266   4.964  19.219  0.00  0.00    +0.000 C 
ATOM      9  C   UNL     1       1.905   4.229  17.893  0.00  0.00    +0.000 C 
ATOM     10  C   UNL     1       2.043   2.707  18.027  0.00  0.00    +0.000 C 
ATOM     11  C   UNL     1       3.493   2.365  18.396  0.00  0.00    +0.000 C 
ATOM     12  C   UNL     1       3.864   3.034  19.726  0.00  0.00    +0.000 C 
ATOM     13  C   UNL     1       2.913   2.535  20.827  0.00  0.00    +0.000 C 
ATOM     14  C   UNL     1       1.460   2.882  20.465  0.00  0.00    +0.000 C 
ATOM     15  C   UNL     1       1.098   2.214  19.131  0.00  0.00    +0.000 C 
ATOM     16  C   UNL     1       1.321   4.409  20.328  0.00  0.00    +0.000 C 
ATOM     17  C   UNL     1       3.726   4.563  19.589  0.00  0.00    +0.000 C 
ENDBRANCH   5   8
ENDBRANCH   1   2
BRANCH   1  18
ATOM     18  C   UNL     1       0.406  11.023  18.159  0.00  0.00    +0.000 C 
BRANCH  18  20
ATOM     19  O   UNL     1      -1.677  10.270  19.039  0.00  0.00    +0.000 OA
ATOM     20  C   UNL     1      -0.787  11.120  19.104  0.00  0.00    +0.000 C 
ATOM     21  N   UNL     1      -0.763  12.186  19.983  0.00  0.00    +0.000 N 
ATOM     22  H   UNL     1      -0.071  12.907  19.795  0.00  0.00    +0.000 HD
BRANCH  21  23
ATOM     23  C   UNL     1      -1.661  12.383  21.054  0.00  0.00    +0.000 A 
ATOM     24  C   UNL     1      -2.816  13.160  20.923  0.00  0.00    +0.000 A 
ATOM     25  C   UNL     1      -3.716  13.307  21.981  0.00  0.00    +0.000 A 
ATOM     26  C   UNL     1      -3.457  12.692  23.204  0.00  0.00    +0.000 A 
ATOM     27  C   UNL     1      -2.309  11.902  23.348  0.00  0.00    +0.000 A 
ATOM     28  C   UNL     1      -1.418  11.742  22.274  0.00  0.00    +0.000 A 
BRANCH  26  29
ATOM     29  C   UNL     1      -4.411  12.801  24.336  0.00  0.00    +0.000 C 
ATOM     30  O   UNL     1      -5.114  11.871  24.695  0.00  0.00    +0.000 OA
BRANCH  29  31
ATOM     31  O   UNL     1      -4.406  14.004  24.946  0.00  0.00    +0.000 OA
ATOM     32  H   UNL     1      -4.094  14.749  24.401  0.00  0.00    +0.000 HD
ENDBRANCH  29  31
ENDBRANCH  26  29
ENDBRANCH  21  23
ENDBRANCH  18  20
ENDBRANCH   1  18
TORSDOF 7
ENDMDL
MODEL 3
REMARK VINA RESULT:      -8.5      2.167      2.622
REMARK  Name = 
REMARK  7 active torsions:
REMARK  status: ('A' for Active; 'I' for Inactive)
REMARK    1  A    between atoms: C_2  and  C_3
REMARK    2  A    between atoms: C_3  and  O_4
REMARK    3  A    between atoms: O_4  and  C_5
REMARK    4  A    between atoms: C_8  and  C_9
REMARK    5  A    between atoms: N_21  and  C_22
REMARK    6  A    between atoms: C_25  and  C_26
REMARK    7  A    between atoms: C_26  and  O_28
REMARK                            x       y       z     vdW  Elec       q    Type
REMARK                         _______ _______ _______ _____ _____    ______ ____
ROOT
ATOM      1  O   UNL     1       8.186   8.486  17.617  0.00  0.00    +0.000 OA
ENDROOT
BRANCH   1   2
ATOM      2  C   UNL     1       7.281   7.479  17.850  0.00  0.00    +0.000 A 
ATOM      3  C   UNL     1       6.051   7.615  17.218  0.00  0.00    +0.000 A 
ATOM      4  C   UNL     1       5.047   6.657  17.401  0.00  0.00    +0.000 A 
ATOM      5  C   UNL     1       5.248   5.524  18.210  0.00  0.00    +0.000 A 
ATOM      6  C   UNL     1       6.508   5.391  18.814  0.00  0.00    +0.000 A 
ATOM      7  C   UNL     1       7.513   6.351  18.635  0.00  0.00    +0.000 A 
BRANCH   5   8
ATOM      8  C   UNL     1       4.156   4.470  18.453  0.00  0.00    +0.000 C 
ATOM      9  C   UNL     1       3.659   3.797  17.138  0.00  0.00    +0.000 C 
ATOM     10  C   UNL     1       2.561   2.759  17.407  0.00  0.00    +0.000 C 
ATOM     11  C   UNL     1       3.118   1.670  18.333  0.00  0.00    +0.000 C 
ATOM     12  C   UNL     1       3.571   2.294  19.659  0.00  0.00    +0.000 C 
ATOM     13  C   UNL     1       2.372   2.986  20.329  0.00  0.00    +0.000 C 
ATOM     14  C   UNL     1       1.816   4.084  19.408  0.00  0.00    +0.000 C 
ATOM     15  C   UNL     1       1.370   3.453  18.081  0.00  0.00    +0.000 C 
ATOM     16  C   UNL     1       2.916   5.126  19.136  0.00  0.00    +0.000 C 
ATOM     17  C   UNL     1       4.674   3.336  19.387  0.00  0.00    +0.000 C 
ENDBRANCH   5   8
ENDBRANCH   1   2
BRANCH   1  18
ATOM     18  C   UNL     1       8.935   8.856  18.766  0.00  0.00    +0.000 C 
BRANCH  18  20
ATOM     19  O   UNL     1       9.316  10.788  20.109  0.00  0.00    +0.000 OA
ATOM     20  C   UNL     1       9.099  10.358  18.975  0.00  0.00    +0.000 C 
ATOM     21  N   UNL     1       8.988  11.132  17.835  0.00  0.00    +0.000 N 
ATOM     22  H   UNL     1       8.620  10.665  17.010  0.00  0.00    +0.000 HD
BRANCH  21  23
ATOM     23  C   UNL     1       9.270  12.512  17.754  0.00  0.00    +0.000 A 
ATOM     24  C   UNL     1       8.310  13.486  18.048  0.00  0.00    +0.000 A 
ATOM     25  C   UNL     1       8.621  14.847  18.006  0.00  0.00    +0.000 A 
ATOM     26  C   UNL     1       9.901  15.257  17.640  0.00  0.00    +0.000 A 
ATOM     27  C   UNL     1      10.876  14.293  17.351  0.00  0.00    +0.000 A 
ATOM     28  C   UNL     1      10.563  12.926  17.415  0.00  0.00    +0.000 A 
BRANCH  26  29
ATOM     29  C   UNL     1      10.271  16.694  17.618  0.00  0.00    +0.000 C 
ATOM     30  O   UNL     1      11.329  17.094  17.162  0.00  0.00    +0.000 OA
BRANCH  29  31
ATOM     31  O   UNL     1       9.324  17.514  18.119  0.00  0.00    +0.000 OA
ATOM     32  H   UNL     1       9.621  18.117  18.824  0.00  0.00    +0.000 HD
ENDBRANCH  29  31
ENDBRANCH  26  29
ENDBRANCH  21  23
ENDBRANCH  18  20
ENDBRANCH   1  18
TORSDOF 7
ENDMDL
MODEL 4
REMARK VINA RESULT:      -8.5      1.714      2.809
REMARK  Name = 
REMARK  7 active torsions:
REMARK  status: ('A' for Active; 'I' for Inactive)
REMARK    1  A    between atoms: C_2  and  C_3
REMARK    2  A    between atoms: C_3  and  O_4
REMARK    3  A    between atoms: O_4  and  C_5
REMARK    4  A    between atoms: C_8  and  C_9
REMARK    5  A    between atoms: N_21  and  C_22
REMARK    6  A    between atoms: C_25  and  C_26
REMARK    7  A    between atoms: C_26  and  O_28
REMARK                            x       y       z     vdW  Elec       q    Type
REMARK                         _______ _______ _______ _____ _____    ______ ____
ROOT
ATOM      1  O   UNL     1       8.225   8.306  17.295  0.00  0.00    +0.000 OA
ENDROOT
BRANCH   1   2
ATOM      2  C   UNL     1       7.196   7.436  17.557  0.00  0.00    +0.000 A 
ATOM      3  C   UNL     1       7.486   6.407  18.445  0.00  0.00    +0.000 A 
ATOM      4  C   UNL     1       6.516   5.451  18.768  0.00  0.00    +0.000 A 
ATOM      5  C   UNL     1       5.220   5.502  18.225  0.00  0.00    +0.000 A 
ATOM      6  C   UNL     1       4.939   6.567  17.355  0.00  0.00    +0.000 A 
ATOM      7  C   UNL     1       5.909   7.523  17.027  0.00  0.00    +0.000 A 
BRANCH   5   8
ATOM      8  C   UNL     1       4.143   4.452  18.540  0.00  0.00    +0.000 C 
ATOM      9  C   UNL     1       4.668   3.298  19.447  0.00  0.00    +0.000 C 
ATOM     10  C   UNL     1       3.577   2.258  19.736  0.00  0.00    +0.000 C 
ATOM     11  C   UNL     1       2.404   2.945  20.447  0.00  0.00    +0.000 C 
ATOM     12  C   UNL     1       1.832   4.056  19.557  0.00  0.00    +0.000 C 
ATOM     13  C   UNL     1       1.352   3.444  18.230  0.00  0.00    +0.000 C 
ATOM     14  C   UNL     1       2.526   2.761  17.509  0.00  0.00    +0.000 C 
ATOM     15  C   UNL     1       3.097   1.656  18.408  0.00  0.00    +0.000 C 
ATOM     16  C   UNL     1       3.622   3.804  17.221  0.00  0.00    +0.000 C 
ATOM     17  C   UNL     1       2.928   5.100  19.269  0.00  0.00    +0.000 C 
ENDBRANCH   5   8
ENDBRANCH   1   2
BRANCH   1  18
ATOM     18  C   UNL     1       8.585   9.114  18.406  0.00  0.00    +0.000 C 
BRANCH  18  20
ATOM     19  O   UNL     1       8.063  11.263  17.516  0.00  0.00    +0.000 OA
ATOM     20  C   UNL     1       8.914  10.566  18.071  0.00  0.00    +0.000 C 
ATOM     21  N   UNL     1      10.180  10.987  18.433  0.00  0.00    +0.000 N 
ATOM     22  H   UNL     1      10.835  10.257  18.703  0.00  0.00    +0.000 HD
BRANCH  21  23
ATOM     23  C   UNL     1      10.644  12.318  18.380  0.00  0.00    +0.000 A 
ATOM     24  C   UNL     1      11.108  12.898  17.196  0.00  0.00    +0.000 A 
ATOM     25  C   UNL     1      11.522  14.232  17.154  0.00  0.00    +0.000 A 
ATOM     26  C   UNL     1      11.501  15.003  18.314  0.00  0.00    +0.000 A 
ATOM     27  C   UNL     1      11.029  14.439  19.507  0.00  0.00    +0.000 A 
ATOM     28  C   UNL     1      10.596  13.103  19.537  0.00  0.00    +0.000 A 
BRANCH  26  29
ATOM     29  C   UNL     1      11.901  16.432  18.294  0.00  0.00    +0.000 C 
ATOM     30  O   UNL     1      12.088  17.049  17.259  0.00  0.00    +0.000 OA
BRANCH  29  31
ATOM     31  O   UNL     1      12.012  16.988  19.518  0.00  0.00    +0.000 OA
ATOM     32  H   UNL     1      12.516  16.470  20.171  0.00  0.00    +0.000 HD
ENDBRANCH  29  31
ENDBRANCH  26  29
ENDBRANCH  21  23
ENDBRANCH  18  20
ENDBRANCH   1  18
TORSDOF 7
ENDMDL
MODEL 5
REMARK VINA RESULT:      -8.5      7.152      9.551
REMARK  Name = 
REMARK  7 active torsions:
REMARK  status: ('A' for Active; 'I' for Inactive)
REMARK    1  A    between atoms: C_2  and  C_3
REMARK    2  A    between atoms: C_3  and  O_4
REMARK    3  A    between atoms: O_4  and  C_5
REMARK    4  A    between atoms: C_8  and  C_9
REMARK    5  A    between atoms: N_21  and  C_22
REMARK    6  A    between atoms: C_25  and  C_26
REMARK    7  A    between atoms: C_26  and  O_28
REMARK                            x       y       z     vdW  Elec       q    Type
REMARK                         _______ _______ _______ _____ _____    ______ ____
ROOT
ATOM      1  O   UNL     1       1.822  10.732  18.293  0.00  0.00    +0.000 OA
ENDROOT
BRANCH   1   2
ATOM      2  C   UNL     1       1.880   9.401  18.622  0.00  0.00    +0.000 A 
ATOM      3  C   UNL     1       2.435   8.565  17.660  0.00  0.00    +0.000 A 
ATOM      4  C   UNL     1       2.525   7.185  17.883  0.00  0.00    +0.000 A 
ATOM      5  C   UNL     1       2.079   6.601  19.081  0.00  0.00    +0.000 A 
ATOM      6  C   UNL     1       1.552   7.467  20.052  0.00  0.00    +0.000 A 
ATOM      7  C   UNL     1       1.456   8.847  19.829  0.00  0.00    +0.000 A 
BRANCH   5   8
ATOM      8  C   UNL     1       2.140   5.088  19.343  0.00  0.00    +0.000 C 
ATOM      9  C   UNL     1       1.228   4.639  20.524  0.00  0.00    +0.000 C 
ATOM     10  C   UNL     1       1.316   3.127  20.772  0.00  0.00    +0.000 C 
ATOM     11  C   UNL     1       0.874   2.385  19.504  0.00  0.00    +0.000 C 
ATOM     12  C   UNL     1       1.786   2.767  18.331  0.00  0.00    +0.000 C 
ATOM     13  C   UNL     1       3.238   2.395  18.676  0.00  0.00    +0.000 C 
ATOM     14  C   UNL     1       3.688   3.143  19.941  0.00  0.00    +0.000 C 
ATOM     15  C   UNL     1       2.768   2.759  21.108  0.00  0.00    +0.000 C 
ATOM     16  C   UNL     1       3.598   4.660  19.694  0.00  0.00    +0.000 C 
ATOM     17  C   UNL     1       1.696   4.286  18.083  0.00  0.00    +0.000 C 
ENDBRANCH   5   8
ENDBRANCH   1   2
BRANCH   1  18
ATOM     18  C   UNL     1       1.204  11.538  19.287  0.00  0.00    +0.000 C 
BRANCH  18  20
ATOM     19  O   UNL     1      -0.170  13.192  18.258  0.00  0.00    +0.000 OA
ATOM     20  C   UNL     1      -0.143  12.135  18.890  0.00  0.00    +0.000 C 
ATOM     21  N   UNL     1      -1.253  11.413  19.287  0.00  0.00    +0.000 N 
ATOM     22  H   UNL     1      -1.086  10.671  19.962  0.00  0.00    +0.000 HD
BRANCH  21  23
ATOM     23  C   UNL     1      -2.581  11.674  18.893  0.00  0.00    +0.000 A 
ATOM     24  C   UNL     1      -3.081  11.271  17.651  0.00  0.00    +0.000 A 
ATOM     25  C   UNL     1      -4.413  11.498  17.296  0.00  0.00    +0.000 A 
ATOM     26  C   UNL     1      -5.264  12.162  18.177  0.00  0.00    +0.000 A 
ATOM     27  C   UNL     1      -4.780  12.564  19.429  0.00  0.00    +0.000 A 
ATOM     28  C   UNL     1      -3.446  12.314  19.788  0.00  0.00    +0.000 A 
BRANCH  26  29
ATOM     29  C   UNL     1      -6.692  12.389  17.843  0.00  0.00    +0.000 C 
ATOM     30  O   UNL     1      -7.051  12.864  16.778  0.00  0.00    +0.000 OA
BRANCH  29  31
ATOM     31  O   UNL     1      -7.551  11.998  18.807  0.00  0.00    +0.000 OA
ATOM     32  H   UNL     1      -7.530  11.051  19.030  0.00  0.00    +0.000 HD
ENDBRANCH  29  31
ENDBRANCH  26  29
ENDBRANCH  21  23
ENDBRANCH  18  20
ENDBRANCH   1  18
TORSDOF 7
ENDMDL
MODEL 6
REMARK VINA RESULT:      -8.4      0.945      1.706
REMARK  Name = 
REMARK  7 active torsions:
REMARK  status: ('A' for Active; 'I' for Inactive)
REMARK    1  A    between atoms: C_2  and  C_3
REMARK    2  A    between atoms: C_3  and  O_4
REMARK    3  A    between atoms: O_4  and  C_5
REMARK    4  A    between atoms: C_8  and  C_9
REMARK    5  A    between atoms: N_21  and  C_22
REMARK    6  A    between atoms: C_25  and  C_26
REMARK    7  A    between atoms: C_26  and  O_28
REMARK                            x       y       z     vdW  Elec       q    Type
REMARK                         _______ _______ _______ _____ _____    ______ ____
ROOT
ATOM      1  O   UNL     1       7.736   7.817  17.204  0.00  0.00    +0.000 OA
ENDROOT
BRANCH   1   2
ATOM      2  C   UNL     1       6.662   7.048  17.582  0.00  0.00    +0.000 A 
ATOM      3  C   UNL     1       6.899   6.144  18.611  0.00  0.00    +0.000 A 
ATOM      4  C   UNL     1       5.880   5.296  19.062  0.00  0.00    +0.000 A 
ATOM      5  C   UNL     1       4.588   5.338  18.509  0.00  0.00    +0.000 A 
ATOM      6  C   UNL     1       4.362   6.280  17.493  0.00  0.00    +0.000 A 
ATOM      7  C   UNL     1       5.381   7.126  17.037  0.00  0.00    +0.000 A 
BRANCH   5   8
ATOM      8  C   UNL     1       3.457   4.401  18.964  0.00  0.00    +0.000 C 
ATOM      9  C   UNL     1       2.237   4.408  17.994  0.00  0.00    +0.000 C 
ATOM     10  C   UNL     1       1.119   3.475  18.477  0.00  0.00    +0.000 C 
ATOM     11  C   UNL     1       1.664   2.043  18.567  0.00  0.00    +0.000 C 
ATOM     12  C   UNL     1       2.837   1.993  19.554  0.00  0.00    +0.000 C 
ATOM     13  C   UNL     1       2.354   2.456  20.939  0.00  0.00    +0.000 C 
ATOM     14  C   UNL     1       1.814   3.893  20.855  0.00  0.00    +0.000 C 
ATOM     15  C   UNL     1       0.645   3.936  19.862  0.00  0.00    +0.000 C 
ATOM     16  C   UNL     1       2.935   4.830  20.369  0.00  0.00    +0.000 C 
ATOM     17  C   UNL     1       3.960   2.930  19.067  0.00  0.00    +0.000 C 
ENDBRANCH   5   8
ENDBRANCH   1   2
BRANCH   1  18
ATOM     18  C   UNL     1       8.489   8.320  18.298  0.00  0.00    +0.000 C 
BRANCH  18  20
ATOM     19  O   UNL     1       7.875  10.566  17.789  0.00  0.00    +0.000 OA
ATOM     20  C   UNL     1       8.730   9.827  18.279  0.00  0.00    +0.000 C 
ATOM     21  N   UNL     1       9.924  10.245  18.836  0.00  0.00    +0.000 N 
ATOM     22  H   UNL     1      10.609   9.518  19.024  0.00  0.00    +0.000 HD
BRANCH  21  23
ATOM     23  C   UNL     1      10.285  11.586  19.084  0.00  0.00    +0.000 A 
ATOM     24  C   UNL     1      10.247  12.141  20.366  0.00  0.00    +0.000 A 
ATOM     25  C   UNL     1      10.652  13.458  20.599  0.00  0.00    +0.000 A 
ATOM     26  C   UNL     1      11.079  14.253  19.537  0.00  0.00    +0.000 A 
ATOM     27  C   UNL     1      11.131  13.707  18.248  0.00  0.00    +0.000 A 
ATOM     28  C   UNL     1      10.742  12.376  18.023  0.00  0.00    +0.000 A 
BRANCH  26  29
ATOM     29  C   UNL     1      11.546  15.644  19.757  0.00  0.00    +0.000 C 
ATOM     30  O   UNL     1      11.261  16.283  20.756  0.00  0.00    +0.000 OA
BRANCH  29  31
ATOM     31  O   UNL     1      12.333  16.122  18.771  0.00  0.00    +0.000 OA
ATOM     32  H   UNL     1      12.562  17.066  18.838  0.00  0.00    +0.000 HD
ENDBRANCH  29  31
ENDBRANCH  26  29
ENDBRANCH  21  23
ENDBRANCH  18  20
ENDBRANCH   1  18
TORSDOF 7
ENDMDL
MODEL 7
REMARK VINA RESULT:      -8.4      7.529      9.260
REMARK  Name = 
REMARK  7 active torsions:
REMARK  status: ('A' for Active; 'I' for Inactive)
REMARK    1  A    between atoms: C_2  and  C_3
REMARK    2  A    between atoms: C_3  and  O_4
REMARK    3  A    between atoms: O_4  and  C_5
REMARK    4  A    between atoms: C_8  and  C_9
REMARK    5  A    between atoms: N_21  and  C_22
REMARK    6  A    between atoms: C_25  and  C_26
REMARK    7  A    between atoms: C_26  and  O_28
REMARK                            x       y       z     vdW  Elec       q    Type
REMARK                         _______ _______ _______ _____ _____    ______ ____
ROOT
ATOM      1  O   UNL     1       1.295  10.767  18.857  0.00  0.00    +0.000 OA
ENDROOT
BRANCH   1   2
ATOM      2  C   UNL     1       1.536   9.425  19.018  0.00  0.00    +0.000 A 
ATOM      3  C   UNL     1       1.971   8.750  17.884  0.00  0.00    +0.000 A 
ATOM      4  C   UNL     1       2.227   7.374  17.929  0.00  0.00    +0.000 A 
ATOM      5  C   UNL     1       2.072   6.634  19.114  0.00  0.00    +0.000 A 
ATOM      6  C   UNL     1       1.663   7.341  20.256  0.00  0.00    +0.000 A 
ATOM      7  C   UNL     1       1.401   8.717  20.212  0.00  0.00    +0.000 A 
BRANCH   5   8
ATOM      8  C   UNL     1       2.319   5.119  19.188  0.00  0.00    +0.000 C 
ATOM      9  C   UNL     1       1.518   4.428  20.333  0.00  0.00    +0.000 C 
ATOM     10  C   UNL     1       1.792   2.920  20.392  0.00  0.00    +0.000 C 
ATOM     11  C   UNL     1       1.383   2.283  19.057  0.00  0.00    +0.000 C 
ATOM     12  C   UNL     1       2.192   2.907  17.912  0.00  0.00    +0.000 C 
ATOM     13  C   UNL     1       3.691   2.674  18.166  0.00  0.00    +0.000 C 
ATOM     14  C   UNL     1       4.107   3.317  19.499  0.00  0.00    +0.000 C 
ATOM     15  C   UNL     1       3.289   2.692  20.638  0.00  0.00    +0.000 C 
ATOM     16  C   UNL     1       3.831   4.831  19.441  0.00  0.00    +0.000 C 
ATOM     17  C   UNL     1       1.915   4.423  17.854  0.00  0.00    +0.000 C 
ENDBRANCH   5   8
ENDBRANCH   1   2
BRANCH   1  18
ATOM     18  C   UNL     1       0.974  11.438  20.068  0.00  0.00    +0.000 C 
BRANCH  18  20
ATOM     19  O   UNL     1      -1.321  10.935  19.669  0.00  0.00    +0.000 OA
ATOM     20  C   UNL     1      -0.517  11.553  20.368  0.00  0.00    +0.000 C 
ATOM     21  N   UNL     1      -0.847  12.367  21.436  0.00  0.00    +0.000 N 
ATOM     22  H   UNL     1      -0.103  12.959  21.795  0.00  0.00    +0.000 HD
BRANCH  21  23
ATOM     23  C   UNL     1      -2.133  12.490  22.002  0.00  0.00    +0.000 A 
ATOM     24  C   UNL     1      -2.399  12.139  23.329  0.00  0.00    +0.000 A 
ATOM     25  C   UNL     1      -3.669  12.311  23.885  0.00  0.00    +0.000 A 
ATOM     26  C   UNL     1      -4.707  12.818  23.106  0.00  0.00    +0.000 A 
ATOM     27  C   UNL     1      -4.453  13.184  21.777  0.00  0.00    +0.000 A 
ATOM     28  C   UNL     1      -3.170  13.027  21.230  0.00  0.00    +0.000 A 
BRANCH  26  29
ATOM     29  C   UNL     1      -6.057  13.044  23.677  0.00  0.00    +0.000 C 
ATOM     30  O   UNL     1      -6.938  12.200  23.638  0.00  0.00    +0.000 OA
BRANCH  29  31
ATOM     31  O   UNL     1      -6.212  14.248  24.265  0.00  0.00    +0.000 OA
ATOM     32  H   UNL     1      -7.126  14.581  24.307  0.00  0.00    +0.000 HD
ENDBRANCH  29  31
ENDBRANCH  26  29
ENDBRANCH  21  23
ENDBRANCH  18  20
ENDBRANCH   1  18
TORSDOF 7
ENDMDL
MODEL 8
REMARK VINA RESULT:      -8.4      7.017      9.373
REMARK  Name = 
REMARK  7 active torsions:
REMARK  status: ('A' for Active; 'I' for Inactive)
REMARK    1  A    between atoms: C_2  and  C_3
REMARK    2  A    between atoms: C_3  and  O_4
REMARK    3  A    between atoms: O_4  and  C_5
REMARK    4  A    between atoms: C_8  and  C_9
REMARK    5  A    between atoms: N_21  and  C_22
REMARK    6  A    between atoms: C_25  and  C_26
REMARK    7  A    between atoms: C_26  and  O_28
REMARK                            x       y       z     vdW  Elec       q    Type
REMARK                         _______ _______ _______ _____ _____    ______ ____
ROOT
ATOM      1  O   UNL     1       1.946  10.535  18.256  0.00  0.00    +0.000 OA
ENDROOT
BRANCH   1   2
ATOM      2  C   UNL     1       1.989   9.206  18.596  0.00  0.00    +0.000 A 
ATOM      3  C   UNL     1       2.434   8.342  17.603  0.00  0.00    +0.000 A 
ATOM      4  C   UNL     1       2.499   6.963  17.835  0.00  0.00    +0.000 A 
ATOM      5  C   UNL     1       2.138   6.406  19.075  0.00  0.00    +0.000 A 
ATOM      6  C   UNL     1       1.722   7.300  20.075  0.00  0.00    +0.000 A 
ATOM      7  C   UNL     1       1.651   8.680  19.842  0.00  0.00    +0.000 A 
BRANCH   5   8
ATOM      8  C   UNL     1       2.172   4.895  19.351  0.00  0.00    +0.000 C 
ATOM      9  C   UNL     1       1.149   4.453  20.440  0.00  0.00    +0.000 C 
ATOM     10  C   UNL     1       1.213   2.943  20.705  0.00  0.00    +0.000 C 
ATOM     11  C   UNL     1       0.896   2.192  19.405  0.00  0.00    +0.000 C 
ATOM     12  C   UNL     1       1.919   2.568  18.324  0.00  0.00    +0.000 C 
ATOM     13  C   UNL     1       3.330   2.198  18.811  0.00  0.00    +0.000 C 
ATOM     14  C   UNL     1       3.654   2.954  20.109  0.00  0.00    +0.000 C 
ATOM     15  C   UNL     1       2.624   2.578  21.184  0.00  0.00    +0.000 C 
ATOM     16  C   UNL     1       3.589   4.470  19.845  0.00  0.00    +0.000 C 
ATOM     17  C   UNL     1       1.853   4.085  18.058  0.00  0.00    +0.000 C 
ENDBRANCH   5   8
ENDBRANCH   1   2
BRANCH   1  18
ATOM     18  C   UNL     1       1.407  11.367  19.274  0.00  0.00    +0.000 C 
BRANCH  18  20
ATOM     19  O   UNL     1       0.043  13.138  18.446  0.00  0.00    +0.000 OA
ATOM     20  C   UNL     1       0.064  12.010  18.941  0.00  0.00    +0.000 C 
ATOM     21  N   UNL     1      -1.049  11.244  19.231  0.00  0.00    +0.000 N 
ATOM     22  H   UNL     1      -0.890  10.422  19.809  0.00  0.00    +0.000 HD
BRANCH  21  23
ATOM     23  C   UNL     1      -2.374  11.554  18.858  0.00  0.00    +0.000 A 
ATOM     24  C   UNL     1      -3.244  12.245  19.708  0.00  0.00    +0.000 A 
ATOM     25  C   UNL     1      -4.538  12.582  19.303  0.00  0.00    +0.000 A 
ATOM     26  C   UNL     1      -4.992  12.207  18.041  0.00  0.00    +0.000 A 
ATOM     27  C   UNL     1      -4.128  11.522  17.175  0.00  0.00    +0.000 A 
ATOM     28  C   UNL     1      -2.822  11.204  17.580  0.00  0.00    +0.000 A 
BRANCH  26  29
ATOM     29  C   UNL     1      -6.349  12.579  17.569  0.00  0.00    +0.000 C 
ATOM     30  O   UNL     1      -7.333  11.894  17.790  0.00  0.00    +0.000 OA
BRANCH  29  31
ATOM     31  O   UNL     1      -6.397  13.752  16.904  0.00  0.00    +0.000 OA
ATOM     32  H   UNL     1      -7.134  14.341  17.145  0.00  0.00    +0.000 HD
ENDBRANCH  29  31
ENDBRANCH  26  29
ENDBRANCH  21  23
ENDBRANCH  18  20
ENDBRANCH   1  18
TORSDOF 7
ENDMDL
MODEL 9
REMARK VINA RESULT:      -8.4      7.918      9.552
REMARK  Name = 
REMARK  7 active torsions:
REMARK  status: ('A' for Active; 'I' for Inactive)
REMARK    1  A    between atoms: C_2  and  C_3
REMARK    2  A    between atoms: C_3  and  O_4
REMARK    3  A    between atoms: O_4  and  C_5
REMARK    4  A    between atoms: C_8  and  C_9
REMARK    5  A    between atoms: N_21  and  C_22
REMARK    6  A    between atoms: C_25  and  C_26
REMARK    7  A    between atoms: C_26  and  O_28
REMARK                            x       y       z     vdW  Elec       q    Type
REMARK                         _______ _______ _______ _____ _____    ______ ____
ROOT
ATOM      1  O   UNL     1       0.123  10.521  19.773  0.00  0.00    +0.000 OA
ENDROOT
BRANCH   1   2
ATOM      2  C   UNL     1       0.922   9.436  19.509  0.00  0.00    +0.000 A 
ATOM      3  C   UNL     1       1.405   9.344  18.209  0.00  0.00    +0.000 A 
ATOM      4  C   UNL     1       2.212   8.267  17.824  0.00  0.00    +0.000 A 
ATOM      5  C   UNL     1       2.576   7.257  18.732  0.00  0.00    +0.000 A 
ATOM      6  C   UNL     1       2.104   7.386  20.048  0.00  0.00    +0.000 A 
ATOM      7  C   UNL     1       1.292   8.460  20.434  0.00  0.00    +0.000 A 
BRANCH   5   8
ATOM      8  C   UNL     1       3.438   6.049  18.332  0.00  0.00    +0.000 C 
ATOM      9  C   UNL     1       4.512   6.399  17.257  0.00  0.00    +0.000 C 
ATOM     10  C   UNL     1       5.350   5.174  16.868  0.00  0.00    +0.000 C 
ATOM     11  C   UNL     1       6.064   4.638  18.115  0.00  0.00    +0.000 C 
ATOM     12  C   UNL     1       5.031   4.237  19.176  0.00  0.00    +0.000 C 
ATOM     13  C   UNL     1       4.106   3.153  18.598  0.00  0.00    +0.000 C 
ATOM     14  C   UNL     1       3.381   3.689  17.352  0.00  0.00    +0.000 C 
ATOM     15  C   UNL     1       4.421   4.093  16.298  0.00  0.00    +0.000 C 
ATOM     16  C   UNL     1       2.541   4.919  17.742  0.00  0.00    +0.000 C 
ATOM     17  C   UNL     1       4.191   5.468  19.567  0.00  0.00    +0.000 C 
ENDBRANCH   5   8
ENDBRANCH   1   2
BRANCH   1  18
ATOM     18  C   UNL     1       0.730  11.482  20.625  0.00  0.00    +0.000 C 
BRANCH  18  20
ATOM     19  O   UNL     1       0.186  13.216  22.167  0.00  0.00    +0.000 OA
ATOM     20  C   UNL     1      -0.234  12.258  21.517  0.00  0.00    +0.000 C 
ATOM     21  N   UNL     1      -1.540  11.803  21.516  0.00  0.00    +0.000 N 
ATOM     22  H   UNL     1      -1.698  10.895  21.087  0.00  0.00    +0.000 HD
BRANCH  21  23
ATOM     23  C   UNL     1      -2.633  12.457  22.123  0.00  0.00    +0.000 A 
ATOM     24  C   UNL     1      -3.027  12.185  23.437  0.00  0.00    +0.000 A 
ATOM     25  C   UNL     1      -4.083  12.876  24.036  0.00  0.00    +0.000 A 
ATOM     26  C   UNL     1      -4.783  13.839  23.312  0.00  0.00    +0.000 A 
ATOM     27  C   UNL     1      -4.394  14.129  21.998  0.00  0.00    +0.000 A 
ATOM     28  C   UNL     1      -3.318  13.446  21.408  0.00  0.00    +0.000 A 
BRANCH  26  29
ATOM     29  C   UNL     1      -5.888  14.613  23.931  0.00  0.00    +0.000 C 
ATOM     30  O   UNL     1      -5.914  15.832  23.937  0.00  0.00    +0.000 OA
BRANCH  29  31
ATOM     31  O   UNL     1      -6.868  13.848  24.457  0.00  0.00    +0.000 OA
ATOM     32  H   UNL     1      -7.004  13.942  25.416  0.00  0.00    +0.000 HD
ENDBRANCH  29  31
ENDBRANCH  26  29
ENDBRANCH  21  23
ENDBRANCH  18  20
ENDBRANCH   1  18
TORSDOF 7
ENDMDL
