MODEL 1
REMARK VINA RESULT:      -7.7      0.000      0.000
REMARK  Name = 
REMARK  6 active torsions:
REMARK  status: ('A' for Active; 'I' for Inactive)
REMARK    1  A    between atoms: C_1  and  C_2
REMARK    2  A    between atoms: C_5  and  C_6
REMARK    3  A    between atoms: C_6  and  N_7
REMARK    4  A    between atoms: N_7  and  S_8
REMARK    5  A    between atoms: S_8  and  C_11
REMARK    6  A    between atoms: N_17  and  C_18
REMARK                            x       y       z     vdW  Elec       q    Type
REMARK                         _______ _______ _______ _____ _____    ______ ____
ROOT
ATOM      1  S   UNL     1       7.093   5.683  18.051  0.00  0.00    +0.000 S 
ATOM      2  O   UNL     1       7.762   5.138  19.213  0.00  0.00    +0.000 OA
ATOM      3  O   UNL     1       7.180   7.085  17.716  0.00  0.00    +0.000 OA
ENDROOT
BRANCH   1   4
ATOM      4  C   UNL     1       5.384   5.230  18.173  0.00  0.00    +0.000 A 
ATOM      5  C   UNL     1       4.387   6.105  17.747  0.00  0.00    +0.000 A 
ATOM      6  C   UNL     1       3.053   5.736  17.901  0.00  0.00    +0.000 A 
ATOM      7  C   UNL     1       2.724   4.511  18.494  0.00  0.00    +0.000 A 
ATOM      8  C   UNL     1       3.722   3.636  18.990  0.00  0.00    +0.000 A 
ATOM      9  C   UNL     1       5.058   4.009  18.779  0.00  0.00    +0.000 A 
ATOM     10  N   UNL     1       3.384   2.427  19.641  0.00  0.00    +0.000 N 
ATOM     11  C   UNL     1       4.307   1.932  20.662  0.00  0.00    +0.000 C 
ATOM     12  C   UNL     1       1.966   2.388  20.030  0.00  0.00    +0.000 C 
ATOM     13  C   UNL     1       1.096   2.890  18.886  0.00  0.00    +0.000 C 
ATOM     14  O   UNL     1       1.373   4.263  18.591  0.00  0.00    +0.000 OA
ENDBRANCH   1   4
BRANCH   1  15
ATOM     15  N   UNL     1       7.638   4.791  16.735  0.00  0.00    +0.000 NA
ATOM     16  H   UNL     1       8.453   4.226  16.970  0.00  0.00    +0.000 HD
BRANCH  15  17
ATOM     17  C   UNL     1       7.666   5.476  15.442  0.00  0.00    +0.000 C 
BRANCH  17  22
ATOM     18  C   UNL     1       4.592   2.840  11.241  0.00  0.00    +0.000 C 
ATOM     19  C   UNL     1       5.383   3.482  12.342  0.00  0.00    +0.000 A 
ATOM     20  C   UNL     1       4.829   3.683  13.612  0.00  0.00    +0.000 A 
ATOM     21  C   UNL     1       5.571   4.307  14.621  0.00  0.00    +0.000 A 
ATOM     22  C   UNL     1       6.882   4.741  14.380  0.00  0.00    +0.000 A 
ATOM     23  C   UNL     1       7.437   4.525  13.110  0.00  0.00    +0.000 A 
ATOM     24  C   UNL     1       6.695   3.904  12.102  0.00  0.00    +0.000 A 
ENDBRANCH  17  22
ENDBRANCH  15  17
ENDBRANCH   1  15
TORSDOF 4
ENDMDL
MODEL 2
REMARK VINA RESULT:      -7.6      0.551      1.144
REMARK  Name = 
REMARK  6 active torsions:
REMARK  status: ('A' for Active; 'I' for Inactive)
REMARK    1  A    between atoms: C_1  and  C_2
REMARK    2  A    between atoms: C_5  and  C_6
REMARK    3  A    between atoms: C_6  and  N_7
REMARK    4  A    between atoms: N_7  and  S_8
REMARK    5  A    between atoms: S_8  and  C_11
REMARK    6  A    between atoms: N_17  and  C_18
REMARK                            x       y       z     vdW  Elec       q    Type
REMARK                         _______ _______ _______ _____ _____    ______ ____
ROOT
ATOM      1  S   UNL     1       7.187   5.597  17.733  0.00  0.00    +0.000 S 
ATOM      2  O   UNL     1       7.909   4.347  17.848  0.00  0.00    +0.000 OA
ATOM      3  O   UNL     1       7.549   6.754  18.517  0.00  0.00    +0.000 OA
ENDROOT
BRANCH   1   4
ATOM      4  C   UNL     1       5.474   5.235  18.006  0.00  0.00    +0.000 A 
ATOM      5  C   UNL     1       4.493   6.171  17.688  0.00  0.00    +0.000 A 
ATOM      6  C   UNL     1       3.160   5.873  17.960  0.00  0.00    +0.000 A 
ATOM      7  C   UNL     1       2.819   4.655  18.561  0.00  0.00    +0.000 A 
ATOM      8  C   UNL     1       3.806   3.717  18.948  0.00  0.00    +0.000 A 
ATOM      9  C   UNL     1       5.136   4.021  18.619  0.00  0.00    +0.000 A 
ATOM     10  N   UNL     1       3.462   2.514  19.608  0.00  0.00    +0.000 N 
ATOM     11  C   UNL     1       4.446   1.948  20.531  0.00  0.00    +0.000 C 
ATOM     12  C   UNL     1       2.086   2.544  20.126  0.00  0.00    +0.000 C 
ATOM     13  C   UNL     1       1.144   3.117  19.075  0.00  0.00    +0.000 C 
ATOM     14  O   UNL     1       1.470   4.478  18.778  0.00  0.00    +0.000 OA
ENDBRANCH   1   4
BRANCH   1  15
ATOM     15  N   UNL     1       7.240   6.021  16.107  0.00  0.00    +0.000 NA
ATOM     16  H   UNL     1       6.365   6.444  15.797  0.00  0.00    +0.000 HD
BRANCH  15  17
ATOM     17  C   UNL     1       7.863   5.061  15.197  0.00  0.00    +0.000 C 
BRANCH  17  22
ATOM     18  C   UNL     1       4.200   2.963  11.168  0.00  0.00    +0.000 C 
ATOM     19  C   UNL     1       5.145   3.537  12.182  0.00  0.00    +0.000 A 
ATOM     20  C   UNL     1       6.486   3.786  11.866  0.00  0.00    +0.000 A 
ATOM     21  C   UNL     1       7.361   4.299  12.831  0.00  0.00    +0.000 A 
ATOM     22  C   UNL     1       6.911   4.571  14.130  0.00  0.00    +0.000 A 
ATOM     23  C   UNL     1       5.564   4.332  14.438  0.00  0.00    +0.000 A 
ATOM     24  C   UNL     1       4.691   3.819  13.474  0.00  0.00    +0.000 A 
ENDBRANCH  17  22
ENDBRANCH  15  17
ENDBRANCH   1  15
TORSDOF 4
ENDMDL
MODEL 3
REMARK VINA RESULT:      -7.4      5.514      8.032
REMARK  Name = 
REMARK  6 active torsions:
REMARK  status: ('A' for Active; 'I' for Inactive)
REMARK    1  A    between atoms: C_1  and  C_2
REMARK    2  A    between atoms: C_5  and  C_6
REMARK    3  A    between atoms: C_6  and  N_7
REMARK    4  A    between atoms: N_7  and  S_8
REMARK    5  A    between atoms: S_8  and  C_11
REMARK    6  A    between atoms: N_17  and  C_18
REMARK                            x       y       z     vdW  Elec       q    Type
REMARK                         _______ _______ _______ _____ _____    ______ ____
ROOT
ATOM      1  S   UNL     1       0.845   8.953  21.299  0.00  0.00    +0.000 S 
ATOM      2  O   UNL     1       1.754   9.300  22.370  0.00  0.00    +0.000 OA
ATOM      3  O   UNL     1      -0.471   8.422  21.566  0.00  0.00    +0.000 OA
ENDROOT
BRANCH   1   4
ATOM      4  C   UNL     1       1.706   7.836  20.226  0.00  0.00    +0.000 A 
ATOM      5  C   UNL     1       2.071   8.229  18.940  0.00  0.00    +0.000 A 
ATOM      6  C   UNL     1       2.704   7.310  18.107  0.00  0.00    +0.000 A 
ATOM      7  C   UNL     1       2.950   6.006  18.553  0.00  0.00    +0.000 A 
ATOM      8  C   UNL     1       2.531   5.569  19.834  0.00  0.00    +0.000 A 
ATOM      9  C   UNL     1       1.939   6.527  20.671  0.00  0.00    +0.000 A 
ATOM     10  N   UNL     1       2.729   4.235  20.259  0.00  0.00    +0.000 N 
ATOM     11  C   UNL     1       1.761   3.680  21.205  0.00  0.00    +0.000 C 
ATOM     12  C   UNL     1       3.066   3.344  19.138  0.00  0.00    +0.000 C 
ATOM     13  C   UNL     1       4.102   4.004  18.239  0.00  0.00    +0.000 C 
ATOM     14  O   UNL     1       3.580   5.193  17.638  0.00  0.00    +0.000 OA
ENDBRANCH   1   4
BRANCH   1  15
ATOM     15  N   UNL     1       0.676  10.338  20.361  0.00  0.00    +0.000 NA
ATOM     16  H   UNL     1       1.503  10.932  20.409  0.00  0.00    +0.000 HD
BRANCH  15  17
ATOM     17  C   UNL     1      -0.621  11.014  20.415  0.00  0.00    +0.000 C 
BRANCH  17  22
ATOM     18  C   UNL     1      -3.690  10.545  15.474  0.00  0.00    +0.000 C 
ATOM     19  C   UNL     1      -2.870  10.682  16.723  0.00  0.00    +0.000 A 
ATOM     20  C   UNL     1      -1.722   9.905  16.926  0.00  0.00    +0.000 A 
ATOM     21  C   UNL     1      -0.982  10.026  18.107  0.00  0.00    +0.000 A 
ATOM     22  C   UNL     1      -1.375  10.925  19.108  0.00  0.00    +0.000 A 
ATOM     23  C   UNL     1      -2.518  11.710  18.894  0.00  0.00    +0.000 A 
ATOM     24  C   UNL     1      -3.258  11.587  17.715  0.00  0.00    +0.000 A 
ENDBRANCH  17  22
ENDBRANCH  15  17
ENDBRANCH   1  15
TORSDOF 4
ENDMDL
MODEL 4
REMARK VINA RESULT:      -7.4      3.900      5.731
REMARK  Name = 
REMARK  6 active torsions:
REMARK  status: ('A' for Active; 'I' for Inactive)
REMARK    1  A    between atoms: C_1  and  C_2
REMARK    2  A    between atoms: C_5  and  C_6
REMARK    3  A    between atoms: C_6  and  N_7
REMARK    4  A    between atoms: N_7  and  S_8
REMARK    5  A    between atoms: S_8  and  C_11
REMARK    6  A    between atoms: N_17  and  C_18
REMARK                            x       y       z     vdW  Elec       q    Type
REMARK                         _______ _______ _______ _____ _____    ______ ____
ROOT
ATOM      1  S   UNL     1       7.365   5.629  17.420  0.00  0.00    +0.000 S 
ATOM      2  O   UNL     1       7.462   5.925  16.006  0.00  0.00    +0.000 OA
ATOM      3  O   UNL     1       8.131   4.565  18.024  0.00  0.00    +0.000 OA
ENDROOT
BRANCH   1   4
ATOM      4  C   UNL     1       5.649   5.376  17.782  0.00  0.00    +0.000 A 
ATOM      5  C   UNL     1       4.722   6.392  17.564  0.00  0.00    +0.000 A 
ATOM      6  C   UNL     1       3.389   6.175  17.904  0.00  0.00    +0.000 A 
ATOM      7  C   UNL     1       2.996   4.959  18.475  0.00  0.00    +0.000 A 
ATOM      8  C   UNL     1       3.934   3.937  18.762  0.00  0.00    +0.000 A 
ATOM      9  C   UNL     1       5.261   4.162  18.365  0.00  0.00    +0.000 A 
ATOM     10  N   UNL     1       3.543   2.733  19.392  0.00  0.00    +0.000 N 
ATOM     11  C   UNL     1       4.535   2.059  20.230  0.00  0.00    +0.000 C 
ATOM     12  C   UNL     1       2.204   2.836  19.995  0.00  0.00    +0.000 C 
ATOM     13  C   UNL     1       1.247   3.520  19.029  0.00  0.00    +0.000 C 
ATOM     14  O   UNL     1       1.653   4.867  18.768  0.00  0.00    +0.000 OA
ENDBRANCH   1   4
BRANCH   1  15
ATOM     15  N   UNL     1       7.724   7.061  18.224  0.00  0.00    +0.000 NA
ATOM     16  H   UNL     1       7.355   7.065  19.174  0.00  0.00    +0.000 HD
BRANCH  15  17
ATOM     17  C   UNL     1       7.577   8.299  17.458  0.00  0.00    +0.000 C 
BRANCH  17  22
ATOM     18  C   UNL     1      10.313  12.787  19.993  0.00  0.00    +0.000 C 
ATOM     19  C   UNL     1       9.637  11.635  19.311  0.00  0.00    +0.000 A 
ATOM     20  C   UNL     1       8.962  11.805  18.096  0.00  0.00    +0.000 A 
ATOM     21  C   UNL     1       8.315  10.725  17.484  0.00  0.00    +0.000 A 
ATOM     22  C   UNL     1       8.330   9.455  18.076  0.00  0.00    +0.000 A 
ATOM     23  C   UNL     1       9.018   9.287  19.287  0.00  0.00    +0.000 A 
ATOM     24  C   UNL     1       9.663  10.366  19.898  0.00  0.00    +0.000 A 
ENDBRANCH  17  22
ENDBRANCH  15  17
ENDBRANCH   1  15
TORSDOF 4
ENDMDL
MODEL 5
REMARK VINA RESULT:      -7.3      4.234      7.984
REMARK  Name = 
REMARK  6 active torsions:
REMARK  status: ('A' for Active; 'I' for Inactive)
REMARK    1  A    between atoms: C_1  and  C_2
REMARK    2  A    between atoms: C_5  and  C_6
REMARK    3  A    between atoms: C_6  and  N_7
REMARK    4  A    between atoms: N_7  and  S_8
REMARK    5  A    between atoms: S_8  and  C_11
REMARK    6  A    between atoms: N_17  and  C_18
REMARK                            x       y       z     vdW  Elec       q    Type
REMARK                         _______ _______ _______ _____ _____    ______ ____
ROOT
ATOM      1  S   UNL     1       1.986   4.796  20.615  0.00  0.00    +0.000 S 
ATOM      2  O   UNL     1       2.529   4.031  21.718  0.00  0.00    +0.000 OA
ATOM      3  O   UNL     1       0.608   4.660  20.205  0.00  0.00    +0.000 OA
ENDROOT
BRANCH   1   4
ATOM      4  C   UNL     1       3.032   4.506  19.215  0.00  0.00    +0.000 A 
ATOM      5  C   UNL     1       2.610   3.679  18.175  0.00  0.00    +0.000 A 
ATOM      6  C   UNL     1       3.476   3.434  17.112  0.00  0.00    +0.000 A 
ATOM      7  C   UNL     1       4.758   3.998  17.104  0.00  0.00    +0.000 A 
ATOM      8  C   UNL     1       5.228   4.789  18.180  0.00  0.00    +0.000 A 
ATOM      9  C   UNL     1       4.319   5.060  19.215  0.00  0.00    +0.000 A 
ATOM     10  N   UNL     1       6.543   5.307  18.195  0.00  0.00    +0.000 N 
ATOM     11  C   UNL     1       7.173   5.508  19.500  0.00  0.00    +0.000 C 
ATOM     12  C   UNL     1       7.404   4.654  17.197  0.00  0.00    +0.000 C 
ATOM     13  C   UNL     1       6.665   4.527  15.872  0.00  0.00    +0.000 C 
ATOM     14  O   UNL     1       5.518   3.680  16.000  0.00  0.00    +0.000 OA
ENDBRANCH   1   4
BRANCH   1  15
ATOM     15  N   UNL     1       2.270   6.412  20.982  0.00  0.00    +0.000 NA
ATOM     16  H   UNL     1       2.134   6.606  21.974  0.00  0.00    +0.000 HD
BRANCH  15  17
ATOM     17  C   UNL     1       1.743   7.402  20.043  0.00  0.00    +0.000 C 
BRANCH  17  22
ATOM     18  C   UNL     1      -1.126  11.704  22.748  0.00  0.00    +0.000 C 
ATOM     19  C   UNL     1      -0.358  10.624  22.043  0.00  0.00    +0.000 A 
ATOM     20  C   UNL     1      -0.167  10.657  20.657  0.00  0.00    +0.000 A 
ATOM     21  C   UNL     1       0.530   9.629  20.011  0.00  0.00    +0.000 A 
ATOM     22  C   UNL     1       1.049   8.550  20.739  0.00  0.00    +0.000 A 
ATOM     23  C   UNL     1       0.865   8.529  22.129  0.00  0.00    +0.000 A 
ATOM     24  C   UNL     1       0.168   9.554  22.774  0.00  0.00    +0.000 A 
ENDBRANCH  17  22
ENDBRANCH  15  17
ENDBRANCH   1  15
TORSDOF 4
ENDMDL
MODEL 6
REMARK VINA RESULT:      -7.3      3.867      5.431
REMARK  Name = 
REMARK  6 active torsions:
REMARK  status: ('A' for Active; 'I' for Inactive)
REMARK    1  A    between atoms: C_1  and  C_2
REMARK    2  A    between atoms: C_5  and  C_6
REMARK    3  A    between atoms: C_6  and  N_7
REMARK    4  A    between atoms: N_7  and  S_8
REMARK    5  A    between atoms: S_8  and  C_11
REMARK    6  A    between atoms: N_17  and  C_18
REMARK                            x       y       z     vdW  Elec       q    Type
REMARK                         _______ _______ _______ _____ _____    ______ ____
ROOT
ATOM      1  S   UNL     1       2.647   5.117  19.850  0.00  0.00    +0.000 S 
ATOM      2  O   UNL     1       2.109   4.255  18.820  0.00  0.00    +0.000 OA
ATOM      3  O   UNL     1       2.369   4.890  21.249  0.00  0.00    +0.000 OA
ENDROOT
BRANCH   1   4
ATOM      4  C   UNL     1       2.183   6.777  19.436  0.00  0.00    +0.000 A 
ATOM      5  C   UNL     1       2.534   7.324  18.204  0.00  0.00    +0.000 A 
ATOM      6  C   UNL     1       2.194   8.646  17.931  0.00  0.00    +0.000 A 
ATOM      7  C   UNL     1       1.526   9.416  18.891  0.00  0.00    +0.000 A 
ATOM      8  C   UNL     1       1.217   8.897  20.172  0.00  0.00    +0.000 A 
ATOM      9  C   UNL     1       1.526   7.549  20.405  0.00  0.00    +0.000 A 
ATOM     10  N   UNL     1       0.595   9.696  21.160  0.00  0.00    +0.000 N 
ATOM     11  C   UNL     1       0.892   9.388  22.559  0.00  0.00    +0.000 C 
ATOM     12  C   UNL     1       0.649  11.127  20.826  0.00  0.00    +0.000 C 
ATOM     13  C   UNL     1       0.291  11.336  19.361  0.00  0.00    +0.000 C 
ATOM     14  O   UNL     1       1.248  10.707  18.502  0.00  0.00    +0.000 OA
ENDBRANCH   1   4
BRANCH   1  15
ATOM     15  N   UNL     1       4.315   5.117  19.637  0.00  0.00    +0.000 NA
ATOM     16  H   UNL     1       4.657   6.023  19.316  0.00  0.00    +0.000 HD
BRANCH  15  17
ATOM     17  C   UNL     1       4.896   3.934  19.001  0.00  0.00    +0.000 C 
BRANCH  17  22
ATOM     18  C   UNL     1       7.180   4.878  13.715  0.00  0.00    +0.000 C 
ATOM     19  C   UNL     1       6.597   4.676  15.082  0.00  0.00    +0.000 A 
ATOM     20  C   UNL     1       7.381   4.819  16.234  0.00  0.00    +0.000 A 
ATOM     21  C   UNL     1       6.829   4.602  17.502  0.00  0.00    +0.000 A 
ATOM     22  C   UNL     1       5.483   4.237  17.642  0.00  0.00    +0.000 A 
ATOM     23  C   UNL     1       4.699   4.107  16.486  0.00  0.00    +0.000 A 
ATOM     24  C   UNL     1       5.251   4.323  15.221  0.00  0.00    +0.000 A 
ENDBRANCH  17  22
ENDBRANCH  15  17
ENDBRANCH   1  15
TORSDOF 4
ENDMDL
MODEL 7
REMARK VINA RESULT:      -7.3      5.928      8.243
REMARK  Name = 
REMARK  6 active torsions:
REMARK  status: ('A' for Active; 'I' for Inactive)
REMARK    1  A    between atoms: C_1  and  C_2
REMARK    2  A    between atoms: C_5  and  C_6
REMARK    3  A    between atoms: C_6  and  N_7
REMARK    4  A    between atoms: N_7  and  S_8
REMARK    5  A    between atoms: S_8  and  C_11
REMARK    6  A    between atoms: N_17  and  C_18
REMARK                            x       y       z     vdW  Elec       q    Type
REMARK                         _______ _______ _______ _____ _____    ______ ____
ROOT
ATOM      1  S   UNL     1       0.472   9.813  20.755  0.00  0.00    +0.000 S 
ATOM      2  O   UNL     1       1.351  10.529  21.656  0.00  0.00    +0.000 OA
ATOM      3  O   UNL     1      -0.652   9.050  21.244  0.00  0.00    +0.000 OA
ENDROOT
BRANCH   1   4
ATOM      4  C   UNL     1       1.492   8.757  19.762  0.00  0.00    +0.000 A 
ATOM      5  C   UNL     1       1.820   9.114  18.456  0.00  0.00    +0.000 A 
ATOM      6  C   UNL     1       2.583   8.239  17.687  0.00  0.00    +0.000 A 
ATOM      7  C   UNL     1       2.997   7.012  18.219  0.00  0.00    +0.000 A 
ATOM      8  C   UNL     1       2.621   6.604  19.522  0.00  0.00    +0.000 A 
ATOM      9  C   UNL     1       1.894   7.524  20.292  0.00  0.00    +0.000 A 
ATOM     10  N   UNL     1       2.992   5.339  20.034  0.00  0.00    +0.000 N 
ATOM     11  C   UNL     1       2.094   4.718  21.008  0.00  0.00    +0.000 C 
ATOM     12  C   UNL     1       3.463   4.432  18.975  0.00  0.00    +0.000 C 
ATOM     13  C   UNL     1       4.413   5.169  18.042  0.00  0.00    +0.000 C 
ATOM     14  O   UNL     1       3.744   6.236  17.361  0.00  0.00    +0.000 OA
ENDBRANCH   1   4
BRANCH   1  15
ATOM     15  N   UNL     1      -0.098  10.949  19.655  0.00  0.00    +0.000 NA
ATOM     16  H   UNL     1       0.506  11.769  19.609  0.00  0.00    +0.000 HD
BRANCH  15  17
ATOM     17  C   UNL     1      -1.540  11.195  19.652  0.00  0.00    +0.000 C 
BRANCH  17  22
ATOM     18  C   UNL     1      -3.846  10.134  14.397  0.00  0.00    +0.000 C 
ATOM     19  C   UNL     1      -3.286  10.389  15.766  0.00  0.00    +0.000 A 
ATOM     20  C   UNL     1      -3.888  11.305  16.637  0.00  0.00    +0.000 A 
ATOM     21  C   UNL     1      -3.340  11.551  17.901  0.00  0.00    +0.000 A 
ATOM     22  C   UNL     1      -2.178  10.886  18.317  0.00  0.00    +0.000 A 
ATOM     23  C   UNL     1      -1.587   9.960  17.446  0.00  0.00    +0.000 A 
ATOM     24  C   UNL     1      -2.134   9.716  16.183  0.00  0.00    +0.000 A 
ENDBRANCH  17  22
ENDBRANCH  15  17
ENDBRANCH   1  15
TORSDOF 4
ENDMDL
MODEL 8
REMARK VINA RESULT:      -7.3      3.952      5.437
REMARK  Name = 
REMARK  6 active torsions:
REMARK  status: ('A' for Active; 'I' for Inactive)
REMARK    1  A    between atoms: C_1  and  C_2
REMARK    2  A    between atoms: C_5  and  C_6
REMARK    3  A    between atoms: C_6  and  N_7
REMARK    4  A    between atoms: N_7  and  S_8
REMARK    5  A    between atoms: S_8  and  C_11
REMARK    6  A    between atoms: N_17  and  C_18
REMARK                            x       y       z     vdW  Elec       q    Type
REMARK                         _______ _______ _______ _____ _____    ______ ____
ROOT
ATOM      1  S   UNL     1       2.686   5.272  19.766  0.00  0.00    +0.000 S 
ATOM      2  O   UNL     1       2.182   4.433  18.699  0.00  0.00    +0.000 OA
ATOM      3  O   UNL     1       2.410   4.979  21.153  0.00  0.00    +0.000 OA
ENDROOT
BRANCH   1   4
ATOM      4  C   UNL     1       2.164   6.929  19.416  0.00  0.00    +0.000 A 
ATOM      5  C   UNL     1       2.476   7.527  18.197  0.00  0.00    +0.000 A 
ATOM      6  C   UNL     1       2.092   8.847  17.973  0.00  0.00    +0.000 A 
ATOM      7  C   UNL     1       1.419   9.564  18.971  0.00  0.00    +0.000 A 
ATOM      8  C   UNL     1       1.149   8.994  20.239  0.00  0.00    +0.000 A 
ATOM      9  C   UNL     1       1.503   7.648  20.420  0.00  0.00    +0.000 A 
ATOM     10  N   UNL     1       0.522   9.740  21.264  0.00  0.00    +0.000 N 
ATOM     11  C   UNL     1       0.854   9.395  22.646  0.00  0.00    +0.000 C 
ATOM     12  C   UNL     1       0.527  11.183  20.977  0.00  0.00    +0.000 C 
ATOM     13  C   UNL     1       0.136  11.429  19.526  0.00  0.00    +0.000 C 
ATOM     14  O   UNL     1       1.095  10.858  18.630  0.00  0.00    +0.000 OA
ENDBRANCH   1   4
BRANCH   1  15
ATOM     15  N   UNL     1       4.353   5.339  19.561  0.00  0.00    +0.000 NA
ATOM     16  H   UNL     1       4.647   6.211  19.120  0.00  0.00    +0.000 HD
BRANCH  15  17
ATOM     17  C   UNL     1       5.008   4.116  19.096  0.00  0.00    +0.000 C 
BRANCH  17  22
ATOM     18  C   UNL     1       7.196   4.892  13.742  0.00  0.00    +0.000 C 
ATOM     19  C   UNL     1       6.629   4.653  15.110  0.00  0.00    +0.000 A 
ATOM     20  C   UNL     1       5.290   4.284  15.287  0.00  0.00    +0.000 A 
ATOM     21  C   UNL     1       4.769   4.088  16.571  0.00  0.00    +0.000 A 
ATOM     22  C   UNL     1       5.578   4.259  17.703  0.00  0.00    +0.000 A 
ATOM     23  C   UNL     1       6.922   4.615  17.520  0.00  0.00    +0.000 A 
ATOM     24  C   UNL     1       7.441   4.812  16.237  0.00  0.00    +0.000 A 
ENDBRANCH  17  22
ENDBRANCH  15  17
ENDBRANCH   1  15
TORSDOF 4
ENDMDL
MODEL 9
REMARK VINA RESULT:      -7.3      3.609      5.444
REMARK  Name = 
REMARK  6 active torsions:
REMARK  status: ('A' for Active; 'I' for Inactive)
REMARK    1  A    between atoms: C_1  and  C_2
REMARK    2  A    between atoms: C_5  and  C_6
REMARK    3  A    between atoms: C_6  and  N_7
REMARK    4  A    between atoms: N_7  and  S_8
REMARK    5  A    between atoms: S_8  and  C_11
REMARK    6  A    between atoms: N_17  and  C_18
REMARK                            x       y       z     vdW  Elec       q    Type
REMARK                         _______ _______ _______ _____ _____    ______ ____
ROOT
ATOM      1  S   UNL     1       3.317   3.334  17.738  0.00  0.00    +0.000 S 
ATOM      2  O   UNL     1       2.319   3.144  16.707  0.00  0.00    +0.000 OA
ATOM      3  O   UNL     1       3.851   2.222  18.488  0.00  0.00    +0.000 OA
ENDROOT
BRANCH   1   4
ATOM      4  C   UNL     1       2.673   4.534  18.872  0.00  0.00    +0.000 A 
ATOM      5  C   UNL     1       2.030   4.130  20.040  0.00  0.00    +0.000 A 
ATOM      6  C   UNL     1       1.494   5.098  20.885  0.00  0.00    +0.000 A 
ATOM      7  C   UNL     1       1.586   6.455  20.551  0.00  0.00    +0.000 A 
ATOM      8  C   UNL     1       2.179   6.881  19.338  0.00  0.00    +0.000 A 
ATOM      9  C   UNL     1       2.754   5.890  18.528  0.00  0.00    +0.000 A 
ATOM     10  N   UNL     1       2.217   8.248  18.976  0.00  0.00    +0.000 N 
ATOM     11  C   UNL     1       2.204   8.566  17.549  0.00  0.00    +0.000 C 
ATOM     12  C   UNL     1       1.300   9.060  19.791  0.00  0.00    +0.000 C 
ATOM     13  C   UNL     1       1.420   8.670  21.257  0.00  0.00    +0.000 C 
ATOM     14  O   UNL     1       1.016   7.313  21.465  0.00  0.00    +0.000 OA
ENDBRANCH   1   4
BRANCH   1  15
ATOM     15  N   UNL     1       4.598   4.141  17.006  0.00  0.00    +0.000 NA
ATOM     16  H   UNL     1       4.597   4.016  15.994  0.00  0.00    +0.000 HD
BRANCH  15  17
ATOM     17  C   UNL     1       5.896   4.057  17.676  0.00  0.00    +0.000 C 
BRANCH  17  22
ATOM     18  C   UNL     1       8.469   9.272  18.170  0.00  0.00    +0.000 C 
ATOM     19  C   UNL     1       7.824   7.927  18.006  0.00  0.00    +0.000 A 
ATOM     20  C   UNL     1       6.806   7.720  17.067  0.00  0.00    +0.000 A 
ATOM     21  C   UNL     1       6.197   6.467  16.942  0.00  0.00    +0.000 A 
ATOM     22  C   UNL     1       6.594   5.396  17.755  0.00  0.00    +0.000 A 
ATOM     23  C   UNL     1       7.623   5.605  18.685  0.00  0.00    +0.000 A 
ATOM     24  C   UNL     1       8.230   6.858  18.810  0.00  0.00    +0.000 A 
ENDBRANCH  17  22
ENDBRANCH  15  17
ENDBRANCH   1  15
TORSDOF 4
ENDMDL
