MODEL 1
REMARK VINA RESULT:      -6.6      0.000      0.000
REMARK  Name = 
REMARK  5 active torsions:
REMARK  status: ('A' for Active; 'I' for Inactive)
REMARK    1  A    between atoms: C_3  and  N_4
REMARK    2  A    between atoms: C_7  and  N_8
REMARK    3  A    between atoms: C_14  and  O_15
REMARK    4  A    between atoms: O_15  and  S_16
REMARK    5  A    between atoms: S_16  and  C_19
REMARK                            x       y       z     vdW  Elec       q    Type
REMARK                         _______ _______ _______ _____ _____    ______ ____
ROOT
ATOM      1  O   UNL     1      -4.924  13.696  20.711  0.00  0.00    +0.000 OA
ATOM      2  C   UNL     1      -4.118  12.878  20.269  0.00  0.00    +0.000 C 
ATOM      3  C   UNL     1      -4.305  12.201  18.912  0.00  0.00    +0.000 C 
ATOM      4  C   UNL     1      -3.187  11.710  18.311  0.00  0.00    +0.000 C 
ATOM      5  C   UNL     1      -1.878  11.863  19.082  0.00  0.00    +0.000 C 
ATOM      6  O   UNL     1      -0.792  12.010  18.519  0.00  0.00    +0.000 OA
ATOM      7  C   UNL     1      -1.878  11.880  20.543  0.00  0.00    +0.000 A 
ATOM      8  C   UNL     1      -0.779  11.516  21.349  0.00  0.00    +0.000 A 
ATOM      9  C   UNL     1      -0.776  11.908  22.698  0.00  0.00    +0.000 A 
ATOM     10  C   UNL     1      -1.848  12.618  23.244  0.00  0.00    +0.000 A 
ATOM     11  C   UNL     1      -2.953  12.911  22.453  0.00  0.00    +0.000 A 
ATOM     12  C   UNL     1      -2.967  12.527  21.105  0.00  0.00    +0.000 A 
ENDROOT
BRANCH   3  13
ATOM     13  N   UNL     1      -5.647  12.347  18.565  0.00  0.00    +0.000 N 
ATOM     14  C   UNL     1      -6.461  11.313  17.961  0.00  0.00    +0.000 C 
ATOM     15  C   UNL     1      -6.040  12.532  17.177  0.00  0.00    +0.000 C 
ENDBRANCH   3  13
BRANCH   4  16
ATOM     16  N   UNL     1      -2.877  11.192  17.061  0.00  0.00    +0.000 N 
ATOM     17  C   UNL     1      -3.227   9.799  16.789  0.00  0.00    +0.000 C 
ATOM     18  C   UNL     1      -3.631  10.926  15.872  0.00  0.00    +0.000 C 
ENDBRANCH   4  16
BRANCH   8  19
ATOM     19  O   UNL     1       0.371  10.848  20.977  0.00  0.00    +0.000 OA
BRANCH  19  20
ATOM     20  S   UNL     1       0.721   9.327  21.456  0.00  0.00    +0.000 S 
ATOM     21  O   UNL     1       1.767   9.327  22.469  0.00  0.00    +0.000 OA
ATOM     22  O   UNL     1      -0.485   8.535  21.560  0.00  0.00    +0.000 OA
BRANCH  20  23
ATOM     23  C   UNL     1       1.523   8.601  20.025  0.00  0.00    +0.000 A 
ATOM     24  C   UNL     1       1.657   9.085  18.734  0.00  0.00    +0.000 A 
ATOM     25  C   UNL     1       2.198   8.119  17.837  0.00  0.00    +0.000 A 
ATOM     26  C   UNL     1       2.509   6.944  18.486  0.00  0.00    +0.000 A 
ATOM     27  S   UNL     1       2.157   7.021  20.166  0.00  0.00    +0.000 S 
ENDBRANCH  20  23
ENDBRANCH  19  20
ENDBRANCH   8  19
TORSDOF 5
ENDMDL
MODEL 2
REMARK VINA RESULT:      -6.4      3.959      8.056
REMARK  Name = 
REMARK  5 active torsions:
REMARK  status: ('A' for Active; 'I' for Inactive)
REMARK    1  A    between atoms: C_3  and  N_4
REMARK    2  A    between atoms: C_7  and  N_8
REMARK    3  A    between atoms: C_14  and  O_15
REMARK    4  A    between atoms: O_15  and  S_16
REMARK    5  A    between atoms: S_16  and  C_19
REMARK                            x       y       z     vdW  Elec       q    Type
REMARK                         _______ _______ _______ _____ _____    ______ ____
ROOT
ATOM      1  O   UNL     1       4.237   6.972  17.252  0.00  0.00    +0.000 OA
ATOM      2  C   UNL     1       3.314   6.841  18.054  0.00  0.00    +0.000 C 
ATOM      3  C   UNL     1       3.008   5.506  18.732  0.00  0.00    +0.000 C 
ATOM      4  C   UNL     1       2.323   5.557  19.908  0.00  0.00    +0.000 C 
ATOM      5  C   UNL     1       1.910   6.943  20.395  0.00  0.00    +0.000 C 
ATOM      6  O   UNL     1       1.823   7.225  21.591  0.00  0.00    +0.000 OA
ATOM      7  C   UNL     1       1.641   8.013  19.437  0.00  0.00    +0.000 A 
ATOM      8  C   UNL     1       0.805   9.122  19.688  0.00  0.00    +0.000 A 
ATOM      9  C   UNL     1       0.904  10.242  18.847  0.00  0.00    +0.000 A 
ATOM     10  C   UNL     1       1.789  10.256  17.766  0.00  0.00    +0.000 A 
ATOM     11  C   UNL     1       2.558   9.130  17.493  0.00  0.00    +0.000 A 
ATOM     12  C   UNL     1       2.468   8.006  18.325  0.00  0.00    +0.000 A 
ENDROOT
BRANCH   3  13
ATOM     13  N   UNL     1       3.625   4.512  17.974  0.00  0.00    +0.000 N 
ATOM     14  C   UNL     1       3.055   3.212  17.696  0.00  0.00    +0.000 C 
ATOM     15  C   UNL     1       4.241   3.363  18.617  0.00  0.00    +0.000 C 
ENDBRANCH   3  13
BRANCH   4  16
ATOM     16  N   UNL     1       1.991   4.648  20.903  0.00  0.00    +0.000 N 
ATOM     17  C   UNL     1       0.965   3.650  20.606  0.00  0.00    +0.000 C 
ATOM     18  C   UNL     1       2.317   3.277  21.158  0.00  0.00    +0.000 C 
ENDBRANCH   4  16
BRANCH   8  19
ATOM     19  O   UNL     1      -0.099   9.296  20.718  0.00  0.00    +0.000 OA
BRANCH  19  20
ATOM     20  S   UNL     1       0.192  10.238  22.019  0.00  0.00    +0.000 S 
ATOM     21  O   UNL     1       0.038   9.484  23.255  0.00  0.00    +0.000 OA
ATOM     22  O   UNL     1       1.302  11.128  21.764  0.00  0.00    +0.000 OA
BRANCH  20  23
ATOM     23  C   UNL     1      -1.198  11.372  22.044  0.00  0.00    +0.000 A 
ATOM     24  C   UNL     1      -2.028  11.747  23.088  0.00  0.00    +0.000 A 
ATOM     25  C   UNL     1      -3.138  12.529  22.656  0.00  0.00    +0.000 A 
ATOM     26  C   UNL     1      -3.090  12.770  21.300  0.00  0.00    +0.000 A 
ATOM     27  S   UNL     1      -1.707  12.063  20.566  0.00  0.00    +0.000 S 
ENDBRANCH  20  23
ENDBRANCH  19  20
ENDBRANCH   8  19
TORSDOF 5
ENDMDL
MODEL 3
REMARK VINA RESULT:      -6.4      5.726      8.628
REMARK  Name = 
REMARK  5 active torsions:
REMARK  status: ('A' for Active; 'I' for Inactive)
REMARK    1  A    between atoms: C_3  and  N_4
REMARK    2  A    between atoms: C_7  and  N_8
REMARK    3  A    between atoms: C_14  and  O_15
REMARK    4  A    between atoms: O_15  and  S_16
REMARK    5  A    between atoms: S_16  and  C_19
REMARK                            x       y       z     vdW  Elec       q    Type
REMARK                         _______ _______ _______ _____ _____    ______ ____
ROOT
ATOM      1  O   UNL     1       2.270   5.114  21.597  0.00  0.00    +0.000 OA
ATOM      2  C   UNL     1       2.359   5.585  20.464  0.00  0.00    +0.000 C 
ATOM      3  C   UNL     1       1.833   6.976  20.117  0.00  0.00    +0.000 C 
ATOM      4  C   UNL     1       2.379   7.586  19.028  0.00  0.00    +0.000 C 
ATOM      5  C   UNL     1       3.431   6.790  18.260  0.00  0.00    +0.000 C 
ATOM      6  O   UNL     1       4.370   7.330  17.673  0.00  0.00    +0.000 OA
ATOM      7  C   UNL     1       3.379   5.330  18.232  0.00  0.00    +0.000 A 
ATOM      8  C   UNL     1       3.932   4.528  17.212  0.00  0.00    +0.000 A 
ATOM      9  C   UNL     1       4.133   3.161  17.466  0.00  0.00    +0.000 A 
ATOM     10  C   UNL     1       3.768   2.595  18.690  0.00  0.00    +0.000 A 
ATOM     11  C   UNL     1       3.163   3.385  19.661  0.00  0.00    +0.000 A 
ATOM     12  C   UNL     1       2.958   4.751  19.419  0.00  0.00    +0.000 A 
ENDROOT
BRANCH   3  13
ATOM     13  N   UNL     1       0.933   7.335  21.119  0.00  0.00    +0.000 N 
ATOM     14  C   UNL     1      -0.068   8.373  20.997  0.00  0.00    +0.000 C 
ATOM     15  C   UNL     1       1.131   8.547  21.897  0.00  0.00    +0.000 C 
ENDBRANCH   3  13
BRANCH   4  16
ATOM     16  N   UNL     1       2.326   8.855  18.471  0.00  0.00    +0.000 N 
ATOM     17  C   UNL     1       1.235   9.154  17.545  0.00  0.00    +0.000 C 
ATOM     18  C   UNL     1       1.551  10.032  18.729  0.00  0.00    +0.000 C 
ENDBRANCH   4  16
BRANCH   8  19
ATOM     19  O   UNL     1       4.376   4.917  15.963  0.00  0.00    +0.000 OA
BRANCH  19  20
ATOM     20  S   UNL     1       5.927   4.770  15.474  0.00  0.00    +0.000 S 
ATOM     21  O   UNL     1       6.308   3.370  15.362  0.00  0.00    +0.000 OA
ATOM     22  O   UNL     1       6.240   5.762  14.469  0.00  0.00    +0.000 OA
BRANCH  20  23
ATOM     23  C   UNL     1       6.875   5.352  16.881  0.00  0.00    +0.000 A 
ATOM     24  C   UNL     1       7.273   4.685  18.029  0.00  0.00    +0.000 A 
ATOM     25  C   UNL     1       7.851   5.555  18.998  0.00  0.00    +0.000 A 
ATOM     26  C   UNL     1       7.922   6.851  18.537  0.00  0.00    +0.000 A 
ATOM     27  S   UNL     1       7.304   7.005  16.942  0.00  0.00    +0.000 S 
ENDBRANCH  20  23
ENDBRANCH  19  20
ENDBRANCH   8  19
TORSDOF 5
ENDMDL
MODEL 4
REMARK VINA RESULT:      -6.3      3.490      7.320
REMARK  Name = 
REMARK  5 active torsions:
REMARK  status: ('A' for Active; 'I' for Inactive)
REMARK    1  A    between atoms: C_3  and  N_4
REMARK    2  A    between atoms: C_7  and  N_8
REMARK    3  A    between atoms: C_14  and  O_15
REMARK    4  A    between atoms: O_15  and  S_16
REMARK    5  A    between atoms: S_16  and  C_19
REMARK                            x       y       z     vdW  Elec       q    Type
REMARK                         _______ _______ _______ _____ _____    ______ ____
ROOT
ATOM      1  O   UNL     1       0.465   9.737  18.629  0.00  0.00    +0.000 OA
ATOM      2  C   UNL     1      -0.533  10.296  19.081  0.00  0.00    +0.000 C 
ATOM      3  C   UNL     1      -0.612  10.777  20.529  0.00  0.00    +0.000 C 
ATOM      4  C   UNL     1      -1.506  11.767  20.800  0.00  0.00    +0.000 C 
ATOM      5  C   UNL     1      -2.352  12.258  19.629  0.00  0.00    +0.000 C 
ATOM      6  O   UNL     1      -2.746  13.421  19.539  0.00  0.00    +0.000 OA
ATOM      7  C   UNL     1      -2.694  11.353  18.533  0.00  0.00    +0.000 A 
ATOM      8  C   UNL     1      -3.821  11.496  17.697  0.00  0.00    +0.000 A 
ATOM      9  C   UNL     1      -3.850  10.793  16.482  0.00  0.00    +0.000 A 
ATOM     10  C   UNL     1      -2.802   9.945  16.115  0.00  0.00    +0.000 A 
ATOM     11  C   UNL     1      -1.730   9.763  16.980  0.00  0.00    +0.000 A 
ATOM     12  C   UNL     1      -1.689  10.461  18.195  0.00  0.00    +0.000 A 
ENDROOT
BRANCH   3  13
ATOM     13  N   UNL     1       0.380  10.102  21.238  0.00  0.00    +0.000 N 
ATOM     14  C   UNL     1       0.403   8.673  21.471  0.00  0.00    +0.000 C 
ATOM     15  C   UNL     1       0.142   9.644  22.597  0.00  0.00    +0.000 C 
ENDBRANCH   3  13
BRANCH   4  16
ATOM     16  N   UNL     1      -1.783  12.585  21.886  0.00  0.00    +0.000 N 
ATOM     17  C   UNL     1      -2.374  11.971  23.074  0.00  0.00    +0.000 C 
ATOM     18  C   UNL     1      -1.140  12.834  23.143  0.00  0.00    +0.000 C 
ENDBRANCH   4  16
BRANCH   8  19
ATOM     19  O   UNL     1      -4.926  12.305  17.882  0.00  0.00    +0.000 OA
BRANCH  19  20
ATOM     20  S   UNL     1      -6.334  11.772  18.513  0.00  0.00    +0.000 S 
ATOM     21  O   UNL     1      -7.472  12.326  17.794  0.00  0.00    +0.000 OA
ATOM     22  O   UNL     1      -6.231  10.378  18.883  0.00  0.00    +0.000 OA
BRANCH  20  23
ATOM     23  C   UNL     1      -6.417  12.577  20.114  0.00  0.00    +0.000 A 
ATOM     24  C   UNL     1      -5.634  12.404  21.244  0.00  0.00    +0.000 A 
ATOM     25  C   UNL     1      -6.143  13.100  22.378  0.00  0.00    +0.000 A 
ATOM     26  C   UNL     1      -7.272  13.824  22.063  0.00  0.00    +0.000 A 
ATOM     27  S   UNL     1      -7.699  13.668  20.407  0.00  0.00    +0.000 S 
ENDBRANCH  20  23
ENDBRANCH  19  20
ENDBRANCH   8  19
TORSDOF 5
ENDMDL
MODEL 5
REMARK VINA RESULT:      -6.3      3.894      6.735
REMARK  Name = 
REMARK  5 active torsions:
REMARK  status: ('A' for Active; 'I' for Inactive)
REMARK    1  A    between atoms: C_3  and  N_4
REMARK    2  A    between atoms: C_7  and  N_8
REMARK    3  A    between atoms: C_14  and  O_15
REMARK    4  A    between atoms: O_15  and  S_16
REMARK    5  A    between atoms: S_16  and  C_19
REMARK                            x       y       z     vdW  Elec       q    Type
REMARK                         _______ _______ _______ _____ _____    ______ ____
ROOT
ATOM      1  O   UNL     1       1.528   9.982  17.495  0.00  0.00    +0.000 OA
ATOM      2  C   UNL     1       1.535   9.443  18.602  0.00  0.00    +0.000 C 
ATOM      3  C   UNL     1       0.882  10.084  19.824  0.00  0.00    +0.000 C 
ATOM      4  C   UNL     1       0.523   9.249  20.838  0.00  0.00    +0.000 C 
ATOM      5  C   UNL     1       0.849   7.770  20.648  0.00  0.00    +0.000 C 
ATOM      6  O   UNL     1       0.151   6.872  21.122  0.00  0.00    +0.000 OA
ATOM      7  C   UNL     1       2.001   7.364  19.845  0.00  0.00    +0.000 A 
ATOM      8  C   UNL     1       2.691   6.142  19.993  0.00  0.00    +0.000 A 
ATOM      9  C   UNL     1       3.533   5.716  18.953  0.00  0.00    +0.000 A 
ATOM     10  C   UNL     1       3.712   6.493  17.807  0.00  0.00    +0.000 A 
ATOM     11  C   UNL     1       3.078   7.726  17.706  0.00  0.00    +0.000 A 
ATOM     12  C   UNL     1       2.233   8.162  18.736  0.00  0.00    +0.000 A 
ENDROOT
BRANCH   3  13
ATOM     13  N   UNL     1       0.722  11.439  19.539  0.00  0.00    +0.000 N 
ATOM     14  C   UNL     1       0.705  12.495  20.529  0.00  0.00    +0.000 C 
ATOM     15  C   UNL     1      -0.548  12.105  19.781  0.00  0.00    +0.000 C 
ENDBRANCH   3  13
BRANCH   4  16
ATOM     16  N   UNL     1      -0.214   9.366  22.008  0.00  0.00    +0.000 N 
ATOM     17  C   UNL     1       0.515   9.496  23.268  0.00  0.00    +0.000 C 
ATOM     18  C   UNL     1      -0.571  10.460  22.862  0.00  0.00    +0.000 C 
ENDBRANCH   4  16
BRANCH   8  19
ATOM     19  O   UNL     1       2.613   5.236  21.034  0.00  0.00    +0.000 OA
BRANCH  19  20
ATOM     20  S   UNL     1       1.776   3.837  20.947  0.00  0.00    +0.000 S 
ATOM     21  O   UNL     1       1.863   3.099  22.198  0.00  0.00    +0.000 OA
ATOM     22  O   UNL     1       0.539   4.029  20.222  0.00  0.00    +0.000 OA
BRANCH  20  23
ATOM     23  C   UNL     1       2.730   2.839  19.802  0.00  0.00    +0.000 A 
ATOM     24  C   UNL     1       2.372   2.291  18.580  0.00  0.00    +0.000 A 
ATOM     25  C   UNL     1       3.358   1.400  18.067  0.00  0.00    +0.000 A 
ATOM     26  C   UNL     1       4.461   1.336  18.891  0.00  0.00    +0.000 A 
ATOM     27  S   UNL     1       4.302   2.356  20.264  0.00  0.00    +0.000 S 
ENDBRANCH  20  23
ENDBRANCH  19  20
ENDBRANCH   8  19
TORSDOF 5
ENDMDL
MODEL 6
REMARK VINA RESULT:      -6.3      3.901      7.661
REMARK  Name = 
REMARK  5 active torsions:
REMARK  status: ('A' for Active; 'I' for Inactive)
REMARK    1  A    between atoms: C_3  and  N_4
REMARK    2  A    between atoms: C_7  and  N_8
REMARK    3  A    between atoms: C_14  and  O_15
REMARK    4  A    between atoms: O_15  and  S_16
REMARK    5  A    between atoms: S_16  and  C_19
REMARK                            x       y       z     vdW  Elec       q    Type
REMARK                         _______ _______ _______ _____ _____    ______ ____
ROOT
ATOM      1  O   UNL     1       1.760   5.053  20.716  0.00  0.00    +0.000 OA
ATOM      2  C   UNL     1       2.200   6.036  20.121  0.00  0.00    +0.000 C 
ATOM      3  C   UNL     1       3.372   5.939  19.147  0.00  0.00    +0.000 C 
ATOM      4  C   UNL     1       3.476   6.923  18.211  0.00  0.00    +0.000 C 
ATOM      5  C   UNL     1       2.425   8.028  18.268  0.00  0.00    +0.000 C 
ATOM      6  O   UNL     1       2.030   8.617  17.260  0.00  0.00    +0.000 OA
ATOM      7  C   UNL     1       1.814   8.402  19.541  0.00  0.00    +0.000 A 
ATOM      8  C   UNL     1       1.251   9.665  19.820  0.00  0.00    +0.000 A 
ATOM      9  C   UNL     1       0.391   9.789  20.923  0.00  0.00    +0.000 A 
ATOM     10  C   UNL     1       0.117   8.696  21.749  0.00  0.00    +0.000 A 
ATOM     11  C   UNL     1       0.732   7.475  21.500  0.00  0.00    +0.000 A 
ATOM     12  C   UNL     1       1.591   7.338  20.401  0.00  0.00    +0.000 A 
ENDROOT
BRANCH   3  13
ATOM     13  N   UNL     1       4.033   4.742  19.418  0.00  0.00    +0.000 N 
ATOM     14  C   UNL     1       5.384   4.431  19.004  0.00  0.00    +0.000 C 
ATOM     15  C   UNL     1       4.197   3.733  18.385  0.00  0.00    +0.000 C 
ENDBRANCH   3  13
BRANCH   4  16
ATOM     16  N   UNL     1       4.247   7.137  17.077  0.00  0.00    +0.000 N 
ATOM     17  C   UNL     1       5.701   7.142  17.226  0.00  0.00    +0.000 C 
ATOM     18  C   UNL     1       4.999   6.288  16.201  0.00  0.00    +0.000 C 
ENDBRANCH   4  16
BRANCH   8  19
ATOM     19  O   UNL     1       1.384  10.839  19.103  0.00  0.00    +0.000 OA
BRANCH  19  20
ATOM     20  S   UNL     1       0.253  12.016  19.088  0.00  0.00    +0.000 S 
ATOM     21  O   UNL     1      -0.137  12.382  20.441  0.00  0.00    +0.000 OA
ATOM     22  O   UNL     1       0.542  12.986  18.054  0.00  0.00    +0.000 OA
BRANCH  20  23
ATOM     23  C   UNL     1      -1.205  11.199  18.437  0.00  0.00    +0.000 A 
ATOM     24  C   UNL     1      -1.316  10.130  17.562  0.00  0.00    +0.000 A 
ATOM     25  C   UNL     1      -2.657   9.901  17.141  0.00  0.00    +0.000 A 
ATOM     26  C   UNL     1      -3.535  10.771  17.749  0.00  0.00    +0.000 A 
ATOM     27  S   UNL     1      -2.738  11.845  18.826  0.00  0.00    +0.000 S 
ENDBRANCH  20  23
ENDBRANCH  19  20
ENDBRANCH   8  19
TORSDOF 5
ENDMDL
MODEL 7
REMARK VINA RESULT:      -6.1      5.832      8.937
REMARK  Name = 
REMARK  5 active torsions:
REMARK  status: ('A' for Active; 'I' for Inactive)
REMARK    1  A    between atoms: C_3  and  N_4
REMARK    2  A    between atoms: C_7  and  N_8
REMARK    3  A    between atoms: C_14  and  O_15
REMARK    4  A    between atoms: O_15  and  S_16
REMARK    5  A    between atoms: S_16  and  C_19
REMARK                            x       y       z     vdW  Elec       q    Type
REMARK                         _______ _______ _______ _____ _____    ______ ____
ROOT
ATOM      1  O   UNL     1       2.168   4.966  21.679  0.00  0.00    +0.000 OA
ATOM      2  C   UNL     1       2.281   5.438  20.548  0.00  0.00    +0.000 C 
ATOM      3  C   UNL     1       1.812   6.850  20.204  0.00  0.00    +0.000 C 
ATOM      4  C   UNL     1       2.385   7.442  19.120  0.00  0.00    +0.000 C 
ATOM      5  C   UNL     1       3.408   6.608  18.353  0.00  0.00    +0.000 C 
ATOM      6  O   UNL     1       4.370   7.112  17.771  0.00  0.00    +0.000 OA
ATOM      7  C   UNL     1       3.298   5.151  18.319  0.00  0.00    +0.000 A 
ATOM      8  C   UNL     1       3.823   4.331  17.297  0.00  0.00    +0.000 A 
ATOM      9  C   UNL     1       3.968   2.957  17.547  0.00  0.00    +0.000 A 
ATOM     10  C   UNL     1       3.576   2.401  18.767  0.00  0.00    +0.000 A 
ATOM     11  C   UNL     1       2.999   3.211  19.738  0.00  0.00    +0.000 A 
ATOM     12  C   UNL     1       2.850   4.585  19.501  0.00  0.00    +0.000 A 
ENDROOT
BRANCH   3  13
ATOM     13  N   UNL     1       0.923   7.240  21.205  0.00  0.00    +0.000 N 
ATOM     14  C   UNL     1      -0.097   8.256  21.054  0.00  0.00    +0.000 C 
ATOM     15  C   UNL     1       1.114   8.490  21.923  0.00  0.00    +0.000 C 
ENDBRANCH   3  13
BRANCH   4  16
ATOM     16  N   UNL     1       2.386   8.715  18.568  0.00  0.00    +0.000 N 
ATOM     17  C   UNL     1       1.392   9.017  17.539  0.00  0.00    +0.000 C 
ATOM     18  C   UNL     1       1.585   9.888  18.754  0.00  0.00    +0.000 C 
ENDBRANCH   4  16
BRANCH   8  19
ATOM     19  O   UNL     1       4.286   4.708  16.051  0.00  0.00    +0.000 OA
BRANCH  19  20
ATOM     20  S   UNL     1       5.859   5.000  15.728  0.00  0.00    +0.000 S 
ATOM     21  O   UNL     1       6.114   6.429  15.626  0.00  0.00    +0.000 OA
ATOM     22  O   UNL     1       6.708   4.093  16.469  0.00  0.00    +0.000 OA
BRANCH  20  23
ATOM     23  C   UNL     1       6.066   4.415  14.045  0.00  0.00    +0.000 A 
ATOM     24  C   UNL     1       5.298   3.530  13.305  0.00  0.00    +0.000 A 
ATOM     25  C   UNL     1       5.906   3.178  12.066  0.00  0.00    +0.000 A 
ATOM     26  C   UNL     1       7.096   3.846  11.877  0.00  0.00    +0.000 A 
ATOM     27  S   UNL     1       7.462   4.897  13.185  0.00  0.00    +0.000 S 
ENDBRANCH  20  23
ENDBRANCH  19  20
ENDBRANCH   8  19
TORSDOF 5
ENDMDL
MODEL 8
REMARK VINA RESULT:      -6.0      4.919      7.747
REMARK  Name = 
REMARK  5 active torsions:
REMARK  status: ('A' for Active; 'I' for Inactive)
REMARK    1  A    between atoms: C_3  and  N_4
REMARK    2  A    between atoms: C_7  and  N_8
REMARK    3  A    between atoms: C_14  and  O_15
REMARK    4  A    between atoms: O_15  and  S_16
REMARK    5  A    between atoms: S_16  and  C_19
REMARK                            x       y       z     vdW  Elec       q    Type
REMARK                         _______ _______ _______ _____ _____    ______ ____
ROOT
ATOM      1  O   UNL     1       1.528   5.114  20.688  0.00  0.00    +0.000 OA
ATOM      2  C   UNL     1       2.018   6.097  20.133  0.00  0.00    +0.000 C 
ATOM      3  C   UNL     1       3.216   5.988  19.193  0.00  0.00    +0.000 C 
ATOM      4  C   UNL     1       3.380   6.992  18.287  0.00  0.00    +0.000 C 
ATOM      5  C   UNL     1       2.363   8.129  18.343  0.00  0.00    +0.000 C 
ATOM      6  O   UNL     1       2.018   8.757  17.340  0.00  0.00    +0.000 OA
ATOM      7  C   UNL     1       1.724   8.489  19.606  0.00  0.00    +0.000 A 
ATOM      8  C   UNL     1       1.193   9.762  19.902  0.00  0.00    +0.000 A 
ATOM      9  C   UNL     1       0.304   9.885  20.983  0.00  0.00    +0.000 A 
ATOM     10  C   UNL     1      -0.030   8.780  21.770  0.00  0.00    +0.000 A 
ATOM     11  C   UNL     1       0.553   7.546  21.506  0.00  0.00    +0.000 A 
ATOM     12  C   UNL     1       1.441   7.411  20.430  0.00  0.00    +0.000 A 
ENDROOT
BRANCH   3  13
ATOM     13  N   UNL     1       3.829   4.764  19.452  0.00  0.00    +0.000 N 
ATOM     14  C   UNL     1       5.189   4.428  19.089  0.00  0.00    +0.000 C 
ATOM     15  C   UNL     1       4.014   3.786  18.392  0.00  0.00    +0.000 C 
ENDBRANCH   3  13
BRANCH   4  16
ATOM     16  N   UNL     1       4.191   7.211  17.183  0.00  0.00    +0.000 N 
ATOM     17  C   UNL     1       5.640   7.134  17.370  0.00  0.00    +0.000 C 
ATOM     18  C   UNL     1       4.923   6.359  16.293  0.00  0.00    +0.000 C 
ENDBRANCH   4  16
BRANCH   8  19
ATOM     19  O   UNL     1       1.386  10.949  19.222  0.00  0.00    +0.000 OA
BRANCH  19  20
ATOM     20  S   UNL     1       0.904  12.401  19.793  0.00  0.00    +0.000 S 
ATOM     21  O   UNL     1      -0.444  12.716  19.343  0.00  0.00    +0.000 OA
ATOM     22  O   UNL     1       1.350  12.585  21.156  0.00  0.00    +0.000 OA
BRANCH  20  23
ATOM     23  C   UNL     1       1.929  13.572  18.902  0.00  0.00    +0.000 A 
ATOM     24  C   UNL     1       3.124  13.383  18.227  0.00  0.00    +0.000 A 
ATOM     25  C   UNL     1       3.722  14.607  17.812  0.00  0.00    +0.000 A 
ATOM     26  C   UNL     1       2.936  15.691  18.137  0.00  0.00    +0.000 A 
ATOM     27  S   UNL     1       1.485  15.222  18.928  0.00  0.00    +0.000 S 
ENDBRANCH  20  23
ENDBRANCH  19  20
ENDBRANCH   8  19
TORSDOF 5
ENDMDL
MODEL 9
REMARK VINA RESULT:      -6.0      3.493      5.889
REMARK  Name = 
REMARK  5 active torsions:
REMARK  status: ('A' for Active; 'I' for Inactive)
REMARK    1  A    between atoms: C_3  and  N_4
REMARK    2  A    between atoms: C_7  and  N_8
REMARK    3  A    between atoms: C_14  and  O_15
REMARK    4  A    between atoms: O_15  and  S_16
REMARK    5  A    between atoms: S_16  and  C_19
REMARK                            x       y       z     vdW  Elec       q    Type
REMARK                         _______ _______ _______ _____ _____    ______ ____
ROOT
ATOM      1  O   UNL     1      -5.947  11.045  17.562  0.00  0.00    +0.000 OA
ATOM      2  C   UNL     1      -5.195  11.364  18.482  0.00  0.00    +0.000 C 
ATOM      3  C   UNL     1      -3.674  11.327  18.340  0.00  0.00    +0.000 C 
ATOM      4  C   UNL     1      -2.958  12.118  19.186  0.00  0.00    +0.000 C 
ATOM      5  C   UNL     1      -3.761  12.925  20.204  0.00  0.00    +0.000 C 
ATOM      6  O   UNL     1      -3.392  14.027  20.611  0.00  0.00    +0.000 OA
ATOM      7  C   UNL     1      -5.037  12.422  20.705  0.00  0.00    +0.000 A 
ATOM      8  C   UNL     1      -5.606  12.774  21.948  0.00  0.00    +0.000 A 
ATOM      9  C   UNL     1      -6.970  12.517  22.159  0.00  0.00    +0.000 A 
ATOM     10  C   UNL     1      -7.748  11.901  21.176  0.00  0.00    +0.000 A 
ATOM     11  C   UNL     1      -7.159  11.500  19.983  0.00  0.00    +0.000 A 
ATOM     12  C   UNL     1      -5.798  11.752  19.760  0.00  0.00    +0.000 A 
ENDROOT
BRANCH   3  13
ATOM     13  N   UNL     1      -3.386  10.510  17.248  0.00  0.00    +0.000 N 
ATOM     14  C   UNL     1      -2.088   9.935  16.967  0.00  0.00    +0.000 C 
ATOM     15  C   UNL     1      -2.660  11.031  16.101  0.00  0.00    +0.000 C 
ENDBRANCH   3  13
BRANCH   4  16
ATOM     16  N   UNL     1      -1.632  12.508  19.297  0.00  0.00    +0.000 N 
ATOM     17  C   UNL     1      -0.785  11.798  20.255  0.00  0.00    +0.000 C 
ATOM     18  C   UNL     1      -0.389  11.984  18.812  0.00  0.00    +0.000 C 
ENDBRANCH   4  16
BRANCH   8  19
ATOM     19  O   UNL     1      -5.002  13.411  23.015  0.00  0.00    +0.000 OA
BRANCH  19  20
ATOM     20  S   UNL     1      -3.858  12.713  23.948  0.00  0.00    +0.000 S 
ATOM     21  O   UNL     1      -4.367  12.447  25.285  0.00  0.00    +0.000 OA
ATOM     22  O   UNL     1      -3.094  11.753  23.183  0.00  0.00    +0.000 OA
BRANCH  20  23
ATOM     23  C   UNL     1      -2.661  14.023  24.207  0.00  0.00    +0.000 A 
ATOM     24  C   UNL     1      -1.418  14.227  23.629  0.00  0.00    +0.000 A 
ATOM     25  C   UNL     1      -0.691  15.286  24.245  0.00  0.00    +0.000 A 
ATOM     26  C   UNL     1      -1.425  15.891  25.242  0.00  0.00    +0.000 A 
ATOM     27  S   UNL     1      -2.982  15.186  25.417  0.00  0.00    +0.000 S 
ENDBRANCH  20  23
ENDBRANCH  19  20
ENDBRANCH   8  19
TORSDOF 5
ENDMDL
