MODEL 1
REMARK VINA RESULT:      -7.7      0.000      0.000
REMARK  Name = 
REMARK  4 active torsions:
REMARK  status: ('A' for Active; 'I' for Inactive)
REMARK    1  A    between atoms: C_2  and  C_18
REMARK    2  A    between atoms: N_3  and  C_4
REMARK    3  A    between atoms: C_10  and  S_11
REMARK    4  A    between atoms: S_11  and  C_12
REMARK                            x       y       z     vdW  Elec       q    Type
REMARK                         _______ _______ _______ _____ _____    ______ ____
ROOT
ATOM      1  C   UNL     1       3.798   6.272  18.021  0.00  0.00    +0.000 A 
ATOM      2  C   UNL     1       5.115   6.721  17.842  0.00  0.00    +0.000 A 
ATOM      3  C   UNL     1       5.995   6.038  17.006  0.00  0.00    +0.000 A 
ATOM      4 CL   UNL     1       7.603   6.621  16.801  0.00  0.00    +0.000 Cl
ATOM      5  C   UNL     1       5.587   4.889  16.343  0.00  0.00    +0.000 A 
ATOM      6  C   UNL     1       4.294   4.400  16.544  0.00  0.00    +0.000 A 
ATOM      7  C   UNL     1       3.395   5.074  17.387  0.00  0.00    +0.000 A 
ENDROOT
BRANCH   1  10
ATOM      8  O   UNL     1       2.374   8.743  17.364  0.00  0.00    +0.000 OA
ATOM      9  C   UNL     1       2.259   8.185  18.452  0.00  0.00    +0.000 C 
ATOM     10  N   UNL     1       2.876   6.997  18.826  0.00  0.00    +0.000 N 
ATOM     11  H   UNL     1       2.519   6.507  19.636  0.00  0.00    +0.000 HD
BRANCH   9  12
ATOM     12  C   UNL     1       1.324   8.794  19.427  0.00  0.00    +0.000 A 
ATOM     13  C   UNL     1       0.561   9.892  18.997  0.00  0.00    +0.000 A 
ATOM     14  C   UNL     1      -0.290  10.550  19.882  0.00  0.00    +0.000 A 
ATOM     15  C   UNL     1      -0.373  10.121  21.205  0.00  0.00    +0.000 A 
ATOM     16  C   UNL     1       0.394   9.040  21.643  0.00  0.00    +0.000 A 
ATOM     17  C   UNL     1       1.242   8.370  20.757  0.00  0.00    +0.000 A 
ENDBRANCH   9  12
ENDBRANCH   1  10
BRANCH   7  18
ATOM     18  S   UNL     1       1.795   4.318  17.680  0.00  0.00    +0.000 S 
BRANCH  18  19
ATOM     19  C   UNL     1       1.986   3.490  19.251  0.00  0.00    +0.000 A 
ATOM     20  C   UNL     1       3.243   2.976  19.602  0.00  0.00    +0.000 A 
ATOM     21  C   UNL     1       3.468   2.451  20.880  0.00  0.00    +0.000 A 
ATOM     22  C   UNL     1       2.437   2.436  21.816  0.00  0.00    +0.000 A 
ATOM     23  C   UNL     1       1.179   2.925  21.470  0.00  0.00    +0.000 A 
ATOM     24  C   UNL     1       0.955   3.447  20.194  0.00  0.00    +0.000 A 
ENDBRANCH  18  19
ENDBRANCH   7  18
TORSDOF 4
ENDMDL
MODEL 2
REMARK VINA RESULT:      -7.7      0.123      1.015
REMARK  Name = 
REMARK  4 active torsions:
REMARK  status: ('A' for Active; 'I' for Inactive)
REMARK    1  A    between atoms: C_2  and  C_18
REMARK    2  A    between atoms: N_3  and  C_4
REMARK    3  A    between atoms: C_10  and  S_11
REMARK    4  A    between atoms: S_11  and  C_12
REMARK                            x       y       z     vdW  Elec       q    Type
REMARK                         _______ _______ _______ _____ _____    ______ ____
ROOT
ATOM      1  C   UNL     1       3.773   6.231  17.961  0.00  0.00    +0.000 A 
ATOM      2  C   UNL     1       5.092   6.658  17.750  0.00  0.00    +0.000 A 
ATOM      3  C   UNL     1       5.951   5.945  16.918  0.00  0.00    +0.000 A 
ATOM      4 CL   UNL     1       7.561   6.502  16.674  0.00  0.00    +0.000 Cl
ATOM      5  C   UNL     1       5.519   4.784  16.291  0.00  0.00    +0.000 A 
ATOM      6  C   UNL     1       4.223   4.317  16.524  0.00  0.00    +0.000 A 
ATOM      7  C   UNL     1       3.345   5.022  17.364  0.00  0.00    +0.000 A 
ENDROOT
BRANCH   1  10
ATOM      8  O   UNL     1       2.450   8.757  17.303  0.00  0.00    +0.000 OA
ATOM      9  C   UNL     1       2.304   8.199  18.388  0.00  0.00    +0.000 C 
ATOM     10  N   UNL     1       2.872   6.986  18.762  0.00  0.00    +0.000 N 
ATOM     11  H   UNL     1       2.489   6.507  19.566  0.00  0.00    +0.000 HD
BRANCH   9  12
ATOM     12  C   UNL     1       1.384   8.838  19.358  0.00  0.00    +0.000 A 
ATOM     13  C   UNL     1       1.369   8.333  20.668  0.00  0.00    +0.000 A 
ATOM     14  C   UNL     1       0.483   8.847  21.613  0.00  0.00    +0.000 A 
ATOM     15  C   UNL     1      -0.401   9.860  21.248  0.00  0.00    +0.000 A 
ATOM     16  C   UNL     1      -0.402  10.356  19.942  0.00  0.00    +0.000 A 
ATOM     17  C   UNL     1       0.492   9.852  18.994  0.00  0.00    +0.000 A 
ENDBRANCH   9  12
ENDBRANCH   1  10
BRANCH   7  18
ATOM     18  S   UNL     1       1.741   4.294  17.699  0.00  0.00    +0.000 S 
BRANCH  18  19
ATOM     19  C   UNL     1       1.957   3.473  19.271  0.00  0.00    +0.000 A 
ATOM     20  C   UNL     1       3.219   2.961  19.605  0.00  0.00    +0.000 A 
ATOM     21  C   UNL     1       3.463   2.442  20.881  0.00  0.00    +0.000 A 
ATOM     22  C   UNL     1       2.448   2.432  21.834  0.00  0.00    +0.000 A 
ATOM     23  C   UNL     1       1.185   2.920  21.506  0.00  0.00    +0.000 A 
ATOM     24  C   UNL     1       0.941   3.436  20.230  0.00  0.00    +0.000 A 
ENDBRANCH  18  19
ENDBRANCH   7  18
TORSDOF 4
ENDMDL
MODEL 3
REMARK VINA RESULT:      -7.7      3.712      6.795
REMARK  Name = 
REMARK  4 active torsions:
REMARK  status: ('A' for Active; 'I' for Inactive)
REMARK    1  A    between atoms: C_2  and  C_18
REMARK    2  A    between atoms: N_3  and  C_4
REMARK    3  A    between atoms: C_10  and  S_11
REMARK    4  A    between atoms: S_11  and  C_12
REMARK                            x       y       z     vdW  Elec       q    Type
REMARK                         _______ _______ _______ _____ _____    ______ ____
ROOT
ATOM      1  C   UNL     1       5.983   4.730  16.700  0.00  0.00    +0.000 A 
ATOM      2  C   UNL     1       6.881   5.794  16.871  0.00  0.00    +0.000 A 
ATOM      3  C   UNL     1       7.137   6.316  18.137  0.00  0.00    +0.000 A 
ATOM      4 CL   UNL     1       8.252   7.616  18.313  0.00  0.00    +0.000 Cl
ATOM      5  C   UNL     1       6.494   5.800  19.253  0.00  0.00    +0.000 A 
ATOM      6  C   UNL     1       5.562   4.771  19.098  0.00  0.00    +0.000 A 
ATOM      7  C   UNL     1       5.289   4.236  17.828  0.00  0.00    +0.000 A 
ENDROOT
BRANCH   1  10
ATOM      8  O   UNL     1       7.509   5.147  14.238  0.00  0.00    +0.000 OA
ATOM      9  C   UNL     1       6.517   4.424  14.284  0.00  0.00    +0.000 C 
ATOM     10  N   UNL     1       5.761   4.153  15.419  0.00  0.00    +0.000 N 
ATOM     11  H   UNL     1       5.131   3.361  15.395  0.00  0.00    +0.000 HD
BRANCH   9  12
ATOM     12  C   UNL     1       6.134   3.722  13.036  0.00  0.00    +0.000 A 
ATOM     13  C   UNL     1       4.790   3.797  12.635  0.00  0.00    +0.000 A 
ATOM     14  C   UNL     1       4.351   3.108  11.506  0.00  0.00    +0.000 A 
ATOM     15  C   UNL     1       5.250   2.330  10.781  0.00  0.00    +0.000 A 
ATOM     16  C   UNL     1       6.584   2.238  11.184  0.00  0.00    +0.000 A 
ATOM     17  C   UNL     1       7.033   2.936  12.309  0.00  0.00    +0.000 A 
ENDBRANCH   9  12
ENDBRANCH   1  10
BRANCH   7  18
ATOM     18  S   UNL     1       3.998   2.998  17.702  0.00  0.00    +0.000 S 
BRANCH  18  19
ATOM     19  C   UNL     1       3.048   3.206  19.201  0.00  0.00    +0.000 A 
ATOM     20  C   UNL     1       1.868   3.963  19.161  0.00  0.00    +0.000 A 
ATOM     21  C   UNL     1       1.025   4.029  20.276  0.00  0.00    +0.000 A 
ATOM     22  C   UNL     1       1.355   3.338  21.439  0.00  0.00    +0.000 A 
ATOM     23  C   UNL     1       2.535   2.600  21.496  0.00  0.00    +0.000 A 
ATOM     24  C   UNL     1       3.379   2.537  20.383  0.00  0.00    +0.000 A 
ENDBRANCH  18  19
ENDBRANCH   7  18
TORSDOF 4
ENDMDL
MODEL 4
REMARK VINA RESULT:      -7.5      0.139      1.013
REMARK  Name = 
REMARK  4 active torsions:
REMARK  status: ('A' for Active; 'I' for Inactive)
REMARK    1  A    between atoms: C_2  and  C_18
REMARK    2  A    between atoms: N_3  and  C_4
REMARK    3  A    between atoms: C_10  and  S_11
REMARK    4  A    between atoms: S_11  and  C_12
REMARK                            x       y       z     vdW  Elec       q    Type
REMARK                         _______ _______ _______ _____ _____    ______ ____
ROOT
ATOM      1  C   UNL     1       3.877   6.362  18.000  0.00  0.00    +0.000 A 
ATOM      2  C   UNL     1       5.174   6.857  17.801  0.00  0.00    +0.000 A 
ATOM      3  C   UNL     1       6.069   6.198  16.961  0.00  0.00    +0.000 A 
ATOM      4 CL   UNL     1       7.651   6.838  16.731  0.00  0.00    +0.000 Cl
ATOM      5  C   UNL     1       5.696   5.028  16.315  0.00  0.00    +0.000 A 
ATOM      6  C   UNL     1       4.424   4.494  16.536  0.00  0.00    +0.000 A 
ATOM      7  C   UNL     1       3.511   5.143  17.383  0.00  0.00    +0.000 A 
ENDROOT
BRANCH   1  10
ATOM      8  O   UNL     1       2.353   8.769  17.334  0.00  0.00    +0.000 OA
ATOM      9  C   UNL     1       2.272   8.220  18.430  0.00  0.00    +0.000 C 
ATOM     10  N   UNL     1       2.938   7.060  18.809  0.00  0.00    +0.000 N 
ATOM     11  H   UNL     1       2.609   6.566  19.629  0.00  0.00    +0.000 HD
BRANCH   9  12
ATOM     12  C   UNL     1       1.326   8.804  19.410  0.00  0.00    +0.000 A 
ATOM     13  C   UNL     1       0.543   9.890  18.989  0.00  0.00    +0.000 A 
ATOM     14  C   UNL     1      -0.321  10.526  19.879  0.00  0.00    +0.000 A 
ATOM     15  C   UNL     1      -0.394  10.086  21.199  0.00  0.00    +0.000 A 
ATOM     16  C   UNL     1       0.394   9.016  21.629  0.00  0.00    +0.000 A 
ATOM     17  C   UNL     1       1.253   8.369  20.737  0.00  0.00    +0.000 A 
ENDBRANCH   9  12
ENDBRANCH   1  10
BRANCH   7  18
ATOM     18  S   UNL     1       1.943   4.332  17.702  0.00  0.00    +0.000 S 
BRANCH  18  19
ATOM     19  C   UNL     1       2.129   3.660  19.346  0.00  0.00    +0.000 A 
ATOM     20  C   UNL     1       1.003   3.574  20.178  0.00  0.00    +0.000 A 
ATOM     21  C   UNL     1       1.078   2.924  21.415  0.00  0.00    +0.000 A 
ATOM     22  C   UNL     1       2.279   2.353  21.829  0.00  0.00    +0.000 A 
ATOM     23  C   UNL     1       3.408   2.451  21.019  0.00  0.00    +0.000 A 
ATOM     24  C   UNL     1       3.334   3.103  19.785  0.00  0.00    +0.000 A 
ENDBRANCH  18  19
ENDBRANCH   7  18
TORSDOF 4
ENDMDL
MODEL 5
REMARK VINA RESULT:      -7.5      0.162      1.432
REMARK  Name = 
REMARK  4 active torsions:
REMARK  status: ('A' for Active; 'I' for Inactive)
REMARK    1  A    between atoms: C_2  and  C_18
REMARK    2  A    between atoms: N_3  and  C_4
REMARK    3  A    between atoms: C_10  and  S_11
REMARK    4  A    between atoms: S_11  and  C_12
REMARK                            x       y       z     vdW  Elec       q    Type
REMARK                         _______ _______ _______ _____ _____    ______ ____
ROOT
ATOM      1  C   UNL     1       3.837   6.355  17.989  0.00  0.00    +0.000 A 
ATOM      2  C   UNL     1       5.139   6.820  17.751  0.00  0.00    +0.000 A 
ATOM      3  C   UNL     1       6.000   6.130  16.901  0.00  0.00    +0.000 A 
ATOM      4 CL   UNL     1       7.589   6.733  16.623  0.00  0.00    +0.000 Cl
ATOM      5  C   UNL     1       5.588   4.957  16.283  0.00  0.00    +0.000 A 
ATOM      6  C   UNL     1       4.311   4.453  16.543  0.00  0.00    +0.000 A 
ATOM      7  C   UNL     1       3.432   5.134  17.401  0.00  0.00    +0.000 A 
ENDROOT
BRANCH   1  10
ATOM      8  O   UNL     1       2.340   8.778  17.318  0.00  0.00    +0.000 OA
ATOM      9  C   UNL     1       2.278   8.250  18.425  0.00  0.00    +0.000 C 
ATOM     10  N   UNL     1       2.932   7.085  18.809  0.00  0.00    +0.000 N 
ATOM     11  H   UNL     1       2.616   6.612  19.646  0.00  0.00    +0.000 HD
BRANCH   9  12
ATOM     12  C   UNL     1       1.369   8.869  19.418  0.00  0.00    +0.000 A 
ATOM     13  C   UNL     1       1.334   8.308  20.705  0.00  0.00    +0.000 A 
ATOM     14  C   UNL     1       0.456   8.803  21.667  0.00  0.00    +0.000 A 
ATOM     15  C   UNL     1      -0.401   9.852  21.343  0.00  0.00    +0.000 A 
ATOM     16  C   UNL     1      -0.383  10.404  20.060  0.00  0.00    +0.000 A 
ATOM     17  C   UNL     1       0.504   9.919  19.095  0.00  0.00    +0.000 A 
ENDBRANCH   9  12
ENDBRANCH   1  10
BRANCH   7  18
ATOM     18  S   UNL     1       1.857   4.361  17.770  0.00  0.00    +0.000 S 
BRANCH  18  19
ATOM     19  C   UNL     1       2.085   3.668  19.401  0.00  0.00    +0.000 A 
ATOM     20  C   UNL     1       0.982   3.579  20.264  0.00  0.00    +0.000 A 
ATOM     21  C   UNL     1       1.089   2.913  21.490  0.00  0.00    +0.000 A 
ATOM     22  C   UNL     1       2.298   2.331  21.863  0.00  0.00    +0.000 A 
ATOM     23  C   UNL     1       3.404   2.432  21.022  0.00  0.00    +0.000 A 
ATOM     24  C   UNL     1       3.298   3.099  19.799  0.00  0.00    +0.000 A 
ENDBRANCH  18  19
ENDBRANCH   7  18
TORSDOF 4
ENDMDL
MODEL 6
REMARK VINA RESULT:      -7.4      1.776      2.415
REMARK  Name = 
REMARK  4 active torsions:
REMARK  status: ('A' for Active; 'I' for Inactive)
REMARK    1  A    between atoms: C_2  and  C_18
REMARK    2  A    between atoms: N_3  and  C_4
REMARK    3  A    between atoms: C_10  and  S_11
REMARK    4  A    between atoms: S_11  and  C_12
REMARK                            x       y       z     vdW  Elec       q    Type
REMARK                         _______ _______ _______ _____ _____    ______ ____
ROOT
ATOM      1  C   UNL     1       4.887   5.995  17.059  0.00  0.00    +0.000 A 
ATOM      2  C   UNL     1       5.257   6.083  15.709  0.00  0.00    +0.000 A 
ATOM      3  C   UNL     1       5.960   5.052  15.091  0.00  0.00    +0.000 A 
ATOM      4 CL   UNL     1       6.389   5.188  13.429  0.00  0.00    +0.000 Cl
ATOM      5  C   UNL     1       6.321   3.920  15.808  0.00  0.00    +0.000 A 
ATOM      6  C   UNL     1       6.003   3.833  17.166  0.00  0.00    +0.000 A 
ATOM      7  C   UNL     1       5.298   4.866  17.805  0.00  0.00    +0.000 A 
ENDROOT
BRANCH   1  10
ATOM      8  O   UNL     1       2.013   6.017  17.607  0.00  0.00    +0.000 OA
ATOM      9  C   UNL     1       2.743   6.965  17.881  0.00  0.00    +0.000 C 
ATOM     10  N   UNL     1       4.118   7.018  17.681  0.00  0.00    +0.000 N 
ATOM     11  H   UNL     1       4.645   7.732  18.166  0.00  0.00    +0.000 HD
BRANCH   9  12
ATOM     12  C   UNL     1       2.116   8.129  18.550  0.00  0.00    +0.000 A 
ATOM     13  C   UNL     1       1.773   7.992  19.905  0.00  0.00    +0.000 A 
ATOM     14  C   UNL     1       1.123   9.025  20.577  0.00  0.00    +0.000 A 
ATOM     15  C   UNL     1       0.802  10.196  19.894  0.00  0.00    +0.000 A 
ATOM     16  C   UNL     1       1.127  10.333  18.542  0.00  0.00    +0.000 A 
ATOM     17  C   UNL     1       1.788   9.304  17.867  0.00  0.00    +0.000 A 
ENDBRANCH   9  12
ENDBRANCH   1  10
BRANCH   7  18
ATOM     18  S   UNL     1       5.030   4.727  19.573  0.00  0.00    +0.000 S 
BRANCH  18  19
ATOM     19  C   UNL     1       3.435   3.935  19.710  0.00  0.00    +0.000 A 
ATOM     20  C   UNL     1       2.500   4.439  20.626  0.00  0.00    +0.000 A 
ATOM     21  C   UNL     1       1.194   3.938  20.660  0.00  0.00    +0.000 A 
ATOM     22  C   UNL     1       0.812   2.930  19.778  0.00  0.00    +0.000 A 
ATOM     23  C   UNL     1       1.740   2.408  18.879  0.00  0.00    +0.000 A 
ATOM     24  C   UNL     1       3.045   2.907  18.847  0.00  0.00    +0.000 A 
ENDBRANCH  18  19
ENDBRANCH   7  18
TORSDOF 4
ENDMDL
MODEL 7
REMARK VINA RESULT:      -7.4      3.534      6.796
REMARK  Name = 
REMARK  4 active torsions:
REMARK  status: ('A' for Active; 'I' for Inactive)
REMARK    1  A    between atoms: C_2  and  C_18
REMARK    2  A    between atoms: N_3  and  C_4
REMARK    3  A    between atoms: C_10  and  S_11
REMARK    4  A    between atoms: S_11  and  C_12
REMARK                            x       y       z     vdW  Elec       q    Type
REMARK                         _______ _______ _______ _____ _____    ______ ____
ROOT
ATOM      1  C   UNL     1       5.947   4.724  16.536  0.00  0.00    +0.000 A 
ATOM      2  C   UNL     1       6.774   5.852  16.646  0.00  0.00    +0.000 A 
ATOM      3  C   UNL     1       7.062   6.409  17.890  0.00  0.00    +0.000 A 
ATOM      4 CL   UNL     1       8.087   7.788  17.990  0.00  0.00    +0.000 Cl
ATOM      5  C   UNL     1       6.524   5.862  19.046  0.00  0.00    +0.000 A 
ATOM      6  C   UNL     1       5.662   4.766  18.954  0.00  0.00    +0.000 A 
ATOM      7  C   UNL     1       5.357   4.196  17.707  0.00  0.00    +0.000 A 
ENDROOT
BRANCH   1  10
ATOM      8  O   UNL     1       7.381   5.122  14.016  0.00  0.00    +0.000 OA
ATOM      9  C   UNL     1       6.408   4.379  14.110  0.00  0.00    +0.000 C 
ATOM     10  N   UNL     1       5.696   4.115  15.275  0.00  0.00    +0.000 N 
ATOM     11  H   UNL     1       5.084   3.309  15.289  0.00  0.00    +0.000 HD
BRANCH   9  12
ATOM     12  C   UNL     1       5.999   3.642  12.891  0.00  0.00    +0.000 A 
ATOM     13  C   UNL     1       4.672   3.791  12.456  0.00  0.00    +0.000 A 
ATOM     14  C   UNL     1       4.206   3.078  11.354  0.00  0.00    +0.000 A 
ATOM     15  C   UNL     1       5.061   2.203  10.688  0.00  0.00    +0.000 A 
ATOM     16  C   UNL     1       6.378   2.038  11.125  0.00  0.00    +0.000 A 
ATOM     17  C   UNL     1       6.853   2.759  12.224  0.00  0.00    +0.000 A 
ENDBRANCH   9  12
ENDBRANCH   1  10
BRANCH   7  18
ATOM     18  S   UNL     1       4.155   2.866  17.667  0.00  0.00    +0.000 S 
BRANCH  18  19
ATOM     19  C   UNL     1       3.085   3.205  19.057  0.00  0.00    +0.000 A 
ATOM     20  C   UNL     1       3.246   2.464  20.237  0.00  0.00    +0.000 A 
ATOM     21  C   UNL     1       2.528   2.796  21.391  0.00  0.00    +0.000 A 
ATOM     22  C   UNL     1       1.644   3.873  21.374  0.00  0.00    +0.000 A 
ATOM     23  C   UNL     1       1.462   4.602  20.202  0.00  0.00    +0.000 A 
ATOM     24  C   UNL     1       2.178   4.268  19.049  0.00  0.00    +0.000 A 
ENDBRANCH  18  19
ENDBRANCH   7  18
TORSDOF 4
ENDMDL
MODEL 8
REMARK VINA RESULT:      -7.3      1.787      2.218
REMARK  Name = 
REMARK  4 active torsions:
REMARK  status: ('A' for Active; 'I' for Inactive)
REMARK    1  A    between atoms: C_2  and  C_18
REMARK    2  A    between atoms: N_3  and  C_4
REMARK    3  A    between atoms: C_10  and  S_11
REMARK    4  A    between atoms: S_11  and  C_12
REMARK                            x       y       z     vdW  Elec       q    Type
REMARK                         _______ _______ _______ _____ _____    ______ ____
ROOT
ATOM      1  C   UNL     1       4.881   5.967  17.109  0.00  0.00    +0.000 A 
ATOM      2  C   UNL     1       5.250   6.081  15.761  0.00  0.00    +0.000 A 
ATOM      3  C   UNL     1       5.992   5.083  15.136  0.00  0.00    +0.000 A 
ATOM      4 CL   UNL     1       6.421   5.250  13.477  0.00  0.00    +0.000 Cl
ATOM      5  C   UNL     1       6.394   3.959  15.844  0.00  0.00    +0.000 A 
ATOM      6  C   UNL     1       6.076   3.848  17.200  0.00  0.00    +0.000 A 
ATOM      7  C   UNL     1       5.331   4.848  17.846  0.00  0.00    +0.000 A 
ENDROOT
BRANCH   1  10
ATOM      8  O   UNL     1       1.995   5.903  17.593  0.00  0.00    +0.000 OA
ATOM      9  C   UNL     1       2.695   6.863  17.906  0.00  0.00    +0.000 C 
ATOM     10  N   UNL     1       4.072   6.955  17.738  0.00  0.00    +0.000 N 
ATOM     11  H   UNL     1       4.570   7.670  18.252  0.00  0.00    +0.000 HD
BRANCH   9  12
ATOM     12  C   UNL     1       2.024   7.994  18.589  0.00  0.00    +0.000 A 
ATOM     13  C   UNL     1       1.778   9.153  17.836  0.00  0.00    +0.000 A 
ATOM     14  C   UNL     1       1.207  10.276  18.433  0.00  0.00    +0.000 A 
ATOM     15  C   UNL     1       0.892  10.249  19.789  0.00  0.00    +0.000 A 
ATOM     16  C   UNL     1       1.149   9.104  20.548  0.00  0.00    +0.000 A 
ATOM     17  C   UNL     1       1.711   7.972  19.952  0.00  0.00    +0.000 A 
ENDBRANCH   9  12
ENDBRANCH   1  10
BRANCH   7  18
ATOM     18  S   UNL     1       5.065   4.683  19.612  0.00  0.00    +0.000 S 
BRANCH  18  19
ATOM     19  C   UNL     1       3.468   3.893  19.739  0.00  0.00    +0.000 A 
ATOM     20  C   UNL     1       2.524   4.404  20.642  0.00  0.00    +0.000 A 
ATOM     21  C   UNL     1       1.217   3.905  20.666  0.00  0.00    +0.000 A 
ATOM     22  C   UNL     1       0.844   2.891  19.788  0.00  0.00    +0.000 A 
ATOM     23  C   UNL     1       1.779   2.362  18.902  0.00  0.00    +0.000 A 
ATOM     24  C   UNL     1       3.085   2.859  18.879  0.00  0.00    +0.000 A 
ENDBRANCH  18  19
ENDBRANCH   7  18
TORSDOF 4
ENDMDL
MODEL 9
REMARK VINA RESULT:      -7.3      3.692      6.851
REMARK  Name = 
REMARK  4 active torsions:
REMARK  status: ('A' for Active; 'I' for Inactive)
REMARK    1  A    between atoms: C_2  and  C_18
REMARK    2  A    between atoms: N_3  and  C_4
REMARK    3  A    between atoms: C_10  and  S_11
REMARK    4  A    between atoms: S_11  and  C_12
REMARK                            x       y       z     vdW  Elec       q    Type
REMARK                         _______ _______ _______ _____ _____    ______ ____
ROOT
ATOM      1  C   UNL     1       5.716   4.736  16.485  0.00  0.00    +0.000 A 
ATOM      2  C   UNL     1       6.526   5.879  16.542  0.00  0.00    +0.000 A 
ATOM      3  C   UNL     1       6.884   6.442  17.764  0.00  0.00    +0.000 A 
ATOM      4 CL   UNL     1       7.888   7.840  17.799  0.00  0.00    +0.000 Cl
ATOM      5  C   UNL     1       6.430   5.887  18.953  0.00  0.00    +0.000 A 
ATOM      6  C   UNL     1       5.585   4.776  18.916  0.00  0.00    +0.000 A 
ATOM      7  C   UNL     1       5.211   4.198  17.691  0.00  0.00    +0.000 A 
ENDROOT
BRANCH   1  10
ATOM      8  O   UNL     1       7.244   4.793  13.990  0.00  0.00    +0.000 OA
ATOM      9  C   UNL     1       6.163   4.218  14.088  0.00  0.00    +0.000 C 
ATOM     10  N   UNL     1       5.396   4.120  15.243  0.00  0.00    +0.000 N 
ATOM     11  H   UNL     1       4.663   3.423  15.273  0.00  0.00    +0.000 HD
BRANCH   9  12
ATOM     12  C   UNL     1       5.667   3.503  12.888  0.00  0.00    +0.000 A 
ATOM     13  C   UNL     1       6.523   2.563  12.292  0.00  0.00    +0.000 A 
ATOM     14  C   UNL     1       6.144   1.902  11.125  0.00  0.00    +0.000 A 
ATOM     15  C   UNL     1       4.911   2.188  10.542  0.00  0.00    +0.000 A 
ATOM     16  C   UNL     1       4.062   3.134  11.121  0.00  0.00    +0.000 A 
ATOM     17  C   UNL     1       4.433   3.791  12.297  0.00  0.00    +0.000 A 
ENDBRANCH   9  12
ENDBRANCH   1  10
BRANCH   7  18
ATOM     18  S   UNL     1       4.033   2.846  17.728  0.00  0.00    +0.000 S 
BRANCH  18  19
ATOM     19  C   UNL     1       3.069   3.151  19.201  0.00  0.00    +0.000 A 
ATOM     20  C   UNL     1       1.898   3.917  19.103  0.00  0.00    +0.000 A 
ATOM     21  C   UNL     1       1.043   4.056  20.201  0.00  0.00    +0.000 A 
ATOM     22  C   UNL     1       1.351   3.429  21.406  0.00  0.00    +0.000 A 
ATOM     23  C   UNL     1       2.522   2.684  21.520  0.00  0.00    +0.000 A 
ATOM     24  C   UNL     1       3.377   2.547  20.423  0.00  0.00    +0.000 A 
ENDBRANCH  18  19
ENDBRANCH   7  18
TORSDOF 4
ENDMDL
