MODEL 1
REMARK VINA RESULT:      -8.9      0.000      0.000
REMARK  Name = 
REMARK  12 active torsions:
REMARK  status: ('A' for Active; 'I' for Inactive)
REMARK    1  A    between atoms: C_1  and  C_2
REMARK    2  A    between atoms: C_5  and  C_6
REMARK    3  A    between atoms: C_6  and  N_7
REMARK    4  A    between atoms: N_7  and  C_8
REMARK    5  A    between atoms: C_8  and  C_9
REMARK    6  A    between atoms: C_13  and  C_14
REMARK    7  A    between atoms: C_14  and  N_15
REMARK    8  A    between atoms: N_15  and  C_16
REMARK    9  A    between atoms: C_16  and  C_17
REMARK   10  A    between atoms: C_20  and  C_21
REMARK   11  A    between atoms: C_22  and  C_23
REMARK   12  A    between atoms: C_27  and  C_28
REMARK                            x       y       z     vdW  Elec       q    Type
REMARK                         _______ _______ _______ _____ _____    ______ ____
ROOT
ATOM      1  C   UNL     1       1.408   2.949  18.058  0.00  0.00    +0.000 C 
ATOM      2  C   UNL     1       0.592   2.448  19.280  0.00  0.00    +0.000 C 
ATOM      3  C   UNL     1       1.304   2.719  20.614  0.00  0.00    +0.000 C 
ATOM      4  C   UNL     1       1.644   4.211  20.761  0.00  0.00    +0.000 C 
ATOM      5  C   UNL     1       2.527   4.669  19.581  0.00  0.00    +0.000 C 
ATOM      6  C   UNL     1       1.753   4.447  18.262  0.00  0.00    +0.000 C 
ENDROOT
BRANCH   1   7
ATOM      7  C   UNL     1       2.696   2.134  17.746  0.00  0.00    +0.000 C 
BRANCH   7   8
ATOM      8  N   UNL     1       3.929   2.848  18.109  0.00  0.00    +0.000 NA
ATOM      9  H   UNL     1       3.673   3.691  18.668  0.00  0.00    +0.000 HD
BRANCH   8  10
ATOM     10  C   UNL     1       4.618   3.277  16.878  0.00  0.00    +0.000 C 
BRANCH  10  15
ATOM     11  C   UNL     1       7.712   8.179  17.561  0.00  0.00    +0.000 C 
ATOM     12  C   UNL     1       6.919   6.906  17.421  0.00  0.00    +0.000 A 
ATOM     13  C   UNL     1       5.971   6.804  16.390  0.00  0.00    +0.000 A 
ATOM     14  C   UNL     1       5.225   5.638  16.219  0.00  0.00    +0.000 A 
ATOM     15  C   UNL     1       5.402   4.549  17.083  0.00  0.00    +0.000 A 
ATOM     16  C   UNL     1       6.344   4.645  18.119  0.00  0.00    +0.000 A 
ATOM     17  C   UNL     1       7.109   5.810  18.300  0.00  0.00    +0.000 A 
ATOM     18  C   UNL     1       8.120   5.861  19.419  0.00  0.00    +0.000 C 
ENDBRANCH  10  15
ENDBRANCH   8  10
ENDBRANCH   7   8
ENDBRANCH   1   7
BRANCH   5  19
ATOM     19  C   UNL     1       2.995   6.141  19.721  0.00  0.00    +0.000 C 
BRANCH  19  20
ATOM     20  N   UNL     1       2.033   7.005  20.439  0.00  0.00    +0.000 NA
ATOM     21  H   UNL     1       2.359   7.181  21.416  0.00  0.00    +0.000 HD
BRANCH  20  22
ATOM     22  C   UNL     1       1.746   8.274  19.746  0.00  0.00    +0.000 C 
BRANCH  22  23
ATOM     23  C   UNL     1       0.880   9.155  20.602  0.00  0.00    +0.000 A 
ATOM     24  C   UNL     1       0.869   8.994  21.995  0.00  0.00    +0.000 A 
ATOM     25  C   UNL     1       0.063   9.804  22.791  0.00  0.00    +0.000 A 
ATOM     26  C   UNL     1      -0.749  10.792  22.215  0.00  0.00    +0.000 A 
ATOM     27  C   UNL     1      -1.608  11.640  23.114  0.00  0.00    +0.000 C 
ATOM     28  C   UNL     1      -0.741  10.961  20.804  0.00  0.00    +0.000 A 
ATOM     29  C   UNL     1      -1.576  11.993  20.094  0.00  0.00    +0.000 C 
ATOM     30  C   UNL     1       0.079  10.139  20.016  0.00  0.00    +0.000 A 
ENDBRANCH  22  23
ENDBRANCH  20  22
ENDBRANCH  19  20
ENDBRANCH   5  19
TORSDOF 8
ENDMDL
MODEL 2
REMARK VINA RESULT:      -8.6      1.108      1.865
REMARK  Name = 
REMARK  12 active torsions:
REMARK  status: ('A' for Active; 'I' for Inactive)
REMARK    1  A    between atoms: C_1  and  C_2
REMARK    2  A    between atoms: C_5  and  C_6
REMARK    3  A    between atoms: C_6  and  N_7
REMARK    4  A    between atoms: N_7  and  C_8
REMARK    5  A    between atoms: C_8  and  C_9
REMARK    6  A    between atoms: C_13  and  C_14
REMARK    7  A    between atoms: C_14  and  N_15
REMARK    8  A    between atoms: N_15  and  C_16
REMARK    9  A    between atoms: C_16  and  C_17
REMARK   10  A    between atoms: C_20  and  C_21
REMARK   11  A    between atoms: C_22  and  C_23
REMARK   12  A    between atoms: C_27  and  C_28
REMARK                            x       y       z     vdW  Elec       q    Type
REMARK                         _______ _______ _______ _____ _____    ______ ____
ROOT
ATOM      1  C   UNL     1       1.108   2.722  19.555  0.00  0.00    +0.000 C 
ATOM      2  C   UNL     1       1.072   3.046  21.073  0.00  0.00    +0.000 C 
ATOM      3  C   UNL     1       2.194   4.004  21.498  0.00  0.00    +0.000 C 
ATOM      4  C   UNL     1       2.156   5.296  20.664  0.00  0.00    +0.000 C 
ATOM      5  C   UNL     1       2.281   4.960  19.164  0.00  0.00    +0.000 C 
ATOM      6  C   UNL     1       1.098   4.052  18.756  0.00  0.00    +0.000 C 
ENDROOT
BRANCH   1   7
ATOM      7  C   UNL     1       2.296   1.826  19.100  0.00  0.00    +0.000 C 
BRANCH   7   8
ATOM      8  N   UNL     1       2.604   1.963  17.669  0.00  0.00    +0.000 NA
ATOM      9  H   UNL     1       2.129   1.191  17.151  0.00  0.00    +0.000 HD
BRANCH   8  10
ATOM     10  C   UNL     1       4.061   1.845  17.476  0.00  0.00    +0.000 C 
BRANCH  10  15
ATOM     11  C   UNL     1       6.593   7.104  17.443  0.00  0.00    +0.000 C 
ATOM     12  C   UNL     1       5.947   5.744  17.415  0.00  0.00    +0.000 A 
ATOM     13  C   UNL     1       5.891   4.991  18.599  0.00  0.00    +0.000 A 
ATOM     14  C   UNL     1       5.291   3.733  18.618  0.00  0.00    +0.000 A 
ATOM     15  C   UNL     1       4.740   3.192  17.449  0.00  0.00    +0.000 A 
ATOM     16  C   UNL     1       4.796   3.936  16.259  0.00  0.00    +0.000 A 
ATOM     17  C   UNL     1       5.391   5.208  16.226  0.00  0.00    +0.000 A 
ATOM     18  C   UNL     1       5.414   5.977  14.927  0.00  0.00    +0.000 C 
ENDBRANCH  10  15
ENDBRANCH   8  10
ENDBRANCH   7   8
ENDBRANCH   1   7
BRANCH   5  19
ATOM     19  C   UNL     1       2.355   6.226  18.272  0.00  0.00    +0.000 C 
BRANCH  19  20
ATOM     20  N   UNL     1       2.644   7.467  19.023  0.00  0.00    +0.000 NA
ATOM     21  H   UNL     1       3.661   7.700  18.966  0.00  0.00    +0.000 HD
BRANCH  20  22
ATOM     22  C   UNL     1       1.819   8.615  18.607  0.00  0.00    +0.000 C 
BRANCH  22  23
ATOM     23  C   UNL     1       1.052   9.161  19.778  0.00  0.00    +0.000 A 
ATOM     24  C   UNL     1       1.188   8.577  21.046  0.00  0.00    +0.000 A 
ATOM     25  C   UNL     1       0.475   9.076  22.132  0.00  0.00    +0.000 A 
ATOM     26  C   UNL     1      -0.392  10.170  21.977  0.00  0.00    +0.000 A 
ATOM     27  C   UNL     1      -1.147  10.671  23.179  0.00  0.00    +0.000 C 
ATOM     28  C   UNL     1      -0.534  10.766  20.696  0.00  0.00    +0.000 A 
ATOM     29  C   UNL     1      -1.437  11.941  20.431  0.00  0.00    +0.000 C 
ATOM     30  C   UNL     1       0.195  10.253  19.612  0.00  0.00    +0.000 A 
ENDBRANCH  22  23
ENDBRANCH  20  22
ENDBRANCH  19  20
ENDBRANCH   5  19
TORSDOF 8
ENDMDL
MODEL 3
REMARK VINA RESULT:      -8.5      1.200      1.959
REMARK  Name = 
REMARK  12 active torsions:
REMARK  status: ('A' for Active; 'I' for Inactive)
REMARK    1  A    between atoms: C_1  and  C_2
REMARK    2  A    between atoms: C_5  and  C_6
REMARK    3  A    between atoms: C_6  and  N_7
REMARK    4  A    between atoms: N_7  and  C_8
REMARK    5  A    between atoms: C_8  and  C_9
REMARK    6  A    between atoms: C_13  and  C_14
REMARK    7  A    between atoms: C_14  and  N_15
REMARK    8  A    between atoms: N_15  and  C_16
REMARK    9  A    between atoms: C_16  and  C_17
REMARK   10  A    between atoms: C_20  and  C_21
REMARK   11  A    between atoms: C_22  and  C_23
REMARK   12  A    between atoms: C_27  and  C_28
REMARK                            x       y       z     vdW  Elec       q    Type
REMARK                         _______ _______ _______ _____ _____    ______ ____
ROOT
ATOM      1  C   UNL     1       1.142   2.733  19.604  0.00  0.00    +0.000 C 
ATOM      2  C   UNL     1       1.199   3.147  21.099  0.00  0.00    +0.000 C 
ATOM      3  C   UNL     1       2.299   4.181  21.383  0.00  0.00    +0.000 C 
ATOM      4  C   UNL     1       2.137   5.416  20.482  0.00  0.00    +0.000 C 
ATOM      5  C   UNL     1       2.170   4.994  18.998  0.00  0.00    +0.000 C 
ATOM      6  C   UNL     1       1.008   4.009  18.733  0.00  0.00    +0.000 C 
ENDROOT
BRANCH   1   7
ATOM      7  C   UNL     1       2.338   1.867  19.114  0.00  0.00    +0.000 C 
BRANCH   7   8
ATOM      8  N   UNL     1       2.575   1.980  17.667  0.00  0.00    +0.000 NA
ATOM      9  H   UNL     1       2.123   1.169  17.192  0.00  0.00    +0.000 HD
BRANCH   8  10
ATOM     10  C   UNL     1       4.027   1.938  17.412  0.00  0.00    +0.000 C 
BRANCH  10  15
ATOM     11  C   UNL     1       6.455   7.240  17.138  0.00  0.00    +0.000 C 
ATOM     12  C   UNL     1       5.828   5.874  17.246  0.00  0.00    +0.000 A 
ATOM     13  C   UNL     1       5.075   5.383  16.168  0.00  0.00    +0.000 A 
ATOM     14  C   UNL     1       4.488   4.118  16.224  0.00  0.00    +0.000 A 
ATOM     15  C   UNL     1       4.634   3.318  17.365  0.00  0.00    +0.000 A 
ATOM     16  C   UNL     1       5.381   3.804  18.449  0.00  0.00    +0.000 A 
ATOM     17  C   UNL     1       5.984   5.073  18.405  0.00  0.00    +0.000 A 
ATOM     18  C   UNL     1       6.791   5.546  19.590  0.00  0.00    +0.000 C 
ENDBRANCH  10  15
ENDBRANCH   8  10
ENDBRANCH   7   8
ENDBRANCH   1   7
BRANCH   5  19
ATOM     19  C   UNL     1       2.115   6.206  18.031  0.00  0.00    +0.000 C 
BRANCH  19  20
ATOM     20  N   UNL     1       2.606   7.466  18.628  0.00  0.00    +0.000 NA
ATOM     21  H   UNL     1       3.651   7.493  18.616  0.00  0.00    +0.000 HD
BRANCH  20  22
ATOM     22  C   UNL     1       2.043   8.676  18.003  0.00  0.00    +0.000 C 
BRANCH  22  23
ATOM     23  C   UNL     1       1.326   9.510  19.027  0.00  0.00    +0.000 A 
ATOM     24  C   UNL     1       0.906  10.810  18.711  0.00  0.00    +0.000 A 
ATOM     25  C   UNL     1       0.247  11.588  19.659  0.00  0.00    +0.000 A 
ATOM     26  C   UNL     1      -0.006  11.086  20.945  0.00  0.00    +0.000 A 
ATOM     27  C   UNL     1      -0.716  11.965  21.939  0.00  0.00    +0.000 C 
ATOM     28  C   UNL     1       0.416   9.770  21.271  0.00  0.00    +0.000 A 
ATOM     29  C   UNL     1       0.190   9.143  22.622  0.00  0.00    +0.000 C 
ATOM     30  C   UNL     1       1.076   8.997  20.303  0.00  0.00    +0.000 A 
ENDBRANCH  22  23
ENDBRANCH  20  22
ENDBRANCH  19  20
ENDBRANCH   5  19
TORSDOF 8
ENDMDL
MODEL 4
REMARK VINA RESULT:      -8.5      3.141      7.645
REMARK  Name = 
REMARK  12 active torsions:
REMARK  status: ('A' for Active; 'I' for Inactive)
REMARK    1  A    between atoms: C_1  and  C_2
REMARK    2  A    between atoms: C_5  and  C_6
REMARK    3  A    between atoms: C_6  and  N_7
REMARK    4  A    between atoms: N_7  and  C_8
REMARK    5  A    between atoms: C_8  and  C_9
REMARK    6  A    between atoms: C_13  and  C_14
REMARK    7  A    between atoms: C_14  and  N_15
REMARK    8  A    between atoms: N_15  and  C_16
REMARK    9  A    between atoms: C_16  and  C_17
REMARK   10  A    between atoms: C_20  and  C_21
REMARK   11  A    between atoms: C_22  and  C_23
REMARK   12  A    between atoms: C_27  and  C_28
REMARK                            x       y       z     vdW  Elec       q    Type
REMARK                         _______ _______ _______ _____ _____    ______ ____
ROOT
ATOM      1  C   UNL     1       5.984   4.078  16.913  0.00  0.00    +0.000 C 
ATOM      2  C   UNL     1       5.453   4.771  15.629  0.00  0.00    +0.000 C 
ATOM      3  C   UNL     1       5.092   6.245  15.862  0.00  0.00    +0.000 C 
ATOM      4  C   UNL     1       6.288   7.018  16.443  0.00  0.00    +0.000 C 
ATOM      5  C   UNL     1       6.746   6.365  17.764  0.00  0.00    +0.000 C 
ATOM      6  C   UNL     1       7.168   4.905  17.479  0.00  0.00    +0.000 C 
ENDROOT
BRANCH   1   7
ATOM      7  C   UNL     1       4.917   3.833  18.019  0.00  0.00    +0.000 C 
BRANCH   7   8
ATOM      8  N   UNL     1       4.070   2.662  17.750  0.00  0.00    +0.000 NA
ATOM      9  H   UNL     1       4.327   2.273  16.816  0.00  0.00    +0.000 HD
BRANCH   8  10
ATOM     10  C   UNL     1       2.658   3.085  17.721  0.00  0.00    +0.000 C 
BRANCH  10  15
ATOM     11  C   UNL     1       1.632   7.888  20.875  0.00  0.00    +0.000 C 
ATOM     12  C   UNL     1       1.919   6.669  20.038  0.00  0.00    +0.000 A 
ATOM     13  C   UNL     1       1.808   5.398  20.626  0.00  0.00    +0.000 A 
ATOM     14  C   UNL     1       2.053   4.244  19.882  0.00  0.00    +0.000 A 
ATOM     15  C   UNL     1       2.424   4.334  18.534  0.00  0.00    +0.000 A 
ATOM     16  C   UNL     1       2.542   5.601  17.940  0.00  0.00    +0.000 A 
ATOM     17  C   UNL     1       2.292   6.773  18.675  0.00  0.00    +0.000 A 
ATOM     18  C   UNL     1       2.416   8.112  17.990  0.00  0.00    +0.000 C 
ENDBRANCH  10  15
ENDBRANCH   8  10
ENDBRANCH   7   8
ENDBRANCH   1   7
BRANCH   5  19
ATOM     19  C   UNL     1       7.884   7.157  18.458  0.00  0.00    +0.000 C 
BRANCH  19  20
ATOM     20  N   UNL     1       8.409   8.278  17.649  0.00  0.00    +0.000 NA
ATOM     21  H   UNL     1       8.214   8.118  16.635  0.00  0.00    +0.000 HD
BRANCH  20  22
ATOM     22  C   UNL     1       7.915   9.599  18.077  0.00  0.00    +0.000 C 
BRANCH  22  23
ATOM     23  C   UNL     1       9.061  10.475  18.499  0.00  0.00    +0.000 A 
ATOM     24  C   UNL     1       9.504  10.467  19.830  0.00  0.00    +0.000 A 
ATOM     25  C   UNL     1      10.561  11.281  20.226  0.00  0.00    +0.000 A 
ATOM     26  C   UNL     1      11.199  12.124  19.302  0.00  0.00    +0.000 A 
ATOM     27  C   UNL     1      12.333  12.992  19.777  0.00  0.00    +0.000 C 
ATOM     28  C   UNL     1      10.756  12.137  17.953  0.00  0.00    +0.000 A 
ATOM     29  C   UNL     1      11.377  13.005  16.891  0.00  0.00    +0.000 C 
ATOM     30  C   UNL     1       9.691  11.307  17.569  0.00  0.00    +0.000 A 
ENDBRANCH  22  23
ENDBRANCH  20  22
ENDBRANCH  19  20
ENDBRANCH   5  19
TORSDOF 8
ENDMDL
MODEL 5
REMARK VINA RESULT:      -8.5      0.942      7.969
REMARK  Name = 
REMARK  12 active torsions:
REMARK  status: ('A' for Active; 'I' for Inactive)
REMARK    1  A    between atoms: C_1  and  C_2
REMARK    2  A    between atoms: C_5  and  C_6
REMARK    3  A    between atoms: C_6  and  N_7
REMARK    4  A    between atoms: N_7  and  C_8
REMARK    5  A    between atoms: C_8  and  C_9
REMARK    6  A    between atoms: C_13  and  C_14
REMARK    7  A    between atoms: C_14  and  N_15
REMARK    8  A    between atoms: N_15  and  C_16
REMARK    9  A    between atoms: C_16  and  C_17
REMARK   10  A    between atoms: C_20  and  C_21
REMARK   11  A    between atoms: C_22  and  C_23
REMARK   12  A    between atoms: C_27  and  C_28
REMARK                            x       y       z     vdW  Elec       q    Type
REMARK                         _______ _______ _______ _____ _____    ______ ____
ROOT
ATOM      1  C   UNL     1       2.371   4.435  20.808  0.00  0.00    +0.000 C 
ATOM      2  C   UNL     1       1.294   3.362  21.123  0.00  0.00    +0.000 C 
ATOM      3  C   UNL     1       0.689   2.745  19.853  0.00  0.00    +0.000 C 
ATOM      4  C   UNL     1       1.789   2.164  18.949  0.00  0.00    +0.000 C 
ATOM      5  C   UNL     1       2.802   3.266  18.576  0.00  0.00    +0.000 C 
ATOM      6  C   UNL     1       3.441   3.815  19.872  0.00  0.00    +0.000 C 
ENDROOT
BRANCH   1   7
ATOM      7  C   UNL     1       1.825   5.760  20.203  0.00  0.00    +0.000 C 
BRANCH   7   8
ATOM      8  N   UNL     1       1.694   6.835  21.198  0.00  0.00    +0.000 NA
ATOM      9  H   UNL     1       0.781   6.722  21.691  0.00  0.00    +0.000 HD
BRANCH   8  10
ATOM     10  C   UNL     1       1.707   8.137  20.505  0.00  0.00    +0.000 C 
BRANCH  10  15
ATOM     11  C   UNL     1      -1.938  11.908  23.067  0.00  0.00    +0.000 C 
ATOM     12  C   UNL     1      -0.993  10.959  22.377  0.00  0.00    +0.000 A 
ATOM     13  C   UNL     1      -0.299  10.011  23.146  0.00  0.00    +0.000 A 
ATOM     14  C   UNL     1       0.577   9.107  22.545  0.00  0.00    +0.000 A 
ATOM     15  C   UNL     1       0.786   9.136  21.159  0.00  0.00    +0.000 A 
ATOM     16  C   UNL     1       0.099  10.084  20.384  0.00  0.00    +0.000 A 
ATOM     17  C   UNL     1      -0.791  10.997  20.975  0.00  0.00    +0.000 A 
ATOM     18  C   UNL     1      -1.518  11.988  20.099  0.00  0.00    +0.000 C 
ENDBRANCH  10  15
ENDBRANCH   8  10
ENDBRANCH   7   8
ENDBRANCH   1   7
BRANCH   5  19
ATOM     19  C   UNL     1       3.883   2.773  17.579  0.00  0.00    +0.000 C 
BRANCH  19  20
ATOM     20  N   UNL     1       4.189   3.742  16.505  0.00  0.00    +0.000 NA
ATOM     21  H   UNL     1       3.869   4.699  16.776  0.00  0.00    +0.000 HD
BRANCH  20  22
ATOM     22  C   UNL     1       5.608   3.756  16.108  0.00  0.00    +0.000 C 
BRANCH  22  23
ATOM     23  C   UNL     1       6.319   4.918  16.743  0.00  0.00    +0.000 A 
ATOM     24  C   UNL     1       6.314   6.175  16.122  0.00  0.00    +0.000 A 
ATOM     25  C   UNL     1       6.977   7.252  16.704  0.00  0.00    +0.000 A 
ATOM     26  C   UNL     1       7.659   7.098  17.921  0.00  0.00    +0.000 A 
ATOM     27  C   UNL     1       8.366   8.289  18.510  0.00  0.00    +0.000 C 
ATOM     28  C   UNL     1       7.667   5.828  18.556  0.00  0.00    +0.000 A 
ATOM     29  C   UNL     1       8.369   5.565  19.862  0.00  0.00    +0.000 C 
ATOM     30  C   UNL     1       6.991   4.753  17.957  0.00  0.00    +0.000 A 
ENDBRANCH  22  23
ENDBRANCH  20  22
ENDBRANCH  19  20
ENDBRANCH   5  19
TORSDOF 8
ENDMDL
MODEL 6
REMARK VINA RESULT:      -8.4      3.731      8.029
REMARK  Name = 
REMARK  12 active torsions:
REMARK  status: ('A' for Active; 'I' for Inactive)
REMARK    1  A    between atoms: C_1  and  C_2
REMARK    2  A    between atoms: C_5  and  C_6
REMARK    3  A    between atoms: C_6  and  N_7
REMARK    4  A    between atoms: N_7  and  C_8
REMARK    5  A    between atoms: C_8  and  C_9
REMARK    6  A    between atoms: C_13  and  C_14
REMARK    7  A    between atoms: C_14  and  N_15
REMARK    8  A    between atoms: N_15  and  C_16
REMARK    9  A    between atoms: C_16  and  C_17
REMARK   10  A    between atoms: C_20  and  C_21
REMARK   11  A    between atoms: C_22  and  C_23
REMARK   12  A    between atoms: C_27  and  C_28
REMARK                            x       y       z     vdW  Elec       q    Type
REMARK                         _______ _______ _______ _____ _____    ______ ____
ROOT
ATOM      1  C   UNL     1       7.603   5.167  18.749  0.00  0.00    +0.000 C 
ATOM      2  C   UNL     1       7.690   4.546  17.329  0.00  0.00    +0.000 C 
ATOM      3  C   UNL     1       6.872   5.330  16.293  0.00  0.00    +0.000 C 
ATOM      4  C   UNL     1       7.292   6.809  16.267  0.00  0.00    +0.000 C 
ATOM      5  C   UNL     1       7.116   7.431  17.668  0.00  0.00    +0.000 C 
ATOM      6  C   UNL     1       8.006   6.663  18.671  0.00  0.00    +0.000 C 
ENDROOT
BRANCH   1   7
ATOM      7  C   UNL     1       6.224   5.014  19.452  0.00  0.00    +0.000 C 
BRANCH   7   8
ATOM      8  N   UNL     1       5.439   3.882  18.937  0.00  0.00    +0.000 NA
ATOM      9  H   UNL     1       5.470   3.904  17.894  0.00  0.00    +0.000 HD
BRANCH   8  10
ATOM     10  C   UNL     1       4.039   4.026  19.379  0.00  0.00    +0.000 C 
BRANCH  10  15
ATOM     11  C   UNL     1       1.948   9.296  17.990  0.00  0.00    +0.000 C 
ATOM     12  C   UNL     1       2.461   7.932  18.374  0.00  0.00    +0.000 A 
ATOM     13  C   UNL     1       3.206   7.196  17.438  0.00  0.00    +0.000 A 
ATOM     14  C   UNL     1       3.708   5.935  17.759  0.00  0.00    +0.000 A 
ATOM     15  C   UNL     1       3.469   5.375  19.021  0.00  0.00    +0.000 A 
ATOM     16  C   UNL     1       2.720   6.103  19.960  0.00  0.00    +0.000 A 
ATOM     17  C   UNL     1       2.214   7.378  19.655  0.00  0.00    +0.000 A 
ATOM     18  C   UNL     1       1.428   8.128  20.702  0.00  0.00    +0.000 C 
ENDBRANCH  10  15
ENDBRANCH   8  10
ENDBRANCH   7   8
ENDBRANCH   1   7
BRANCH   5  19
ATOM     19  C   UNL     1       7.423   8.952  17.689  0.00  0.00    +0.000 C 
BRANCH  19  20
ATOM     20  N   UNL     1       8.837   9.269  17.983  0.00  0.00    +0.000 NA
ATOM     21  H   UNL     1       9.224   9.916  17.259  0.00  0.00    +0.000 HD
BRANCH  20  22
ATOM     22  C   UNL     1       9.054   9.808  19.337  0.00  0.00    +0.000 C 
BRANCH  22  23
ATOM     23  C   UNL     1       9.905  11.045  19.279  0.00  0.00    +0.000 A 
ATOM     24  C   UNL     1      10.264  11.712  20.459  0.00  0.00    +0.000 A 
ATOM     25  C   UNL     1      11.048  12.861  20.409  0.00  0.00    +0.000 A 
ATOM     26  C   UNL     1      11.491  13.372  19.179  0.00  0.00    +0.000 A 
ATOM     27  C   UNL     1      12.331  14.620  19.173  0.00  0.00    +0.000 C 
ATOM     28  C   UNL     1      11.132  12.700  17.980  0.00  0.00    +0.000 A 
ATOM     29  C   UNL     1      11.559  13.169  16.614  0.00  0.00    +0.000 C 
ATOM     30  C   UNL     1      10.344  11.541  18.048  0.00  0.00    +0.000 A 
ENDBRANCH  22  23
ENDBRANCH  20  22
ENDBRANCH  19  20
ENDBRANCH   5  19
TORSDOF 8
ENDMDL
MODEL 7
REMARK VINA RESULT:      -8.3      1.619      2.168
REMARK  Name = 
REMARK  12 active torsions:
REMARK  status: ('A' for Active; 'I' for Inactive)
REMARK    1  A    between atoms: C_1  and  C_2
REMARK    2  A    between atoms: C_5  and  C_6
REMARK    3  A    between atoms: C_6  and  N_7
REMARK    4  A    between atoms: N_7  and  C_8
REMARK    5  A    between atoms: C_8  and  C_9
REMARK    6  A    between atoms: C_13  and  C_14
REMARK    7  A    between atoms: C_14  and  N_15
REMARK    8  A    between atoms: N_15  and  C_16
REMARK    9  A    between atoms: C_16  and  C_17
REMARK   10  A    between atoms: C_20  and  C_21
REMARK   11  A    between atoms: C_22  and  C_23
REMARK   12  A    between atoms: C_27  and  C_28
REMARK                            x       y       z     vdW  Elec       q    Type
REMARK                         _______ _______ _______ _____ _____    ______ ____
ROOT
ATOM      1  C   UNL     1       2.338   3.883  18.708  0.00  0.00    +0.000 C 
ATOM      2  C   UNL     1       1.496   3.796  20.010  0.00  0.00    +0.000 C 
ATOM      3  C   UNL     1       1.870   4.884  21.026  0.00  0.00    +0.000 C 
ATOM      4  C   UNL     1       1.758   6.283  20.398  0.00  0.00    +0.000 C 
ATOM      5  C   UNL     1       2.668   6.378  19.156  0.00  0.00    +0.000 C 
ATOM      6  C   UNL     1       2.219   5.316  18.126  0.00  0.00    +0.000 C 
ENDROOT
BRANCH   1   7
ATOM      7  C   UNL     1       3.833   3.483  18.862  0.00  0.00    +0.000 C 
BRANCH   7   8
ATOM      8  N   UNL     1       4.302   2.587  17.795  0.00  0.00    +0.000 NA
ATOM      9  H   UNL     1       5.178   2.119  18.115  0.00  0.00    +0.000 HD
BRANCH   8  10
ATOM     10  C   UNL     1       4.595   3.384  16.590  0.00  0.00    +0.000 C 
BRANCH  10  15
ATOM     11  C   UNL     1       7.778   8.146  17.716  0.00  0.00    +0.000 C 
ATOM     12  C   UNL     1       6.962   6.905  17.460  0.00  0.00    +0.000 A 
ATOM     13  C   UNL     1       5.982   6.930  16.455  0.00  0.00    +0.000 A 
ATOM     14  C   UNL     1       5.214   5.798  16.179  0.00  0.00    +0.000 A 
ATOM     15  C   UNL     1       5.403   4.617  16.910  0.00  0.00    +0.000 A 
ATOM     16  C   UNL     1       6.378   4.587  17.920  0.00  0.00    +0.000 A 
ATOM     17  C   UNL     1       7.164   5.716  18.204  0.00  0.00    +0.000 A 
ATOM     18  C   UNL     1       8.210   5.631  19.289  0.00  0.00    +0.000 C 
ENDBRANCH  10  15
ENDBRANCH   8  10
ENDBRANCH   7   8
ENDBRANCH   1   7
BRANCH   5  19
ATOM     19  C   UNL     1       2.683   7.798  18.533  0.00  0.00    +0.000 C 
BRANCH  19  20
ATOM     20  N   UNL     1       1.547   8.645  18.956  0.00  0.00    +0.000 NA
ATOM     21  H   UNL     1       1.789   9.172  19.826  0.00  0.00    +0.000 HD
BRANCH  20  22
ATOM     22  C   UNL     1       1.068   9.560  17.904  0.00  0.00    +0.000 C 
BRANCH  22  23
ATOM     23  C   UNL     1      -0.142  10.316  18.379  0.00  0.00    +0.000 A 
ATOM     24  C   UNL     1      -0.042  11.198  19.465  0.00  0.00    +0.000 A 
ATOM     25  C   UNL     1      -1.161  11.895  19.911  0.00  0.00    +0.000 A 
ATOM     26  C   UNL     1      -2.406  11.728  19.283  0.00  0.00    +0.000 A 
ATOM     27  C   UNL     1      -3.589  12.498  19.804  0.00  0.00    +0.000 C 
ATOM     28  C   UNL     1      -2.512  10.837  18.182  0.00  0.00    +0.000 A 
ATOM     29  C   UNL     1      -3.802  10.592  17.444  0.00  0.00    +0.000 C 
ATOM     30  C   UNL     1      -1.374  10.144  17.742  0.00  0.00    +0.000 A 
ENDBRANCH  22  23
ENDBRANCH  20  22
ENDBRANCH  19  20
ENDBRANCH   5  19
TORSDOF 8
ENDMDL
MODEL 8
REMARK VINA RESULT:      -8.3      2.099      3.368
REMARK  Name = 
REMARK  12 active torsions:
REMARK  status: ('A' for Active; 'I' for Inactive)
REMARK    1  A    between atoms: C_1  and  C_2
REMARK    2  A    between atoms: C_5  and  C_6
REMARK    3  A    between atoms: C_6  and  N_7
REMARK    4  A    between atoms: N_7  and  C_8
REMARK    5  A    between atoms: C_8  and  C_9
REMARK    6  A    between atoms: C_13  and  C_14
REMARK    7  A    between atoms: C_14  and  N_15
REMARK    8  A    between atoms: N_15  and  C_16
REMARK    9  A    between atoms: C_16  and  C_17
REMARK   10  A    between atoms: C_20  and  C_21
REMARK   11  A    between atoms: C_22  and  C_23
REMARK   12  A    between atoms: C_27  and  C_28
REMARK                            x       y       z     vdW  Elec       q    Type
REMARK                         _______ _______ _______ _____ _____    ______ ____
ROOT
ATOM      1  C   UNL     1       3.554   4.528  18.847  0.00  0.00    +0.000 C 
ATOM      2  C   UNL     1       2.461   4.317  19.929  0.00  0.00    +0.000 C 
ATOM      3  C   UNL     1       2.148   5.601  20.709  0.00  0.00    +0.000 C 
ATOM      4  C   UNL     1       1.756   6.742  19.754  0.00  0.00    +0.000 C 
ATOM      5  C   UNL     1       2.892   6.995  18.742  0.00  0.00    +0.000 C 
ATOM      6  C   UNL     1       3.133   5.704  17.927  0.00  0.00    +0.000 C 
ENDROOT
BRANCH   1   7
ATOM      7  C   UNL     1       4.990   4.761  19.399  0.00  0.00    +0.000 C 
BRANCH   7   8
ATOM      8  N   UNL     1       6.031   4.116  18.585  0.00  0.00    +0.000 NA
ATOM      9  H   UNL     1       6.771   3.749  19.223  0.00  0.00    +0.000 HD
BRANCH   8  10
ATOM     10  C   UNL     1       6.627   5.117  17.682  0.00  0.00    +0.000 C 
BRANCH  10  15
ATOM     11  C   UNL     1       6.110   3.492  12.099  0.00  0.00    +0.000 C 
ATOM     12  C   UNL     1       6.259   3.943  13.529  0.00  0.00    +0.000 A 
ATOM     13  C   UNL     1       5.399   3.412  14.504  0.00  0.00    +0.000 A 
ATOM     14  C   UNL     1       5.513   3.796  15.840  0.00  0.00    +0.000 A 
ATOM     15  C   UNL     1       6.483   4.727  16.232  0.00  0.00    +0.000 A 
ATOM     16  C   UNL     1       7.343   5.267  15.262  0.00  0.00    +0.000 A 
ATOM     17  C   UNL     1       7.246   4.885  13.913  0.00  0.00    +0.000 A 
ATOM     18  C   UNL     1       8.202   5.481  12.908  0.00  0.00    +0.000 C 
ENDBRANCH  10  15
ENDBRANCH   8  10
ENDBRANCH   7   8
ENDBRANCH   1   7
BRANCH   5  19
ATOM     19  C   UNL     1       2.607   8.204  17.814  0.00  0.00    +0.000 C 
BRANCH  19  20
ATOM     20  N   UNL     1       1.334   8.895  18.111  0.00  0.00    +0.000 NA
ATOM     21  H   UNL     1       0.804   8.382  18.851  0.00  0.00    +0.000 HD
BRANCH  20  22
ATOM     22  C   UNL     1       1.501  10.314  18.474  0.00  0.00    +0.000 C 
BRANCH  22  23
ATOM     23  C   UNL     1       0.637  10.658  19.655  0.00  0.00    +0.000 A 
ATOM     24  C   UNL     1      -0.283  11.714  19.573  0.00  0.00    +0.000 A 
ATOM     25  C   UNL     1      -1.080  12.040  20.666  0.00  0.00    +0.000 A 
ATOM     26  C   UNL     1      -0.978  11.319  21.866  0.00  0.00    +0.000 A 
ATOM     27  C   UNL     1      -1.857  11.711  23.023  0.00  0.00    +0.000 C 
ATOM     28  C   UNL     1      -0.050  10.248  21.955  0.00  0.00    +0.000 A 
ATOM     29  C   UNL     1       0.131   9.416  23.197  0.00  0.00    +0.000 C 
ATOM     30  C   UNL     1       0.745   9.930  20.843  0.00  0.00    +0.000 A 
ENDBRANCH  22  23
ENDBRANCH  20  22
ENDBRANCH  19  20
ENDBRANCH   5  19
TORSDOF 8
ENDMDL
MODEL 9
REMARK VINA RESULT:      -8.3      2.139      8.932
REMARK  Name = 
REMARK  12 active torsions:
REMARK  status: ('A' for Active; 'I' for Inactive)
REMARK    1  A    between atoms: C_1  and  C_2
REMARK    2  A    between atoms: C_5  and  C_6
REMARK    3  A    between atoms: C_6  and  N_7
REMARK    4  A    between atoms: N_7  and  C_8
REMARK    5  A    between atoms: C_8  and  C_9
REMARK    6  A    between atoms: C_13  and  C_14
REMARK    7  A    between atoms: C_14  and  N_15
REMARK    8  A    between atoms: N_15  and  C_16
REMARK    9  A    between atoms: C_16  and  C_17
REMARK   10  A    between atoms: C_20  and  C_21
REMARK   11  A    between atoms: C_22  and  C_23
REMARK   12  A    between atoms: C_27  and  C_28
REMARK                            x       y       z     vdW  Elec       q    Type
REMARK                         _______ _______ _______ _____ _____    ______ ____
ROOT
ATOM      1  C   UNL     1       2.563   4.710  20.662  0.00  0.00    +0.000 C 
ATOM      2  C   UNL     1       1.401   3.753  21.042  0.00  0.00    +0.000 C 
ATOM      3  C   UNL     1       0.725   3.129  19.813  0.00  0.00    +0.000 C 
ATOM      4  C   UNL     1       1.756   2.409  18.927  0.00  0.00    +0.000 C 
ATOM      5  C   UNL     1       2.856   3.398  18.488  0.00  0.00    +0.000 C 
ATOM      6  C   UNL     1       3.560   3.952  19.748  0.00  0.00    +0.000 C 
ENDROOT
BRANCH   1   7
ATOM      7  C   UNL     1       2.125   6.046  19.996  0.00  0.00    +0.000 C 
BRANCH   7   8
ATOM      8  N   UNL     1       1.740   7.076  20.972  0.00  0.00    +0.000 NA
ATOM      9  H   UNL     1       0.833   6.797  21.409  0.00  0.00    +0.000 HD
BRANCH   8  10
ATOM     10  C   UNL     1       1.561   8.361  20.272  0.00  0.00    +0.000 C 
BRANCH  10  15
ATOM     11  C   UNL     1      -2.009  11.907  23.231  0.00  0.00    +0.000 C 
ATOM     12  C   UNL     1      -1.079  11.020  22.445  0.00  0.00    +0.000 A 
ATOM     13  C   UNL     1      -0.513   9.899  23.073  0.00  0.00    +0.000 A 
ATOM     14  C   UNL     1       0.343   9.046  22.375  0.00  0.00    +0.000 A 
ATOM     15  C   UNL     1       0.661   9.301  21.035  0.00  0.00    +0.000 A 
ATOM     16  C   UNL     1       0.103  10.423  20.401  0.00  0.00    +0.000 A 
ATOM     17  C   UNL     1      -0.766  11.287  21.088  0.00  0.00    +0.000 A 
ATOM     18  C   UNL     1      -1.354  12.472  20.361  0.00  0.00    +0.000 C 
ENDBRANCH  10  15
ENDBRANCH   8  10
ENDBRANCH   7   8
ENDBRANCH   1   7
BRANCH   5  19
ATOM     19  C   UNL     1       3.874   2.761  17.506  0.00  0.00    +0.000 C 
BRANCH  19  20
ATOM     20  N   UNL     1       5.138   3.520  17.385  0.00  0.00    +0.000 NA
ATOM     21  H   UNL     1       5.894   2.910  17.000  0.00  0.00    +0.000 HD
BRANCH  20  22
ATOM     22  C   UNL     1       5.011   4.759  16.598  0.00  0.00    +0.000 C 
BRANCH  22  23
ATOM     23  C   UNL     1       5.635   4.584  15.241  0.00  0.00    +0.000 A 
ATOM     24  C   UNL     1       6.950   5.011  15.008  0.00  0.00    +0.000 A 
ATOM     25  C   UNL     1       7.528   4.857  13.751  0.00  0.00    +0.000 A 
ATOM     26  C   UNL     1       6.807   4.272  12.698  0.00  0.00    +0.000 A 
ATOM     27  C   UNL     1       7.472   4.131  11.356  0.00  0.00    +0.000 C 
ATOM     28  C   UNL     1       5.475   3.836  12.929  0.00  0.00    +0.000 A 
ATOM     29  C   UNL     1       4.623   3.197  11.865  0.00  0.00    +0.000 C 
ATOM     30  C   UNL     1       4.908   3.996  14.202  0.00  0.00    +0.000 A 
ENDBRANCH  22  23
ENDBRANCH  20  22
ENDBRANCH  19  20
ENDBRANCH   5  19
TORSDOF 8
ENDMDL
