MODEL 1
REMARK VINA RESULT:      -9.3      0.000      0.000
REMARK  Name = 
REMARK  8 active torsions:
REMARK  status: ('A' for Active; 'I' for Inactive)
REMARK    1  A    between atoms: N_1  and  C_2
REMARK    2  A    between atoms: C_2  and  C_3
REMARK    3  A    between atoms: C_2  and  C_24
REMARK    4  A    between atoms: C_3  and  C_4
REMARK    5  A    between atoms: C_10  and  C_11
REMARK    6  A    between atoms: N_13  and  C_14
REMARK    7  A    between atoms: C_14  and  C_15
REMARK    8  A    between atoms: C_24  and  C_25
REMARK                            x       y       z     vdW  Elec       q    Type
REMARK                         _______ _______ _______ _____ _____    ______ ____
ROOT
ATOM      1  C   UNL     1       2.453   7.700  18.571  0.00  0.00    +0.000 C 
ATOM      2  O   UNL     1       2.992   7.703  17.467  0.00  0.00    +0.000 OA
ATOM      3  N   UNL     1       2.356   6.552  19.346  0.00  0.00    +0.000 N 
ATOM      4  N   UNL     1       1.700   6.567  20.552  0.00  0.00    +0.000 NA
ATOM      5  C   UNL     1       1.573   5.336  20.922  0.00  0.00    +0.000 C 
ATOM      6  C   UNL     1       2.097   4.304  19.984  0.00  0.00    +0.000 C 
ATOM      7  C   UNL     1       2.689   5.192  18.894  0.00  0.00    +0.000 C 
ENDROOT
BRANCH   7   8
ATOM      8  C   UNL     1       4.196   4.913  18.737  0.00  0.00    +0.000 C 
ATOM      9  O   UNL     1       4.735   3.933  19.251  0.00  0.00    +0.000 OA
ATOM     10  N   UNL     1       4.879   5.726  17.864  0.00  0.00    +0.000 N 
ATOM     11  H   UNL     1       4.328   6.224  17.160  0.00  0.00    +0.000 HD
BRANCH  10  12
ATOM     12  C   UNL     1       6.269   5.463  17.565  0.00  0.00    +0.000 C 
BRANCH  12  13
ATOM     13  C   UNL     1       6.399   5.036  16.148  0.00  0.00    +0.000 A 
ATOM     14  N   UNL     1       5.648   4.157  15.514  0.00  0.00    +0.000 NA
ATOM     15  C   UNL     1       6.131   4.117  14.229  0.00  0.00    +0.000 A 
ATOM     16  C   UNL     1       5.692   3.361  13.132  0.00  0.00    +0.000 A 
ATOM     17  C   UNL     1       6.346   3.519  11.905  0.00  0.00    +0.000 A 
ATOM     18  C   UNL     1       7.419   4.405  11.775  0.00  0.00    +0.000 A 
ATOM     19  C   UNL     1       7.880   5.159  12.862  0.00  0.00    +0.000 A 
ATOM     20  C   UNL     1       7.204   4.986  14.072  0.00  0.00    +0.000 A 
ATOM     21  N   UNL     1       7.366   5.546  15.312  0.00  0.00    +0.000 N 
ATOM     22  H   UNL     1       8.050   6.243  15.567  0.00  0.00    +0.000 HD
ENDBRANCH  12  13
ENDBRANCH  10  12
ENDBRANCH   7   8
BRANCH   1  23
ATOM     23  C   UNL     1       1.837   8.937  19.219  0.00  0.00    +0.000 C 
BRANCH  23  24
ATOM     24  C   UNL     1       0.893   9.775  18.343  0.00  0.00    +0.000 C 
BRANCH  24  25
ATOM     25  N   UNL     1       1.672  10.920  17.820  0.00  0.00    +0.000 NA
ATOM     26  H   UNL     1       2.662  10.790  18.031  0.00  0.00    +0.000 HD
ATOM     27  H   UNL     1       1.394  11.778  18.299  0.00  0.00    +0.000 HD
ENDBRANCH  24  25
BRANCH  24  28
ATOM     28  C   UNL     1      -0.338  10.295  19.127  0.00  0.00    +0.000 C 
BRANCH  28  29
ATOM     29  C   UNL     1      -1.622  10.551  18.360  0.00  0.00    +0.000 A 
ATOM     30  C   UNL     1      -1.814   9.882  17.137  0.00  0.00    +0.000 A 
ATOM     31  C   UNL     1      -2.965  10.102  16.383  0.00  0.00    +0.000 A 
ATOM     32  F   UNL     1      -3.120   9.456  15.219  0.00  0.00    +0.000 F 
ATOM     33  C   UNL     1      -3.936  10.989  16.826  0.00  0.00    +0.000 A 
ATOM     34  F   UNL     1      -5.048  11.188  16.105  0.00  0.00    +0.000 F 
ATOM     35  C   UNL     1      -3.759  11.683  18.014  0.00  0.00    +0.000 A 
ATOM     36  C   UNL     1      -2.600  11.474  18.762  0.00  0.00    +0.000 A 
ATOM     37  F   UNL     1      -2.435  12.207  19.871  0.00  0.00    +0.000 F 
ENDBRANCH  28  29
ENDBRANCH  24  28
ENDBRANCH  23  24
ENDBRANCH   1  23
TORSDOF 8
ENDMDL
MODEL 2
REMARK VINA RESULT:      -8.9      2.774      4.011
REMARK  Name = 
REMARK  8 active torsions:
REMARK  status: ('A' for Active; 'I' for Inactive)
REMARK    1  A    between atoms: N_1  and  C_2
REMARK    2  A    between atoms: C_2  and  C_3
REMARK    3  A    between atoms: C_2  and  C_24
REMARK    4  A    between atoms: C_3  and  C_4
REMARK    5  A    between atoms: C_10  and  C_11
REMARK    6  A    between atoms: N_13  and  C_14
REMARK    7  A    between atoms: C_14  and  C_15
REMARK    8  A    between atoms: C_24  and  C_25
REMARK                            x       y       z     vdW  Elec       q    Type
REMARK                         _______ _______ _______ _____ _____    ______ ____
ROOT
ATOM      1  C   UNL     1       2.853   7.543  18.570  0.00  0.00    +0.000 C 
ATOM      2  O   UNL     1       3.539   7.830  17.592  0.00  0.00    +0.000 OA
ATOM      3  N   UNL     1       2.973   6.327  19.229  0.00  0.00    +0.000 N 
ATOM      4  N   UNL     1       2.155   6.014  20.287  0.00  0.00    +0.000 NA
ATOM      5  C   UNL     1       2.335   4.760  20.538  0.00  0.00    +0.000 C 
ATOM      6  C   UNL     1       3.283   4.035  19.646  0.00  0.00    +0.000 C 
ATOM      7  C   UNL     1       3.757   5.177  18.754  0.00  0.00    +0.000 C 
ENDROOT
BRANCH   7   8
ATOM      8  C   UNL     1       5.285   5.345  18.867  0.00  0.00    +0.000 C 
ATOM      9  O   UNL     1       5.923   4.887  19.814  0.00  0.00    +0.000 OA
ATOM     10  N   UNL     1       5.920   5.895  17.778  0.00  0.00    +0.000 N 
ATOM     11  H   UNL     1       5.427   5.859  16.882  0.00  0.00    +0.000 HD
BRANCH  10  12
ATOM     12  C   UNL     1       7.363   5.981  17.749  0.00  0.00    +0.000 C 
BRANCH  12  13
ATOM     13  C   UNL     1       7.779   7.396  17.928  0.00  0.00    +0.000 A 
ATOM     14  N   UNL     1       7.424   8.425  17.185  0.00  0.00    +0.000 NA
ATOM     15  C   UNL     1       8.035   9.518  17.752  0.00  0.00    +0.000 A 
ATOM     16  C   UNL     1       7.985  10.867  17.371  0.00  0.00    +0.000 A 
ATOM     17  C   UNL     1       8.687  11.805  18.137  0.00  0.00    +0.000 A 
ATOM     18  C   UNL     1       9.427  11.407  19.253  0.00  0.00    +0.000 A 
ATOM     19  C   UNL     1       9.498  10.063  19.642  0.00  0.00    +0.000 A 
ATOM     20  C   UNL     1       8.783   9.150  18.863  0.00  0.00    +0.000 A 
ATOM     21  N   UNL     1       8.619   7.792  18.944  0.00  0.00    +0.000 N 
ATOM     22  H   UNL     1       9.011   7.185  19.648  0.00  0.00    +0.000 HD
ENDBRANCH  12  13
ENDBRANCH  10  12
ENDBRANCH   7   8
BRANCH   1  23
ATOM     23  C   UNL     1       1.806   8.474  19.175  0.00  0.00    +0.000 C 
BRANCH  23  24
ATOM     24  C   UNL     1       1.097   9.435  18.207  0.00  0.00    +0.000 C 
BRANCH  24  25
ATOM     25  N   UNL     1       2.140  10.259  17.556  0.00  0.00    +0.000 NA
ATOM     26  H   UNL     1       1.705  10.925  16.917  0.00  0.00    +0.000 HD
ATOM     27  H   UNL     1       2.739   9.668  16.978  0.00  0.00    +0.000 HD
ENDBRANCH  24  25
BRANCH  24  28
ATOM     28  C   UNL     1       0.076  10.353  18.924  0.00  0.00    +0.000 C 
BRANCH  28  29
ATOM     29  C   UNL     1      -1.286  10.550  18.285  0.00  0.00    +0.000 A 
ATOM     30  C   UNL     1      -1.571   9.856  17.094  0.00  0.00    +0.000 A 
ATOM     31  C   UNL     1      -2.798  10.022  16.456  0.00  0.00    +0.000 A 
ATOM     32  F   UNL     1      -3.042   9.353  15.320  0.00  0.00    +0.000 F 
ATOM     33  C   UNL     1      -3.754  10.879  16.982  0.00  0.00    +0.000 A 
ATOM     34  F   UNL     1      -4.939  11.026  16.372  0.00  0.00    +0.000 F 
ATOM     35  C   UNL     1      -3.488  11.597  18.140  0.00  0.00    +0.000 A 
ATOM     36  C   UNL     1      -2.254  11.442  18.771  0.00  0.00    +0.000 A 
ATOM     37  F   UNL     1      -2.009  12.197  19.850  0.00  0.00    +0.000 F 
ENDBRANCH  28  29
ENDBRANCH  24  28
ENDBRANCH  23  24
ENDBRANCH   1  23
TORSDOF 8
ENDMDL
MODEL 3
REMARK VINA RESULT:      -8.9      2.647      2.917
REMARK  Name = 
REMARK  8 active torsions:
REMARK  status: ('A' for Active; 'I' for Inactive)
REMARK    1  A    between atoms: N_1  and  C_2
REMARK    2  A    between atoms: C_2  and  C_3
REMARK    3  A    between atoms: C_2  and  C_24
REMARK    4  A    between atoms: C_3  and  C_4
REMARK    5  A    between atoms: C_10  and  C_11
REMARK    6  A    between atoms: N_13  and  C_14
REMARK    7  A    between atoms: C_14  and  C_15
REMARK    8  A    between atoms: C_24  and  C_25
REMARK                            x       y       z     vdW  Elec       q    Type
REMARK                         _______ _______ _______ _____ _____    ______ ____
ROOT
ATOM      1  C   UNL     1       2.203   6.217  19.850  0.00  0.00    +0.000 C 
ATOM      2  O   UNL     1       2.615   6.720  18.807  0.00  0.00    +0.000 OA
ATOM      3  N   UNL     1       2.472   4.900  20.195  0.00  0.00    +0.000 N 
ATOM      4  N   UNL     1       1.952   4.350  21.341  0.00  0.00    +0.000 NA
ATOM      5  C   UNL     1       2.172   3.079  21.278  0.00  0.00    +0.000 C 
ATOM      6  C   UNL     1       2.845   2.584  20.044  0.00  0.00    +0.000 C 
ATOM      7  C   UNL     1       3.088   3.898  19.311  0.00  0.00    +0.000 C 
ENDROOT
BRANCH   7   8
ATOM      8  C   UNL     1       4.595   4.099  19.058  0.00  0.00    +0.000 C 
ATOM      9  O   UNL     1       5.448   3.413  19.622  0.00  0.00    +0.000 OA
ATOM     10  N   UNL     1       4.934   4.976  18.055  0.00  0.00    +0.000 N 
ATOM     11  H   UNL     1       4.218   5.182  17.354  0.00  0.00    +0.000 HD
BRANCH  10  12
ATOM     12  C   UNL     1       6.318   5.136  17.670  0.00  0.00    +0.000 C 
BRANCH  12  13
ATOM     13  C   UNL     1       6.471   4.823  16.226  0.00  0.00    +0.000 A 
ATOM     14  N   UNL     1       5.808   3.913  15.540  0.00  0.00    +0.000 NA
ATOM     15  C   UNL     1       6.272   4.012  14.251  0.00  0.00    +0.000 A 
ATOM     16  C   UNL     1       5.899   3.290  13.108  0.00  0.00    +0.000 A 
ATOM     17  C   UNL     1       6.513   3.600  11.889  0.00  0.00    +0.000 A 
ATOM     18  C   UNL     1       7.483   4.603  11.812  0.00  0.00    +0.000 A 
ATOM     19  C   UNL     1       7.877   5.327  12.944  0.00  0.00    +0.000 A 
ATOM     20  C   UNL     1       7.243   5.001  14.145  0.00  0.00    +0.000 A 
ATOM     21  N   UNL     1       7.364   5.490  15.420  0.00  0.00    +0.000 N 
ATOM     22  H   UNL     1       7.974   6.237  15.716  0.00  0.00    +0.000 HD
ENDBRANCH  12  13
ENDBRANCH  10  12
ENDBRANCH   7   8
BRANCH   1  23
ATOM     23  C   UNL     1       1.363   6.968  20.879  0.00  0.00    +0.000 C 
BRANCH  23  24
ATOM     24  C   UNL     1       1.489   8.499  20.887  0.00  0.00    +0.000 C 
BRANCH  24  25
ATOM     25  N   UNL     1       1.782   8.915  22.278  0.00  0.00    +0.000 NA
ATOM     26  H   UNL     1       1.412   8.223  22.930  0.00  0.00    +0.000 HD
ATOM     27  H   UNL     1       1.297   9.787  22.489  0.00  0.00    +0.000 HD
ENDBRANCH  24  25
BRANCH  24  28
ATOM     28  C   UNL     1       0.202   9.203  20.391  0.00  0.00    +0.000 C 
BRANCH  28  29
ATOM     29  C   UNL     1       0.303  10.647  19.934  0.00  0.00    +0.000 A 
ATOM     30  C   UNL     1       1.335  10.994  19.042  0.00  0.00    +0.000 A 
ATOM     31  C   UNL     1       1.484  12.310  18.612  0.00  0.00    +0.000 A 
ATOM     32  F   UNL     1       2.479  12.616  17.767  0.00  0.00    +0.000 F 
ATOM     33  C   UNL     1       0.620  13.299  19.061  0.00  0.00    +0.000 A 
ATOM     34  F   UNL     1       0.759  14.562  18.634  0.00  0.00    +0.000 F 
ATOM     35  C   UNL     1      -0.388  12.989  19.962  0.00  0.00    +0.000 A 
ATOM     36  C   UNL     1      -0.529  11.674  20.404  0.00  0.00    +0.000 A 
ATOM     37  F   UNL     1      -1.474  11.424  21.321  0.00  0.00    +0.000 F 
ENDBRANCH  28  29
ENDBRANCH  24  28
ENDBRANCH  23  24
ENDBRANCH   1  23
TORSDOF 8
ENDMDL
MODEL 4
REMARK VINA RESULT:      -8.9      2.403      2.995
REMARK  Name = 
REMARK  8 active torsions:
REMARK  status: ('A' for Active; 'I' for Inactive)
REMARK    1  A    between atoms: N_1  and  C_2
REMARK    2  A    between atoms: C_2  and  C_3
REMARK    3  A    between atoms: C_2  and  C_24
REMARK    4  A    between atoms: C_3  and  C_4
REMARK    5  A    between atoms: C_10  and  C_11
REMARK    6  A    between atoms: N_13  and  C_14
REMARK    7  A    between atoms: C_14  and  C_15
REMARK    8  A    between atoms: C_24  and  C_25
REMARK                            x       y       z     vdW  Elec       q    Type
REMARK                         _______ _______ _______ _____ _____    ______ ____
ROOT
ATOM      1  C   UNL     1       2.097   6.215  20.055  0.00  0.00    +0.000 C 
ATOM      2  O   UNL     1       2.471   6.802  19.042  0.00  0.00    +0.000 OA
ATOM      3  N   UNL     1       2.431   4.892  20.311  0.00  0.00    +0.000 N 
ATOM      4  N   UNL     1       1.952   4.246  21.425  0.00  0.00    +0.000 NA
ATOM      5  C   UNL     1       2.230   2.994  21.277  0.00  0.00    +0.000 C 
ATOM      6  C   UNL     1       2.908   2.611  20.007  0.00  0.00    +0.000 C 
ATOM      7  C   UNL     1       3.080   3.979  19.357  0.00  0.00    +0.000 C 
ENDROOT
BRANCH   7   8
ATOM      8  C   UNL     1       4.573   4.266  19.103  0.00  0.00    +0.000 C 
ATOM      9  O   UNL     1       5.464   3.585  19.611  0.00  0.00    +0.000 OA
ATOM     10  N   UNL     1       4.858   5.221  18.155  0.00  0.00    +0.000 N 
ATOM     11  H   UNL     1       4.124   5.439  17.476  0.00  0.00    +0.000 HD
BRANCH  10  12
ATOM     12  C   UNL     1       6.228   5.471  17.767  0.00  0.00    +0.000 C 
BRANCH  12  13
ATOM     13  C   UNL     1       6.402   5.145  16.328  0.00  0.00    +0.000 A 
ATOM     14  N   UNL     1       7.313   5.636  15.511  0.00  0.00    +0.000 NA
ATOM     15  C   UNL     1       7.093   5.022  14.301  0.00  0.00    +0.000 A 
ATOM     16  C   UNL     1       7.782   5.166  13.088  0.00  0.00    +0.000 A 
ATOM     17  C   UNL     1       7.371   4.400  11.991  0.00  0.00    +0.000 A 
ATOM     18  C   UNL     1       6.295   3.516  12.098  0.00  0.00    +0.000 A 
ATOM     19  C   UNL     1       5.587   3.368  13.298  0.00  0.00    +0.000 A 
ATOM     20  C   UNL     1       6.022   4.140  14.378  0.00  0.00    +0.000 A 
ATOM     21  N   UNL     1       5.588   4.249  15.673  0.00  0.00    +0.000 N 
ATOM     22  H   UNL     1       4.828   3.736  16.093  0.00  0.00    +0.000 HD
ENDBRANCH  12  13
ENDBRANCH  10  12
ENDBRANCH   7   8
BRANCH   1  23
ATOM     23  C   UNL     1       1.237   6.858  21.140  0.00  0.00    +0.000 C 
BRANCH  23  24
ATOM     24  C   UNL     1       1.165   8.393  21.142  0.00  0.00    +0.000 C 
BRANCH  24  25
ATOM     25  N   UNL     1       2.126   8.882  22.157  0.00  0.00    +0.000 NA
ATOM     26  H   UNL     1       2.572   8.089  22.621  0.00  0.00    +0.000 HD
ATOM     27  H   UNL     1       1.629   9.391  22.889  0.00  0.00    +0.000 HD
ENDBRANCH  24  25
BRANCH  24  28
ATOM     28  C   UNL     1      -0.254   8.920  21.468  0.00  0.00    +0.000 C 
BRANCH  28  29
ATOM     29  C   UNL     1      -0.574  10.369  21.151  0.00  0.00    +0.000 A 
ATOM     30  C   UNL     1      -0.305  10.843  19.853  0.00  0.00    +0.000 A 
ATOM     31  C   UNL     1      -0.558  12.171  19.519  0.00  0.00    +0.000 A 
ATOM     32  F   UNL     1      -0.287  12.598  18.278  0.00  0.00    +0.000 F 
ATOM     33  C   UNL     1      -1.074  13.047  20.463  0.00  0.00    +0.000 A 
ATOM     34  F   UNL     1      -1.329  14.321  20.134  0.00  0.00    +0.000 F 
ATOM     35  C   UNL     1      -1.322  12.613  21.758  0.00  0.00    +0.000 A 
ATOM     36  C   UNL     1      -1.055  11.286  22.097  0.00  0.00    +0.000 A 
ATOM     37  F   UNL     1      -1.249  10.920  23.371  0.00  0.00    +0.000 F 
ENDBRANCH  28  29
ENDBRANCH  24  28
ENDBRANCH  23  24
ENDBRANCH   1  23
TORSDOF 8
ENDMDL
MODEL 5
REMARK VINA RESULT:      -8.8      4.455     10.112
REMARK  Name = 
REMARK  8 active torsions:
REMARK  status: ('A' for Active; 'I' for Inactive)
REMARK    1  A    between atoms: N_1  and  C_2
REMARK    2  A    between atoms: C_2  and  C_3
REMARK    3  A    between atoms: C_2  and  C_24
REMARK    4  A    between atoms: C_3  and  C_4
REMARK    5  A    between atoms: C_10  and  C_11
REMARK    6  A    between atoms: N_13  and  C_14
REMARK    7  A    between atoms: C_14  and  C_15
REMARK    8  A    between atoms: C_24  and  C_25
REMARK                            x       y       z     vdW  Elec       q    Type
REMARK                         _______ _______ _______ _____ _____    ______ ____
ROOT
ATOM      1  C   UNL     1       1.960   8.979  18.218  0.00  0.00    +0.000 C 
ATOM      2  O   UNL     1       2.233   9.703  17.263  0.00  0.00    +0.000 OA
ATOM      3  N   UNL     1       1.269   9.446  19.328  0.00  0.00    +0.000 N 
ATOM      4  N   UNL     1       1.027   8.627  20.404  0.00  0.00    +0.000 NA
ATOM      5  C   UNL     1       0.586   9.382  21.354  0.00  0.00    +0.000 C 
ATOM      6  C   UNL     1       0.506  10.840  21.060  0.00  0.00    +0.000 C 
ATOM      7  C   UNL     1       0.954  10.856  19.602  0.00  0.00    +0.000 C 
ENDROOT
BRANCH   7   8
ATOM      8  C   UNL     1      -0.150  11.456  18.710  0.00  0.00    +0.000 C 
ATOM      9  O   UNL     1      -0.247  12.668  18.518  0.00  0.00    +0.000 OA
ATOM     10  N   UNL     1      -0.927  10.560  18.015  0.00  0.00    +0.000 N 
ATOM     11  H   UNL     1      -0.544   9.621  17.874  0.00  0.00    +0.000 HD
BRANCH  10  12
ATOM     12  C   UNL     1      -1.908  11.036  17.065  0.00  0.00    +0.000 C 
BRANCH  12  13
ATOM     13  C   UNL     1      -3.213  11.220  17.750  0.00  0.00    +0.000 A 
ATOM     14  N   UNL     1      -4.291  10.473  17.613  0.00  0.00    +0.000 NA
ATOM     15  C   UNL     1      -5.227  11.016  18.460  0.00  0.00    +0.000 A 
ATOM     16  C   UNL     1      -6.543  10.607  18.718  0.00  0.00    +0.000 A 
ATOM     17  C   UNL     1      -7.295  11.324  19.655  0.00  0.00    +0.000 A 
ATOM     18  C   UNL     1      -6.752  12.429  20.315  0.00  0.00    +0.000 A 
ATOM     19  C   UNL     1      -5.443  12.860  20.061  0.00  0.00    +0.000 A 
ATOM     20  C   UNL     1      -4.713  12.122  19.127  0.00  0.00    +0.000 A 
ATOM     21  N   UNL     1      -3.436  12.242  18.644  0.00  0.00    +0.000 N 
ATOM     22  H   UNL     1      -2.756  12.934  18.921  0.00  0.00    +0.000 HD
ENDBRANCH  12  13
ENDBRANCH  10  12
ENDBRANCH   7   8
BRANCH   1  23
ATOM     23  C   UNL     1       2.338   7.503  18.299  0.00  0.00    +0.000 C 
BRANCH  23  24
ATOM     24  C   UNL     1       3.835   7.168  18.213  0.00  0.00    +0.000 C 
BRANCH  24  25
ATOM     25  N   UNL     1       4.202   7.135  16.779  0.00  0.00    +0.000 NA
ATOM     26  H   UNL     1       4.655   6.248  16.558  0.00  0.00    +0.000 HD
ATOM     27  H   UNL     1       4.894   7.860  16.580  0.00  0.00    +0.000 HD
ENDBRANCH  24  25
BRANCH  24  28
ATOM     28  C   UNL     1       4.179   5.810  18.872  0.00  0.00    +0.000 C 
BRANCH  28  29
ATOM     29  C   UNL     1       3.158   4.690  18.786  0.00  0.00    +0.000 A 
ATOM     30  C   UNL     1       2.363   4.423  19.916  0.00  0.00    +0.000 A 
ATOM     31  C   UNL     1       1.428   3.391  19.895  0.00  0.00    +0.000 A 
ATOM     32  F   UNL     1       0.688   3.154  20.988  0.00  0.00    +0.000 F 
ATOM     33  C   UNL     1       1.272   2.607  18.761  0.00  0.00    +0.000 A 
ATOM     34  F   UNL     1       0.363   1.623  18.740  0.00  0.00    +0.000 F 
ATOM     35  C   UNL     1       2.063   2.831  17.642  0.00  0.00    +0.000 A 
ATOM     36  C   UNL     1       3.009   3.856  17.668  0.00  0.00    +0.000 A 
ATOM     37  F   UNL     1       3.795   4.002  16.594  0.00  0.00    +0.000 F 
ENDBRANCH  28  29
ENDBRANCH  24  28
ENDBRANCH  23  24
ENDBRANCH   1  23
TORSDOF 8
ENDMDL
MODEL 6
REMARK VINA RESULT:      -8.8      2.454      2.975
REMARK  Name = 
REMARK  8 active torsions:
REMARK  status: ('A' for Active; 'I' for Inactive)
REMARK    1  A    between atoms: N_1  and  C_2
REMARK    2  A    between atoms: C_2  and  C_3
REMARK    3  A    between atoms: C_2  and  C_24
REMARK    4  A    between atoms: C_3  and  C_4
REMARK    5  A    between atoms: C_10  and  C_11
REMARK    6  A    between atoms: N_13  and  C_14
REMARK    7  A    between atoms: C_14  and  C_15
REMARK    8  A    between atoms: C_24  and  C_25
REMARK                            x       y       z     vdW  Elec       q    Type
REMARK                         _______ _______ _______ _____ _____    ______ ____
ROOT
ATOM      1  C   UNL     1       2.351   6.795  19.653  0.00  0.00    +0.000 C 
ATOM      2  O   UNL     1       3.081   7.301  18.804  0.00  0.00    +0.000 OA
ATOM      3  N   UNL     1       2.045   5.441  19.656  0.00  0.00    +0.000 N 
ATOM      4  N   UNL     1       1.183   4.914  20.586  0.00  0.00    +0.000 NA
ATOM      5  C   UNL     1       0.915   3.710  20.205  0.00  0.00    +0.000 C 
ATOM      6  C   UNL     1       1.536   3.265  18.926  0.00  0.00    +0.000 C 
ATOM      7  C   UNL     1       2.369   4.494  18.577  0.00  0.00    +0.000 C 
ENDROOT
BRANCH   7   8
ATOM      8  C   UNL     1       3.860   4.117  18.474  0.00  0.00    +0.000 C 
ATOM      9  O   UNL     1       4.256   2.968  18.664  0.00  0.00    +0.000 OA
ATOM     10  N   UNL     1       4.705   5.095  18.005  0.00  0.00    +0.000 N 
ATOM     11  H   UNL     1       4.284   5.859  17.469  0.00  0.00    +0.000 HD
BRANCH  10  12
ATOM     12  C   UNL     1       6.098   4.793  17.763  0.00  0.00    +0.000 C 
BRANCH  12  13
ATOM     13  C   UNL     1       6.319   4.602  16.307  0.00  0.00    +0.000 A 
ATOM     14  N   UNL     1       5.683   3.761  15.514  0.00  0.00    +0.000 NA
ATOM     15  C   UNL     1       6.211   3.963  14.262  0.00  0.00    +0.000 A 
ATOM     16  C   UNL     1       5.888   3.345  13.045  0.00  0.00    +0.000 A 
ATOM     17  C   UNL     1       6.564   3.749  11.888  0.00  0.00    +0.000 A 
ATOM     18  C   UNL     1       7.544   4.743  11.943  0.00  0.00    +0.000 A 
ATOM     19  C   UNL     1       7.888   5.365  13.151  0.00  0.00    +0.000 A 
ATOM     20  C   UNL     1       7.194   4.945  14.288  0.00  0.00    +0.000 A 
ATOM     21  N   UNL     1       7.256   5.323  15.604  0.00  0.00    +0.000 N 
ATOM     22  H   UNL     1       7.856   6.035  15.992  0.00  0.00    +0.000 HD
ENDBRANCH  12  13
ENDBRANCH  10  12
ENDBRANCH   7   8
BRANCH   1  23
ATOM     23  C   UNL     1       1.706   7.578  20.793  0.00  0.00    +0.000 C 
BRANCH  23  24
ATOM     24  C   UNL     1       0.841   8.785  20.396  0.00  0.00    +0.000 C 
BRANCH  24  25
ATOM     25  N   UNL     1       1.271   9.215  19.046  0.00  0.00    +0.000 NA
ATOM     26  H   UNL     1       2.144   8.750  18.797  0.00  0.00    +0.000 HD
ATOM     27  H   UNL     1       1.479  10.215  19.051  0.00  0.00    +0.000 HD
ENDBRANCH  24  25
BRANCH  24  28
ATOM     28  C   UNL     1       0.977   9.964  21.390  0.00  0.00    +0.000 C 
BRANCH  28  29
ATOM     29  C   UNL     1      -0.258  10.791  21.698  0.00  0.00    +0.000 A 
ATOM     30  C   UNL     1      -0.711  11.702  20.726  0.00  0.00    +0.000 A 
ATOM     31  C   UNL     1      -1.825  12.501  20.970  0.00  0.00    +0.000 A 
ATOM     32  F   UNL     1      -2.232  13.365  20.029  0.00  0.00    +0.000 F 
ATOM     33  C   UNL     1      -2.501  12.414  22.179  0.00  0.00    +0.000 A 
ATOM     34  F   UNL     1      -3.581  13.174  22.405  0.00  0.00    +0.000 F 
ATOM     35  C   UNL     1      -2.059  11.544  23.166  0.00  0.00    +0.000 A 
ATOM     36  C   UNL     1      -0.935  10.754  22.926  0.00  0.00    +0.000 A 
ATOM     37  F   UNL     1      -0.502   9.972  23.925  0.00  0.00    +0.000 F 
ENDBRANCH  28  29
ENDBRANCH  24  28
ENDBRANCH  23  24
ENDBRANCH   1  23
TORSDOF 8
ENDMDL
MODEL 7
REMARK VINA RESULT:      -8.8      2.728      3.112
REMARK  Name = 
REMARK  8 active torsions:
REMARK  status: ('A' for Active; 'I' for Inactive)
REMARK    1  A    between atoms: N_1  and  C_2
REMARK    2  A    between atoms: C_2  and  C_3
REMARK    3  A    between atoms: C_2  and  C_24
REMARK    4  A    between atoms: C_3  and  C_4
REMARK    5  A    between atoms: C_10  and  C_11
REMARK    6  A    between atoms: N_13  and  C_14
REMARK    7  A    between atoms: C_14  and  C_15
REMARK    8  A    between atoms: C_24  and  C_25
REMARK                            x       y       z     vdW  Elec       q    Type
REMARK                         _______ _______ _______ _____ _____    ______ ____
ROOT
ATOM      1  C   UNL     1       2.125   6.809  19.898  0.00  0.00    +0.000 C 
ATOM      2  O   UNL     1       2.809   7.446  19.102  0.00  0.00    +0.000 OA
ATOM      3  N   UNL     1       1.979   5.431  19.813  0.00  0.00    +0.000 N 
ATOM      4  N   UNL     1       1.164   4.752  20.686  0.00  0.00    +0.000 NA
ATOM      5  C   UNL     1       1.047   3.550  20.228  0.00  0.00    +0.000 C 
ATOM      6  C   UNL     1       1.745   3.260  18.944  0.00  0.00    +0.000 C 
ATOM      7  C   UNL     1       2.436   4.595  18.692  0.00  0.00    +0.000 C 
ENDROOT
BRANCH   7   8
ATOM      8  C   UNL     1       3.962   4.400  18.611  0.00  0.00    +0.000 C 
ATOM      9  O   UNL     1       4.511   3.374  19.012  0.00  0.00    +0.000 OA
ATOM     10  N   UNL     1       4.665   5.363  17.925  0.00  0.00    +0.000 N 
ATOM     11  H   UNL     1       4.140   5.942  17.264  0.00  0.00    +0.000 HD
BRANCH  10  12
ATOM     12  C   UNL     1       6.083   5.201  17.697  0.00  0.00    +0.000 C 
BRANCH  12  13
ATOM     13  C   UNL     1       6.330   4.973  16.250  0.00  0.00    +0.000 A 
ATOM     14  N   UNL     1       7.250   5.552  15.504  0.00  0.00    +0.000 NA
ATOM     15  C   UNL     1       7.107   5.006  14.251  0.00  0.00    +0.000 A 
ATOM     16  C   UNL     1       7.837   5.253  13.080  0.00  0.00    +0.000 A 
ATOM     17  C   UNL     1       7.506   4.540  11.922  0.00  0.00    +0.000 A 
ATOM     18  C   UNL     1       6.468   3.606  11.929  0.00  0.00    +0.000 A 
ATOM     19  C   UNL     1       5.720   3.354  13.086  0.00  0.00    +0.000 A 
ATOM     20  C   UNL     1       6.076   4.075  14.228  0.00  0.00    +0.000 A 
ATOM     21  N   UNL     1       5.585   4.085  15.508  0.00  0.00    +0.000 N 
ATOM     22  H   UNL     1       4.833   3.514  15.863  0.00  0.00    +0.000 HD
ENDBRANCH  12  13
ENDBRANCH  10  12
ENDBRANCH   7   8
BRANCH   1  23
ATOM     23  C   UNL     1       1.366   7.441  21.062  0.00  0.00    +0.000 C 
BRANCH  23  24
ATOM     24  C   UNL     1       1.350   8.976  21.121  0.00  0.00    +0.000 C 
BRANCH  24  25
ATOM     25  N   UNL     1       1.131   9.365  22.533  0.00  0.00    +0.000 NA
ATOM     26  H   UNL     1       1.203   8.543  23.133  0.00  0.00    +0.000 HD
ATOM     27  H   UNL     1       0.180   9.716  22.653  0.00  0.00    +0.000 HD
ENDBRANCH  24  25
BRANCH  24  28
ATOM     28  C   UNL     1       0.243   9.593  20.230  0.00  0.00    +0.000 C 
BRANCH  28  29
ATOM     29  C   UNL     1       0.326  11.072  19.901  0.00  0.00    +0.000 A 
ATOM     30  C   UNL     1       1.253  11.488  18.928  0.00  0.00    +0.000 A 
ATOM     31  C   UNL     1       1.385  12.837  18.607  0.00  0.00    +0.000 A 
ATOM     32  F   UNL     1       2.280  13.207  17.680  0.00  0.00    +0.000 F 
ATOM     33  C   UNL     1       0.606  13.791  19.248  0.00  0.00    +0.000 A 
ATOM     34  F   UNL     1       0.726  15.087  18.927  0.00  0.00    +0.000 F 
ATOM     35  C   UNL     1      -0.296  13.411  20.231  0.00  0.00    +0.000 A 
ATOM     36  C   UNL     1      -0.417  12.061  20.562  0.00  0.00    +0.000 A 
ATOM     37  F   UNL     1      -1.253  11.739  21.559  0.00  0.00    +0.000 F 
ENDBRANCH  28  29
ENDBRANCH  24  28
ENDBRANCH  23  24
ENDBRANCH   1  23
TORSDOF 8
ENDMDL
MODEL 8
REMARK VINA RESULT:      -8.7      2.473      3.057
REMARK  Name = 
REMARK  8 active torsions:
REMARK  status: ('A' for Active; 'I' for Inactive)
REMARK    1  A    between atoms: N_1  and  C_2
REMARK    2  A    between atoms: C_2  and  C_3
REMARK    3  A    between atoms: C_2  and  C_24
REMARK    4  A    between atoms: C_3  and  C_4
REMARK    5  A    between atoms: C_10  and  C_11
REMARK    6  A    between atoms: N_13  and  C_14
REMARK    7  A    between atoms: C_14  and  C_15
REMARK    8  A    between atoms: C_24  and  C_25
REMARK                            x       y       z     vdW  Elec       q    Type
REMARK                         _______ _______ _______ _____ _____    ______ ____
ROOT
ATOM      1  C   UNL     1       2.034   7.041  19.982  0.00  0.00    +0.000 C 
ATOM      2  O   UNL     1       2.553   7.716  19.096  0.00  0.00    +0.000 OA
ATOM      3  N   UNL     1       2.128   5.657  20.010  0.00  0.00    +0.000 N 
ATOM      4  N   UNL     1       1.493   4.926  20.983  0.00  0.00    +0.000 NA
ATOM      5  C   UNL     1       1.564   3.687  20.625  0.00  0.00    +0.000 C 
ATOM      6  C   UNL     1       2.231   3.411  19.322  0.00  0.00    +0.000 C 
ATOM      7  C   UNL     1       2.663   4.819  18.925  0.00  0.00    +0.000 C 
ENDROOT
BRANCH   7   8
ATOM      8  C   UNL     1       4.194   4.881  18.756  0.00  0.00    +0.000 C 
ATOM      9  O   UNL     1       4.942   4.055  19.279  0.00  0.00    +0.000 OA
ATOM     10  N   UNL     1       4.672   5.811  17.863  0.00  0.00    +0.000 N 
ATOM     11  H   UNL     1       4.017   6.161  17.158  0.00  0.00    +0.000 HD
BRANCH  10  12
ATOM     12  C   UNL     1       6.083   5.859  17.553  0.00  0.00    +0.000 C 
BRANCH  12  13
ATOM     13  C   UNL     1       6.298   5.414  16.152  0.00  0.00    +0.000 A 
ATOM     14  N   UNL     1       7.291   5.758  15.356  0.00  0.00    +0.000 NA
ATOM     15  C   UNL     1       7.075   5.080  14.181  0.00  0.00    +0.000 A 
ATOM     16  C   UNL     1       7.834   5.070  13.002  0.00  0.00    +0.000 A 
ATOM     17  C   UNL     1       7.408   4.267  11.938  0.00  0.00    +0.000 A 
ATOM     18  C   UNL     1       6.248   3.495  12.044  0.00  0.00    +0.000 A 
ATOM     19  C   UNL     1       5.471   3.501  13.209  0.00  0.00    +0.000 A 
ATOM     20  C   UNL     1       5.923   4.307  14.256  0.00  0.00    +0.000 A 
ATOM     21  N   UNL     1       5.436   4.551  15.514  0.00  0.00    +0.000 N 
ATOM     22  H   UNL     1       4.611   4.141  15.924  0.00  0.00    +0.000 HD
ENDBRANCH  12  13
ENDBRANCH  10  12
ENDBRANCH   7   8
BRANCH   1  23
ATOM     23  C   UNL     1       1.241   7.632  21.144  0.00  0.00    +0.000 C 
BRANCH  23  24
ATOM     24  C   UNL     1       1.132   9.164  21.196  0.00  0.00    +0.000 C 
BRANCH  24  25
ATOM     25  N   UNL     1       1.213   9.567  22.619  0.00  0.00    +0.000 NA
ATOM     26  H   UNL     1       1.710   8.854  23.153  0.00  0.00    +0.000 HD
ATOM     27  H   UNL     1       0.275   9.614  23.020  0.00  0.00    +0.000 HD
ENDBRANCH  24  25
BRANCH  24  28
ATOM     28  C   UNL     1      -0.189   9.685  20.579  0.00  0.00    +0.000 C 
BRANCH  28  29
ATOM     29  C   UNL     1      -0.215  11.098  20.026  0.00  0.00    +0.000 A 
ATOM     30  C   UNL     1      -1.112  12.021  20.596  0.00  0.00    +0.000 A 
ATOM     31  C   UNL     1      -1.192  13.324  20.108  0.00  0.00    +0.000 A 
ATOM     32  F   UNL     1      -2.059  14.181  20.665  0.00  0.00    +0.000 F 
ATOM     33  C   UNL     1      -0.391  13.728  19.049  0.00  0.00    +0.000 A 
ATOM     34  F   UNL     1      -0.460  14.985  18.591  0.00  0.00    +0.000 F 
ATOM     35  C   UNL     1       0.482  12.830  18.451  0.00  0.00    +0.000 A 
ATOM     36  C   UNL     1       0.551  11.522  18.930  0.00  0.00    +0.000 A 
ATOM     37  F   UNL     1       1.360  10.667  18.288  0.00  0.00    +0.000 F 
ENDBRANCH  28  29
ENDBRANCH  24  28
ENDBRANCH  23  24
ENDBRANCH   1  23
TORSDOF 8
ENDMDL
MODEL 9
REMARK VINA RESULT:      -8.6      4.567     10.678
REMARK  Name = 
REMARK  8 active torsions:
REMARK  status: ('A' for Active; 'I' for Inactive)
REMARK    1  A    between atoms: N_1  and  C_2
REMARK    2  A    between atoms: C_2  and  C_3
REMARK    3  A    between atoms: C_2  and  C_24
REMARK    4  A    between atoms: C_3  and  C_4
REMARK    5  A    between atoms: C_10  and  C_11
REMARK    6  A    between atoms: N_13  and  C_14
REMARK    7  A    between atoms: C_14  and  C_15
REMARK    8  A    between atoms: C_24  and  C_25
REMARK                            x       y       z     vdW  Elec       q    Type
REMARK                         _______ _______ _______ _____ _____    ______ ____
ROOT
ATOM      1  C   UNL     1       1.987   8.719  18.185  0.00  0.00    +0.000 C 
ATOM      2  O   UNL     1       2.023   9.651  17.384  0.00  0.00    +0.000 OA
ATOM      3  N   UNL     1       1.480   8.865  19.469  0.00  0.00    +0.000 N 
ATOM      4  N   UNL     1       1.503   7.820  20.360  0.00  0.00    +0.000 NA
ATOM      5  C   UNL     1       1.188   8.307  21.514  0.00  0.00    +0.000 C 
ATOM      6  C   UNL     1       0.945   9.776  21.569  0.00  0.00    +0.000 C 
ATOM      7  C   UNL     1       1.113  10.143  20.099  0.00  0.00    +0.000 C 
ENDROOT
BRANCH   7   8
ATOM      8  C   UNL     1      -0.179  10.784  19.557  0.00  0.00    +0.000 C 
ATOM      9  O   UNL     1      -1.022  10.132  18.942  0.00  0.00    +0.000 OA
ATOM     10  N   UNL     1      -0.417  12.086  19.929  0.00  0.00    +0.000 N 
ATOM     11  H   UNL     1       0.071  12.430  20.761  0.00  0.00    +0.000 HD
BRANCH  10  12
ATOM     12  C   UNL     1      -1.660  12.728  19.566  0.00  0.00    +0.000 C 
BRANCH  12  13
ATOM     13  C   UNL     1      -2.593  12.691  20.721  0.00  0.00    +0.000 A 
ATOM     14  N   UNL     1      -2.283  12.463  21.982  0.00  0.00    +0.000 NA
ATOM     15  C   UNL     1      -3.465  12.554  22.676  0.00  0.00    +0.000 A 
ATOM     16  C   UNL     1      -3.708  12.414  24.050  0.00  0.00    +0.000 A 
ATOM     17  C   UNL     1      -5.016  12.579  24.519  0.00  0.00    +0.000 A 
ATOM     18  C   UNL     1      -6.060  12.871  23.638  0.00  0.00    +0.000 A 
ATOM     19  C   UNL     1      -5.839  13.004  22.261  0.00  0.00    +0.000 A 
ATOM     20  C   UNL     1      -4.523  12.840  21.823  0.00  0.00    +0.000 A 
ATOM     21  N   UNL     1      -3.946  12.904  20.581  0.00  0.00    +0.000 N 
ATOM     22  H   UNL     1      -4.417  13.111  19.714  0.00  0.00    +0.000 HD
ENDBRANCH  12  13
ENDBRANCH  10  12
ENDBRANCH   7   8
BRANCH   1  23
ATOM     23  C   UNL     1       2.484   7.311  17.872  0.00  0.00    +0.000 C 
BRANCH  23  24
ATOM     24  C   UNL     1       3.989   7.055  18.050  0.00  0.00    +0.000 C 
BRANCH  24  25
ATOM     25  N   UNL     1       4.594   7.001  16.699  0.00  0.00    +0.000 NA
ATOM     26  H   UNL     1       4.034   7.552  16.048  0.00  0.00    +0.000 HD
ATOM     27  H   UNL     1       4.571   6.043  16.347  0.00  0.00    +0.000 HD
ENDBRANCH  24  25
BRANCH  24  28
ATOM     28  C   UNL     1       4.281   5.737  18.808  0.00  0.00    +0.000 C 
BRANCH  28  29
ATOM     29  C   UNL     1       3.251   4.625  18.741  0.00  0.00    +0.000 A 
ATOM     30  C   UNL     1       2.446   4.392  19.872  0.00  0.00    +0.000 A 
ATOM     31  C   UNL     1       1.502   3.367  19.868  0.00  0.00    +0.000 A 
ATOM     32  F   UNL     1       0.753   3.162  20.961  0.00  0.00    +0.000 F 
ATOM     33  C   UNL     1       1.346   2.559  18.751  0.00  0.00    +0.000 A 
ATOM     34  F   UNL     1       0.427   1.583  18.747  0.00  0.00    +0.000 F 
ATOM     35  C   UNL     1       2.145   2.750  17.633  0.00  0.00    +0.000 A 
ATOM     36  C   UNL     1       3.100   3.767  17.642  0.00  0.00    +0.000 A 
ATOM     37  F   UNL     1       3.895   3.881  16.569  0.00  0.00    +0.000 F 
ENDBRANCH  28  29
ENDBRANCH  24  28
ENDBRANCH  23  24
ENDBRANCH   1  23
TORSDOF 8
ENDMDL
