MODEL 1
REMARK VINA RESULT:      -8.3      0.000      0.000
REMARK  Name = 
REMARK  9 active torsions:
REMARK  status: ('A' for Active; 'I' for Inactive)
REMARK    1  A    between atoms: C_1  and  C_2
REMARK    2  A    between atoms: C_2  and  O_3
REMARK    3  A    between atoms: O_3  and  C_4
REMARK    4  A    between atoms: C_4  and  C_6
REMARK    5  A    between atoms: C_6  and  N_7
REMARK    6  A    between atoms: C_8  and  C_10
REMARK    7  A    between atoms: N_14  and  C_15
REMARK    8  A    between atoms: C_15  and  C_16
REMARK    9  A    between atoms: C_16  and  C_17
REMARK                            x       y       z     vdW  Elec       q    Type
REMARK                         _______ _______ _______ _____ _____    ______ ____
ROOT
ATOM      1  C   UNL     1       6.091   4.795  15.762  0.00  0.00    +0.000 C 
ATOM      2  C   UNL     1       7.097   4.838  16.909  0.00  0.00    +0.000 C 
ATOM      3  C   UNL     1       6.401   5.715  17.936  0.00  0.00    +0.000 C 
ATOM      4  O   UNL     1       6.744   5.833  19.102  0.00  0.00    +0.000 OA
ATOM      5  N   UNL     1       5.371   6.385  17.290  0.00  0.00    +0.000 N 
ATOM      6  C   UNL     1       5.393   6.140  15.870  0.00  0.00    +0.000 C 
ENDROOT
BRANCH   1   8
ATOM      7  N   UNL     1       6.179   3.520  13.702  0.00  0.00    +0.000 N 
ATOM      8  C   UNL     1       6.682   4.595  14.386  0.00  0.00    +0.000 C 
ATOM      9  O   UNL     1       7.484   5.376  13.882  0.00  0.00    +0.000 OA
ATOM     10  H   UNL     1       5.538   2.863  14.135  0.00  0.00    +0.000 HD
BRANCH   7  11
ATOM     11  C   UNL     1       6.531   3.293  12.307  0.00  0.00    +0.000 C 
BRANCH  11  12
ATOM     12  C   UNL     1       5.508   2.387  11.650  0.00  0.00    +0.000 C 
ATOM     13  O   UNL     1       5.784   1.342  11.071  0.00  0.00    +0.000 OA
BRANCH  12  14
ATOM     14  O   UNL     1       4.272   2.957  11.716  0.00  0.00    +0.000 OA
BRANCH  14  16
ATOM     15  C   UNL     1       2.957   3.530   9.817  0.00  0.00    +0.000 C 
ATOM     16  C   UNL     1       4.039   4.008  10.769  0.00  0.00    +0.000 C 
ENDBRANCH  14  16
ENDBRANCH  12  14
ENDBRANCH  11  12
ENDBRANCH   7  11
ENDBRANCH   1   8
BRANCH   5  17
ATOM     17  C   UNL     1       4.661   7.509  17.890  0.00  0.00    +0.000 C 
BRANCH  17  18
ATOM     18  C   UNL     1       3.129   7.400  17.854  0.00  0.00    +0.000 C 
BRANCH  18  19
ATOM     19  C   UNL     1       2.520   6.600  18.970  0.00  0.00    +0.000 A 
ATOM     20  C   UNL     1       2.115   7.053  20.209  0.00  0.00    +0.000 A 
ATOM     21  N   UNL     1       1.609   5.996  20.916  0.00  0.00    +0.000 N 
ATOM     22  C   UNL     1       1.667   4.846  20.162  0.00  0.00    +0.000 A 
ATOM     23  C   UNL     1       1.258   3.545  20.474  0.00  0.00    +0.000 A 
ATOM     24  C   UNL     1       1.442   2.560  19.495  0.00  0.00    +0.000 A 
ATOM     25  C   UNL     1       2.008   2.875  18.270  0.00  0.00    +0.000 A 
ATOM     26  F   UNL     1       2.171   1.918  17.352  0.00  0.00    +0.000 F 
ATOM     27  C   UNL     1       2.412   4.179  17.969  0.00  0.00    +0.000 A 
ATOM     28  C   UNL     1       2.237   5.192  18.937  0.00  0.00    +0.000 A 
ATOM     29  H   UNL     1       1.239   6.051  21.856  0.00  0.00    +0.000 HD
ENDBRANCH  18  19
ENDBRANCH  17  18
ENDBRANCH   5  17
TORSDOF 8
ENDMDL
MODEL 2
REMARK VINA RESULT:      -7.7      4.123      8.632
REMARK  Name = 
REMARK  9 active torsions:
REMARK  status: ('A' for Active; 'I' for Inactive)
REMARK    1  A    between atoms: C_1  and  C_2
REMARK    2  A    between atoms: C_2  and  O_3
REMARK    3  A    between atoms: O_3  and  C_4
REMARK    4  A    between atoms: C_4  and  C_6
REMARK    5  A    between atoms: C_6  and  N_7
REMARK    6  A    between atoms: C_8  and  C_10
REMARK    7  A    between atoms: N_14  and  C_15
REMARK    8  A    between atoms: C_15  and  C_16
REMARK    9  A    between atoms: C_16  and  C_17
REMARK                            x       y       z     vdW  Elec       q    Type
REMARK                         _______ _______ _______ _____ _____    ______ ____
ROOT
ATOM      1  C   UNL     1       2.763   6.267  19.796  0.00  0.00    +0.000 C 
ATOM      2  C   UNL     1       2.253   5.087  20.619  0.00  0.00    +0.000 C 
ATOM      3  C   UNL     1       2.557   3.896  19.726  0.00  0.00    +0.000 C 
ATOM      4  O   UNL     1       2.525   2.729  20.081  0.00  0.00    +0.000 OA
ATOM      5  N   UNL     1       2.806   4.380  18.448  0.00  0.00    +0.000 N 
ATOM      6  C   UNL     1       2.562   5.798  18.366  0.00  0.00    +0.000 C 
ENDROOT
BRANCH   1   8
ATOM      7  N   UNL     1       1.778   7.836  21.360  0.00  0.00    +0.000 N 
ATOM      8  C   UNL     1       2.061   7.583  20.044  0.00  0.00    +0.000 C 
ATOM      9  O   UNL     1       1.839   8.401  19.156  0.00  0.00    +0.000 OA
ATOM     10  H   UNL     1       1.938   7.144  22.085  0.00  0.00    +0.000 HD
BRANCH   7  11
ATOM     11  C   UNL     1       1.251   9.130  21.773  0.00  0.00    +0.000 C 
BRANCH  11  12
ATOM     12  C   UNL     1      -0.264   9.089  21.813  0.00  0.00    +0.000 C 
ATOM     13  O   UNL     1      -0.925   8.057  21.812  0.00  0.00    +0.000 OA
BRANCH  12  14
ATOM     14  O   UNL     1      -0.764  10.354  21.749  0.00  0.00    +0.000 OA
BRANCH  14  16
ATOM     15  C   UNL     1      -1.235  12.468  22.737  0.00  0.00    +0.000 C 
ATOM     16  C   UNL     1      -0.927  11.008  23.015  0.00  0.00    +0.000 C 
ENDBRANCH  14  16
ENDBRANCH  12  14
ENDBRANCH  11  12
ENDBRANCH   7  11
ENDBRANCH   1   8
BRANCH   5  17
ATOM     17  C   UNL     1       2.869   3.517  17.274  0.00  0.00    +0.000 C 
BRANCH  17  18
ATOM     18  C   UNL     1       4.287   3.208  16.772  0.00  0.00    +0.000 C 
BRANCH  18  19
ATOM     19  C   UNL     1       5.120   4.412  16.433  0.00  0.00    +0.000 A 
ATOM     20  C   UNL     1       5.154   5.104  15.240  0.00  0.00    +0.000 A 
ATOM     21  N   UNL     1       6.043   6.138  15.360  0.00  0.00    +0.000 N 
ATOM     22  C   UNL     1       6.597   6.146  16.621  0.00  0.00    +0.000 A 
ATOM     23  C   UNL     1       7.536   7.018  17.184  0.00  0.00    +0.000 A 
ATOM     24  C   UNL     1       7.920   6.780  18.510  0.00  0.00    +0.000 A 
ATOM     25  C   UNL     1       7.385   5.719  19.224  0.00  0.00    +0.000 A 
ATOM     26  F   UNL     1       7.767   5.515  20.488  0.00  0.00    +0.000 F 
ATOM     27  C   UNL     1       6.447   4.855  18.651  0.00  0.00    +0.000 A 
ATOM     28  C   UNL     1       6.040   5.073  17.315  0.00  0.00    +0.000 A 
ATOM     29  H   UNL     1       6.259   6.805  14.632  0.00  0.00    +0.000 HD
ENDBRANCH  18  19
ENDBRANCH  17  18
ENDBRANCH   5  17
TORSDOF 8
ENDMDL
MODEL 3
REMARK VINA RESULT:      -7.5      2.014      3.226
REMARK  Name = 
REMARK  9 active torsions:
REMARK  status: ('A' for Active; 'I' for Inactive)
REMARK    1  A    between atoms: C_1  and  C_2
REMARK    2  A    between atoms: C_2  and  O_3
REMARK    3  A    between atoms: O_3  and  C_4
REMARK    4  A    between atoms: C_4  and  C_6
REMARK    5  A    between atoms: C_6  and  N_7
REMARK    6  A    between atoms: C_8  and  C_10
REMARK    7  A    between atoms: N_14  and  C_15
REMARK    8  A    between atoms: C_15  and  C_16
REMARK    9  A    between atoms: C_16  and  C_17
REMARK                            x       y       z     vdW  Elec       q    Type
REMARK                         _______ _______ _______ _____ _____    ______ ____
ROOT
ATOM      1  C   UNL     1       7.071   4.401  15.943  0.00  0.00    +0.000 C 
ATOM      2  C   UNL     1       7.130   5.666  16.795  0.00  0.00    +0.000 C 
ATOM      3  C   UNL     1       6.315   5.288  18.020  0.00  0.00    +0.000 C 
ATOM      4  O   UNL     1       6.288   5.919  19.065  0.00  0.00    +0.000 OA
ATOM      5  N   UNL     1       5.579   4.154  17.704  0.00  0.00    +0.000 N 
ATOM      6  C   UNL     1       5.723   3.805  16.312  0.00  0.00    +0.000 C 
ENDROOT
BRANCH   1   8
ATOM      7  N   UNL     1       6.451   3.741  13.695  0.00  0.00    +0.000 N 
ATOM      8  C   UNL     1       7.184   4.616  14.452  0.00  0.00    +0.000 C 
ATOM      9  O   UNL     1       7.809   5.549  13.956  0.00  0.00    +0.000 OA
ATOM     10  H   UNL     1       5.960   2.955  14.109  0.00  0.00    +0.000 HD
BRANCH   7  11
ATOM     11  C   UNL     1       6.331   3.921  12.254  0.00  0.00    +0.000 C 
BRANCH  11  12
ATOM     12  C   UNL     1       5.307   2.955  11.690  0.00  0.00    +0.000 C 
ATOM     13  O   UNL     1       4.287   3.299  11.104  0.00  0.00    +0.000 OA
BRANCH  12  14
ATOM     14  O   UNL     1       5.643   1.678  12.022  0.00  0.00    +0.000 OA
BRANCH  14  16
ATOM     15  C   UNL     1       6.111  -0.537  11.288  0.00  0.00    +0.000 C 
ATOM     16  C   UNL     1       6.309   0.938  10.989  0.00  0.00    +0.000 C 
ENDBRANCH  14  16
ENDBRANCH  12  14
ENDBRANCH  11  12
ENDBRANCH   7  11
ENDBRANCH   1   8
BRANCH   5  17
ATOM     17  C   UNL     1       4.487   3.663  18.535  0.00  0.00    +0.000 C 
BRANCH  17  18
ATOM     18  C   UNL     1       3.117   4.295  18.244  0.00  0.00    +0.000 C 
BRANCH  18  19
ATOM     19  C   UNL     1       2.585   5.192  19.326  0.00  0.00    +0.000 A 
ATOM     20  C   UNL     1       2.336   4.867  20.643  0.00  0.00    +0.000 A 
ATOM     21  N   UNL     1       1.865   5.981  21.286  0.00  0.00    +0.000 N 
ATOM     22  C   UNL     1       1.804   7.044  20.413  0.00  0.00    +0.000 A 
ATOM     23  C   UNL     1       1.395   8.364  20.633  0.00  0.00    +0.000 A 
ATOM     24  C   UNL     1       1.440   9.242  19.543  0.00  0.00    +0.000 A 
ATOM     25  C   UNL     1       1.873   8.807  18.300  0.00  0.00    +0.000 A 
ATOM     26  F   UNL     1       1.908   9.665  17.275  0.00  0.00    +0.000 F 
ATOM     27  C   UNL     1       2.279   7.486  18.092  0.00  0.00    +0.000 A 
ATOM     28  C   UNL     1       2.246   6.579  19.175  0.00  0.00    +0.000 A 
ATOM     29  H   UNL     1       1.605   6.021  22.262  0.00  0.00    +0.000 HD
ENDBRANCH  18  19
ENDBRANCH  17  18
ENDBRANCH   5  17
TORSDOF 8
ENDMDL
MODEL 4
REMARK VINA RESULT:      -7.5      4.407      7.226
REMARK  Name = 
REMARK  9 active torsions:
REMARK  status: ('A' for Active; 'I' for Inactive)
REMARK    1  A    between atoms: C_1  and  C_2
REMARK    2  A    between atoms: C_2  and  O_3
REMARK    3  A    between atoms: O_3  and  C_4
REMARK    4  A    between atoms: C_4  and  C_6
REMARK    5  A    between atoms: C_6  and  N_7
REMARK    6  A    between atoms: C_8  and  C_10
REMARK    7  A    between atoms: N_14  and  C_15
REMARK    8  A    between atoms: C_15  and  C_16
REMARK    9  A    between atoms: C_16  and  C_17
REMARK                            x       y       z     vdW  Elec       q    Type
REMARK                         _______ _______ _______ _____ _____    ______ ____
ROOT
ATOM      1  C   UNL     1       8.325   7.880  17.894  0.00  0.00    +0.000 C 
ATOM      2  C   UNL     1       8.177   6.856  19.016  0.00  0.00    +0.000 C 
ATOM      3  C   UNL     1       7.471   5.700  18.328  0.00  0.00    +0.000 C 
ATOM      4  O   UNL     1       7.355   4.576  18.791  0.00  0.00    +0.000 OA
ATOM      5  N   UNL     1       6.943   6.177  17.136  0.00  0.00    +0.000 N 
ATOM      6  C   UNL     1       7.114   7.604  17.019  0.00  0.00    +0.000 C 
ENDROOT
BRANCH   1   8
ATOM      7  N   UNL     1       9.208   9.577  19.383  0.00  0.00    +0.000 N 
ATOM      8  C   UNL     1       8.364   9.325  18.334  0.00  0.00    +0.000 C 
ATOM      9  O   UNL     1       7.759  10.220  17.749  0.00  0.00    +0.000 OA
ATOM     10  H   UNL     1       9.682   8.830  19.879  0.00  0.00    +0.000 HD
BRANCH   7  11
ATOM     11  C   UNL     1       9.475  10.943  19.813  0.00  0.00    +0.000 C 
BRANCH  11  12
ATOM     12  C   UNL     1      10.867  11.363  19.386  0.00  0.00    +0.000 C 
ATOM     13  O   UNL     1      11.810  11.509  20.157  0.00  0.00    +0.000 OA
BRANCH  12  14
ATOM     14  O   UNL     1      10.879  11.646  18.054  0.00  0.00    +0.000 OA
BRANCH  14  16
ATOM     15  C   UNL     1      11.234  13.626  16.782  0.00  0.00    +0.000 C 
ATOM     16  C   UNL     1      11.900  12.563  17.637  0.00  0.00    +0.000 C 
ENDBRANCH  14  16
ENDBRANCH  12  14
ENDBRANCH  11  12
ENDBRANCH   7  11
ENDBRANCH   1   8
BRANCH   5  17
ATOM     17  C   UNL     1       5.975   5.428  16.344  0.00  0.00    +0.000 C 
BRANCH  17  18
ATOM     18  C   UNL     1       4.509   5.620  16.761  0.00  0.00    +0.000 C 
BRANCH  18  19
ATOM     19  C   UNL     1       3.888   4.450  17.470  0.00  0.00    +0.000 A 
ATOM     20  C   UNL     1       4.058   3.109  17.193  0.00  0.00    +0.000 A 
ATOM     21  N   UNL     1       3.318   2.381  18.085  0.00  0.00    +0.000 N 
ATOM     22  C   UNL     1       2.661   3.221  18.956  0.00  0.00    +0.000 A 
ATOM     23  C   UNL     1       1.809   2.919  20.024  0.00  0.00    +0.000 A 
ATOM     24  C   UNL     1       1.279   3.995  20.748  0.00  0.00    +0.000 A 
ATOM     25  C   UNL     1       1.593   5.301  20.409  0.00  0.00    +0.000 A 
ATOM     26  F   UNL     1       1.076   6.310  21.116  0.00  0.00    +0.000 F 
ATOM     27  C   UNL     1       2.446   5.591  19.340  0.00  0.00    +0.000 A 
ATOM     28  C   UNL     1       2.997   4.525  18.594  0.00  0.00    +0.000 A 
ATOM     29  H   UNL     1       3.264   1.372  18.107  0.00  0.00    +0.000 HD
ENDBRANCH  18  19
ENDBRANCH  17  18
ENDBRANCH   5  17
TORSDOF 8
ENDMDL
MODEL 5
REMARK VINA RESULT:      -7.5      1.452      1.742
REMARK  Name = 
REMARK  9 active torsions:
REMARK  status: ('A' for Active; 'I' for Inactive)
REMARK    1  A    between atoms: C_1  and  C_2
REMARK    2  A    between atoms: C_2  and  O_3
REMARK    3  A    between atoms: O_3  and  C_4
REMARK    4  A    between atoms: C_4  and  C_6
REMARK    5  A    between atoms: C_6  and  N_7
REMARK    6  A    between atoms: C_8  and  C_10
REMARK    7  A    between atoms: N_14  and  C_15
REMARK    8  A    between atoms: C_15  and  C_16
REMARK    9  A    between atoms: C_16  and  C_17
REMARK                            x       y       z     vdW  Elec       q    Type
REMARK                         _______ _______ _______ _____ _____    ______ ____
ROOT
ATOM      1  C   UNL     1       6.156   4.699  15.751  0.00  0.00    +0.000 C 
ATOM      2  C   UNL     1       7.215   4.882  16.834  0.00  0.00    +0.000 C 
ATOM      3  C   UNL     1       6.473   5.666  17.903  0.00  0.00    +0.000 C 
ATOM      4  O   UNL     1       6.866   5.836  19.046  0.00  0.00    +0.000 OA
ATOM      5  N   UNL     1       5.326   6.190  17.322  0.00  0.00    +0.000 N 
ATOM      6  C   UNL     1       5.294   5.940  15.903  0.00  0.00    +0.000 C 
ENDROOT
BRANCH   1   8
ATOM      7  N   UNL     1       6.172   3.512  13.637  0.00  0.00    +0.000 N 
ATOM      8  C   UNL     1       6.684   4.569  14.341  0.00  0.00    +0.000 C 
ATOM      9  O   UNL     1       7.444   5.389  13.833  0.00  0.00    +0.000 OA
ATOM     10  H   UNL     1       5.568   2.822  14.072  0.00  0.00    +0.000 HD
BRANCH   7  11
ATOM     11  C   UNL     1       6.461   3.350  12.219  0.00  0.00    +0.000 C 
BRANCH  11  12
ATOM     12  C   UNL     1       5.490   2.365  11.596  0.00  0.00    +0.000 C 
ATOM     13  O   UNL     1       5.821   1.299  11.090  0.00  0.00    +0.000 OA
BRANCH  12  14
ATOM     14  O   UNL     1       4.233   2.889  11.597  0.00  0.00    +0.000 OA
BRANCH  14  16
ATOM     15  C   UNL     1       2.930   3.598   9.736  0.00  0.00    +0.000 C 
ATOM     16  C   UNL     1       4.035   3.991  10.701  0.00  0.00    +0.000 C 
ENDBRANCH  14  16
ENDBRANCH  12  14
ENDBRANCH  11  12
ENDBRANCH   7  11
ENDBRANCH   1   8
BRANCH   5  17
ATOM     17  C   UNL     1       4.511   7.214  17.965  0.00  0.00    +0.000 C 
BRANCH  17  18
ATOM     18  C   UNL     1       3.453   6.681  18.943  0.00  0.00    +0.000 C 
BRANCH  18  19
ATOM     19  C   UNL     1       2.719   5.453  18.482  0.00  0.00    +0.000 A 
ATOM     20  C   UNL     1       1.589   5.394  17.694  0.00  0.00    +0.000 A 
ATOM     21  N   UNL     1       1.255   4.079  17.507  0.00  0.00    +0.000 N 
ATOM     22  C   UNL     1       2.153   3.263  18.158  0.00  0.00    +0.000 A 
ATOM     23  C   UNL     1       2.207   1.867  18.233  0.00  0.00    +0.000 A 
ATOM     24  C   UNL     1       3.251   1.302  18.977  0.00  0.00    +0.000 A 
ATOM     25  C   UNL     1       4.186   2.106  19.610  0.00  0.00    +0.000 A 
ATOM     26  F   UNL     1       5.173   1.543  20.313  0.00  0.00    +0.000 F 
ATOM     27  C   UNL     1       4.123   3.500  19.527  0.00  0.00    +0.000 A 
ATOM     28  C   UNL     1       3.081   4.096  18.781  0.00  0.00    +0.000 A 
ATOM     29  H   UNL     1       0.467   3.752  16.965  0.00  0.00    +0.000 HD
ENDBRANCH  18  19
ENDBRANCH  17  18
ENDBRANCH   5  17
TORSDOF 8
ENDMDL
MODEL 6
REMARK VINA RESULT:      -7.4      4.536      6.609
REMARK  Name = 
REMARK  9 active torsions:
REMARK  status: ('A' for Active; 'I' for Inactive)
REMARK    1  A    between atoms: C_1  and  C_2
REMARK    2  A    between atoms: C_2  and  O_3
REMARK    3  A    between atoms: O_3  and  C_4
REMARK    4  A    between atoms: C_4  and  C_6
REMARK    5  A    between atoms: C_6  and  N_7
REMARK    6  A    between atoms: C_8  and  C_10
REMARK    7  A    between atoms: N_14  and  C_15
REMARK    8  A    between atoms: C_15  and  C_16
REMARK    9  A    between atoms: C_16  and  C_17
REMARK                            x       y       z     vdW  Elec       q    Type
REMARK                         _______ _______ _______ _____ _____    ______ ____
ROOT
ATOM      1  C   UNL     1       2.692   5.173  18.133  0.00  0.00    +0.000 C 
ATOM      2  C   UNL     1       2.573   5.155  19.654  0.00  0.00    +0.000 C 
ATOM      3  C   UNL     1       2.003   6.529  19.964  0.00  0.00    +0.000 C 
ATOM      4  O   UNL     1       1.534   6.866  21.040  0.00  0.00    +0.000 OA
ATOM      5  N   UNL     1       2.176   7.322  18.838  0.00  0.00    +0.000 N 
ATOM      6  C   UNL     1       2.945   6.639  17.827  0.00  0.00    +0.000 C 
ENDROOT
BRANCH   1   8
ATOM      7  N   UNL     1       4.823   4.985  16.994  0.00  0.00    +0.000 N 
ATOM      8  C   UNL     1       3.780   4.298  17.556  0.00  0.00    +0.000 C 
ATOM      9  O   UNL     1       3.780   3.074  17.657  0.00  0.00    +0.000 OA
ATOM     10  H   UNL     1       4.804   5.994  16.888  0.00  0.00    +0.000 HD
BRANCH   7  11
ATOM     11  C   UNL     1       6.020   4.287  16.543  0.00  0.00    +0.000 C 
BRANCH  11  12
ATOM     12  C   UNL     1       7.256   4.931  17.139  0.00  0.00    +0.000 C 
ATOM     13  O   UNL     1       7.901   4.456  18.067  0.00  0.00    +0.000 OA
BRANCH  12  14
ATOM     14  O   UNL     1       7.472   6.145  16.560  0.00  0.00    +0.000 OA
BRANCH  14  16
ATOM     15  C   UNL     1       8.132   7.853  18.081  0.00  0.00    +0.000 C 
ATOM     16  C   UNL     1       6.970   7.267  17.299  0.00  0.00    +0.000 C 
ENDBRANCH  14  16
ENDBRANCH  12  14
ENDBRANCH  11  12
ENDBRANCH   7  11
ENDBRANCH   1   8
BRANCH   5  17
ATOM     17  C   UNL     1       1.998   8.769  18.854  0.00  0.00    +0.000 C 
BRANCH  17  18
ATOM     18  C   UNL     1       0.974   9.307  17.844  0.00  0.00    +0.000 C 
BRANCH  18  19
ATOM     19  C   UNL     1      -0.131  10.137  18.434  0.00  0.00    +0.000 A 
ATOM     20  C   UNL     1      -0.118  10.831  19.625  0.00  0.00    +0.000 A 
ATOM     21  N   UNL     1      -1.326  11.459  19.778  0.00  0.00    +0.000 N 
ATOM     22  C   UNL     1      -2.140  11.194  18.699  0.00  0.00    +0.000 A 
ATOM     23  C   UNL     1      -3.443  11.627  18.430  0.00  0.00    +0.000 A 
ATOM     24  C   UNL     1      -4.031  11.193  17.235  0.00  0.00    +0.000 A 
ATOM     25  C   UNL     1      -3.339  10.366  16.364  0.00  0.00    +0.000 A 
ATOM     26  F   UNL     1      -3.921   9.967  15.229  0.00  0.00    +0.000 F 
ATOM     27  C   UNL     1      -2.037   9.940  16.643  0.00  0.00    +0.000 A 
ATOM     28  C   UNL     1      -1.419  10.364  17.841  0.00  0.00    +0.000 A 
ATOM     29  H   UNL     1      -1.583  12.038  20.565  0.00  0.00    +0.000 HD
ENDBRANCH  18  19
ENDBRANCH  17  18
ENDBRANCH   5  17
TORSDOF 8
ENDMDL
MODEL 7
REMARK VINA RESULT:      -7.3      4.072      8.109
REMARK  Name = 
REMARK  9 active torsions:
REMARK  status: ('A' for Active; 'I' for Inactive)
REMARK    1  A    between atoms: C_1  and  C_2
REMARK    2  A    between atoms: C_2  and  O_3
REMARK    3  A    between atoms: O_3  and  C_4
REMARK    4  A    between atoms: C_4  and  C_6
REMARK    5  A    between atoms: C_6  and  N_7
REMARK    6  A    between atoms: C_8  and  C_10
REMARK    7  A    between atoms: N_14  and  C_15
REMARK    8  A    between atoms: C_15  and  C_16
REMARK    9  A    between atoms: C_16  and  C_17
REMARK                            x       y       z     vdW  Elec       q    Type
REMARK                         _______ _______ _______ _____ _____    ______ ____
ROOT
ATOM      1  C   UNL     1       2.498   7.103  18.857  0.00  0.00    +0.000 C 
ATOM      2  C   UNL     1       2.034   6.681  20.249  0.00  0.00    +0.000 C 
ATOM      3  C   UNL     1       1.925   5.171  20.125  0.00  0.00    +0.000 C 
ATOM      4  O   UNL     1       1.805   4.399  21.064  0.00  0.00    +0.000 OA
ATOM      5  N   UNL     1       1.921   4.857  18.773  0.00  0.00    +0.000 N 
ATOM      6  C   UNL     1       1.881   6.046  17.958  0.00  0.00    +0.000 C 
ENDROOT
BRANCH   1   8
ATOM      7  N   UNL     1       1.263   9.139  19.313  0.00  0.00    +0.000 N 
ATOM      8  C   UNL     1       2.087   8.493  18.430  0.00  0.00    +0.000 C 
ATOM      9  O   UNL     1       2.521   9.038  17.419  0.00  0.00    +0.000 OA
ATOM     10  H   UNL     1       0.885   8.672  20.131  0.00  0.00    +0.000 HD
BRANCH   7  11
ATOM     11  C   UNL     1       0.913  10.539  19.119  0.00  0.00    +0.000 C 
BRANCH  11  12
ATOM     12  C   UNL     1      -0.400  10.851  19.809  0.00  0.00    +0.000 C 
ATOM     13  O   UNL     1      -1.151  11.763  19.481  0.00  0.00    +0.000 OA
BRANCH  12  14
ATOM     14  O   UNL     1      -0.560  10.039  20.892  0.00  0.00    +0.000 OA
BRANCH  14  16
ATOM     15  C   UNL     1      -0.081   9.505  23.161  0.00  0.00    +0.000 C 
ATOM     16  C   UNL     1      -0.207  10.631  22.150  0.00  0.00    +0.000 C 
ENDBRANCH  14  16
ENDBRANCH  12  14
ENDBRANCH  11  12
ENDBRANCH   7  11
ENDBRANCH   1   8
BRANCH   5  17
ATOM     17  C   UNL     1       1.560   3.538  18.268  0.00  0.00    +0.000 C 
BRANCH  17  18
ATOM     18  C   UNL     1       2.749   2.645  17.884  0.00  0.00    +0.000 C 
BRANCH  18  19
ATOM     19  C   UNL     1       4.104   3.257  18.100  0.00  0.00    +0.000 A 
ATOM     20  C   UNL     1       4.769   3.433  19.295  0.00  0.00    +0.000 A 
ATOM     21  N   UNL     1       5.978   4.022  19.041  0.00  0.00    +0.000 N 
ATOM     22  C   UNL     1       6.128   4.236  17.689  0.00  0.00    +0.000 A 
ATOM     23  C   UNL     1       7.196   4.799  16.982  0.00  0.00    +0.000 A 
ATOM     24  C   UNL     1       7.070   4.890  15.590  0.00  0.00    +0.000 A 
ATOM     25  C   UNL     1       5.927   4.437  14.951  0.00  0.00    +0.000 A 
ATOM     26  F   UNL     1       5.831   4.533  13.621  0.00  0.00    +0.000 F 
ATOM     27  C   UNL     1       4.866   3.875  15.667  0.00  0.00    +0.000 A 
ATOM     28  C   UNL     1       4.968   3.770  17.073  0.00  0.00    +0.000 A 
ATOM     29  H   UNL     1       6.666   4.261  19.742  0.00  0.00    +0.000 HD
ENDBRANCH  18  19
ENDBRANCH  17  18
ENDBRANCH   5  17
TORSDOF 8
ENDMDL
MODEL 8
REMARK VINA RESULT:      -7.3      3.815      6.286
REMARK  Name = 
REMARK  9 active torsions:
REMARK  status: ('A' for Active; 'I' for Inactive)
REMARK    1  A    between atoms: C_1  and  C_2
REMARK    2  A    between atoms: C_2  and  O_3
REMARK    3  A    between atoms: O_3  and  C_4
REMARK    4  A    between atoms: C_4  and  C_6
REMARK    5  A    between atoms: C_6  and  N_7
REMARK    6  A    between atoms: C_8  and  C_10
REMARK    7  A    between atoms: N_14  and  C_15
REMARK    8  A    between atoms: C_15  and  C_16
REMARK    9  A    between atoms: C_16  and  C_17
REMARK                            x       y       z     vdW  Elec       q    Type
REMARK                         _______ _______ _______ _____ _____    ______ ____
ROOT
ATOM      1  C   UNL     1       3.628   4.344  18.832  0.00  0.00    +0.000 C 
ATOM      2  C   UNL     1       3.208   3.380  19.938  0.00  0.00    +0.000 C 
ATOM      3  C   UNL     1       2.020   4.087  20.568  0.00  0.00    +0.000 C 
ATOM      4  O   UNL     1       1.230   3.572  21.345  0.00  0.00    +0.000 OA
ATOM      5  N   UNL     1       2.047   5.411  20.152  0.00  0.00    +0.000 N 
ATOM      6  C   UNL     1       3.239   5.700  19.395  0.00  0.00    +0.000 C 
ENDROOT
BRANCH   1   8
ATOM      7  N   UNL     1       5.335   4.054  17.135  0.00  0.00    +0.000 N 
ATOM      8  C   UNL     1       5.092   4.306  18.459  0.00  0.00    +0.000 C 
ATOM      9  O   UNL     1       5.992   4.565  19.253  0.00  0.00    +0.000 OA
ATOM     10  H   UNL     1       4.589   3.813  16.491  0.00  0.00    +0.000 HD
BRANCH   7  11
ATOM     11  C   UNL     1       6.684   4.146  16.593  0.00  0.00    +0.000 C 
BRANCH  11  12
ATOM     12  C   UNL     1       6.854   5.446  15.832  0.00  0.00    +0.000 C 
ATOM     13  O   UNL     1       6.420   5.644  14.702  0.00  0.00    +0.000 OA
BRANCH  12  14
ATOM     14  O   UNL     1       7.636   6.303  16.545  0.00  0.00    +0.000 OA
BRANCH  14  16
ATOM     15  C   UNL     1       7.928   8.367  17.695  0.00  0.00    +0.000 C 
ATOM     16  C   UNL     1       6.922   7.307  17.280  0.00  0.00    +0.000 C 
ENDBRANCH  14  16
ENDBRANCH  12  14
ENDBRANCH  11  12
ENDBRANCH   7  11
ENDBRANCH   1   8
BRANCH   5  17
ATOM     17  C   UNL     1       1.225   6.449  20.763  0.00  0.00    +0.000 C 
BRANCH  17  18
ATOM     18  C   UNL     1       1.658   7.888  20.445  0.00  0.00    +0.000 C 
BRANCH  18  19
ATOM     19  C   UNL     1       0.858   8.962  21.128  0.00  0.00    +0.000 A 
ATOM     20  C   UNL     1       0.779   9.222  22.480  0.00  0.00    +0.000 A 
ATOM     21  N   UNL     1      -0.055  10.291  22.670  0.00  0.00    +0.000 N 
ATOM     22  C   UNL     1      -0.528  10.749  21.461  0.00  0.00    +0.000 A 
ATOM     23  C   UNL     1      -1.391  11.813  21.178  0.00  0.00    +0.000 A 
ATOM     24  C   UNL     1      -1.701  12.050  19.832  0.00  0.00    +0.000 A 
ATOM     25  C   UNL     1      -1.168  11.253  18.831  0.00  0.00    +0.000 A 
ATOM     26  F   UNL     1      -1.478  11.501  17.555  0.00  0.00    +0.000 F 
ATOM     27  C   UNL     1      -0.306  10.193  19.126  0.00  0.00    +0.000 A 
ATOM     28  C   UNL     1       0.025   9.932  20.474  0.00  0.00    +0.000 A 
ATOM     29  H   UNL     1      -0.287  10.693  23.569  0.00  0.00    +0.000 HD
ENDBRANCH  18  19
ENDBRANCH  17  18
ENDBRANCH   5  17
TORSDOF 8
ENDMDL
MODEL 9
REMARK VINA RESULT:      -7.3      3.881      8.821
REMARK  Name = 
REMARK  9 active torsions:
REMARK  status: ('A' for Active; 'I' for Inactive)
REMARK    1  A    between atoms: C_1  and  C_2
REMARK    2  A    between atoms: C_2  and  O_3
REMARK    3  A    between atoms: O_3  and  C_4
REMARK    4  A    between atoms: C_4  and  C_6
REMARK    5  A    between atoms: C_6  and  N_7
REMARK    6  A    between atoms: C_8  and  C_10
REMARK    7  A    between atoms: N_14  and  C_15
REMARK    8  A    between atoms: C_15  and  C_16
REMARK    9  A    between atoms: C_16  and  C_17
REMARK                            x       y       z     vdW  Elec       q    Type
REMARK                         _______ _______ _______ _____ _____    ______ ____
ROOT
ATOM      1  C   UNL     1       2.842   6.242  20.168  0.00  0.00    +0.000 C 
ATOM      2  C   UNL     1       2.016   5.019  20.554  0.00  0.00    +0.000 C 
ATOM      3  C   UNL     1       2.796   3.873  19.932  0.00  0.00    +0.000 C 
ATOM      4  O   UNL     1       2.622   2.691  20.182  0.00  0.00    +0.000 OA
ATOM      5  N   UNL     1       3.673   4.416  19.002  0.00  0.00    +0.000 N 
ATOM      6  C   UNL     1       3.458   5.833  18.841  0.00  0.00    +0.000 C 
ENDROOT
BRANCH   1   8
ATOM      7  N   UNL     1       1.672   8.082  21.227  0.00  0.00    +0.000 N 
ATOM      8  C   UNL     1       2.069   7.533  20.036  0.00  0.00    +0.000 C 
ATOM      9  O   UNL     1       1.883   8.096  18.961  0.00  0.00    +0.000 OA
ATOM     10  H   UNL     1       1.804   7.598  22.110  0.00  0.00    +0.000 HD
BRANCH   7  11
ATOM     11  C   UNL     1       1.061   9.403  21.273  0.00  0.00    +0.000 C 
BRANCH  11  12
ATOM     12  C   UNL     1      -0.285   9.333  21.968  0.00  0.00    +0.000 C 
ATOM     13  O   UNL     1      -0.818   8.290  22.331  0.00  0.00    +0.000 OA
BRANCH  12  14
ATOM     14  O   UNL     1      -0.841  10.574  22.029  0.00  0.00    +0.000 OA
BRANCH  14  16
ATOM     15  C   UNL     1      -0.871  12.883  21.452  0.00  0.00    +0.000 C 
ATOM     16  C   UNL     1      -0.009  11.637  21.543  0.00  0.00    +0.000 C 
ENDBRANCH  14  16
ENDBRANCH  12  14
ENDBRANCH  11  12
ENDBRANCH   7  11
ENDBRANCH   1   8
BRANCH   5  17
ATOM     17  C   UNL     1       4.387   3.606  18.022  0.00  0.00    +0.000 C 
BRANCH  17  18
ATOM     18  C   UNL     1       4.174   4.023  16.559  0.00  0.00    +0.000 C 
BRANCH  18  19
ATOM     19  C   UNL     1       5.394   4.554  15.862  0.00  0.00    +0.000 A 
ATOM     20  C   UNL     1       6.355   5.401  16.373  0.00  0.00    +0.000 A 
ATOM     21  N   UNL     1       7.297   5.627  15.406  0.00  0.00    +0.000 N 
ATOM     22  C   UNL     1       6.978   4.935  14.259  0.00  0.00    +0.000 A 
ATOM     23  C   UNL     1       7.652   4.866  13.034  0.00  0.00    +0.000 A 
ATOM     24  C   UNL     1       7.084   4.070  12.032  0.00  0.00    +0.000 A 
ATOM     25  C   UNL     1       5.900   3.385  12.256  0.00  0.00    +0.000 A 
ATOM     26  F   UNL     1       5.379   2.630  11.283  0.00  0.00    +0.000 F 
ATOM     27  C   UNL     1       5.236   3.461  13.483  0.00  0.00    +0.000 A 
ATOM     28  C   UNL     1       5.787   4.256  14.513  0.00  0.00    +0.000 A 
ATOM     29  H   UNL     1       8.114   6.212  15.517  0.00  0.00    +0.000 HD
ENDBRANCH  18  19
ENDBRANCH  17  18
ENDBRANCH   5  17
TORSDOF 8
ENDMDL
