MODEL 1
REMARK VINA RESULT:      -6.3      0.000      0.000
REMARK  Name = 
REMARK  23 active torsions:
REMARK  status: ('A' for Active; 'I' for Inactive)
REMARK    1  A    between atoms: C_2  and  C_3
REMARK    2  A    between atoms: C_3  and  C_4
REMARK    3  A    between atoms: C_4  and  C_5
REMARK    4  A    between atoms: C_5  and  C_6
REMARK    5  A    between atoms: C_6  and  C_7
REMARK    6  A    between atoms: C_7  and  C_8
REMARK    7  A    between atoms: C_8  and  C_9
REMARK    8  A    between atoms: C_9  and  C_10
REMARK    9  A    between atoms: C_10  and  C_11
REMARK   10  A    between atoms: C_11  and  C_12
REMARK   11  A    between atoms: C_12  and  C_13
REMARK   12  A    between atoms: C_13  and  C_14
REMARK   13  A    between atoms: C_14  and  C_15
REMARK   14  A    between atoms: C_15  and  C_16
REMARK   15  A    between atoms: C_16  and  C_17
REMARK   16  A    between atoms: C_17  and  C_18
REMARK   17  A    between atoms: C_18  and  C_19
REMARK   18  A    between atoms: C_20  and  C_21
REMARK   19  A    between atoms: C_21  and  C_22
REMARK   20  A    between atoms: C_23  and  C_24
REMARK   21  A    between atoms: C_24  and  C_25
REMARK   22  A    between atoms: C_25  and  C_26
REMARK   23  A    between atoms: CA_29  and  C_30
REMARK                            x       y       z     vdW  Elec       q    Type
REMARK                         _______ _______ _______ _____ _____    ______ ____
ROOT
ATOM      1  C   UNL     1       1.977   2.949  20.854  0.00  0.00    +0.000 C 
ENDROOT
BRANCH   1   2
ATOM      2  C   UNL     1       1.378   3.205  19.484  0.00  0.00    +0.000 C 
BRANCH   2   3
ATOM      3  C   UNL     1       1.443   1.999  18.603  0.00  0.00    +0.000 C 
ATOM      4  C   UNL     1       2.519   1.719  17.857  0.00  0.00    +0.000 C 
BRANCH   4   5
ATOM      5  C   UNL     1       3.724   2.605  17.834  0.00  0.00    +0.000 C 
BRANCH   5   6
ATOM      6  C   UNL     1       3.500   3.900  17.114  0.00  0.00    +0.000 C 
ATOM      7  C   UNL     1       4.442   4.444  16.319  0.00  0.00    +0.000 C 
BRANCH   7   8
ATOM      8  C   UNL     1       5.773   3.783  16.103  0.00  0.00    +0.000 C 
BRANCH   8   9
ATOM      9  C   UNL     1       6.892   4.741  15.702  0.00  0.00    +0.000 C 
BRANCH   9  10
ATOM     10  C   UNL     1       7.339   5.551  16.882  0.00  0.00    +0.000 A 
ATOM     11  C   UNL     1       7.508   5.170  18.196  0.00  0.00    +0.000 A 
ATOM     12  C   UNL     1       7.937   6.302  18.920  0.00  0.00    +0.000 A 
ATOM     13  CA  UNL     1       8.027   7.364  18.045  0.00  0.00    +0.000 A 
ATOM     14  N   UNL     1       7.649   6.897  16.795  0.00  0.00    +0.000 N 
ATOM     15  H   UNL     1       7.607   7.457  15.954  0.00  0.00    +0.000 HD
BRANCH  13  16
ATOM     16  C   UNL     1       8.436   8.709  18.362  0.00  0.00    +0.000 C 
ATOM     17  O   UNL     1       7.871   9.725  17.945  0.00  0.00    +0.000 OA
ENDBRANCH  13  16
ENDBRANCH   9  10
ENDBRANCH   8   9
ENDBRANCH   7   8
ENDBRANCH   5   6
ENDBRANCH   4   5
ENDBRANCH   2   3
ENDBRANCH   1   2
BRANCH   1  18
ATOM     18  C   UNL     1       2.344   4.266  21.518  0.00  0.00    +0.000 C 
BRANCH  18  19
ATOM     19  C   UNL     1       1.810   5.431  20.698  0.00  0.00    +0.000 C 
BRANCH  19  20
ATOM     20  C   UNL     1       2.930   6.092  19.928  0.00  0.00    +0.000 C 
BRANCH  20  21
ATOM     21  C   UNL     1       2.362   6.823  18.727  0.00  0.00    +0.000 C 
BRANCH  21  22
ATOM     22  C   UNL     1       2.063   8.261  19.100  0.00  0.00    +0.000 C 
BRANCH  22  23
ATOM     23  C   UNL     1       2.200   9.149  17.877  0.00  0.00    +0.000 C 
BRANCH  23  24
ATOM     24  C   UNL     1       1.795  10.569  18.225  0.00  0.00    +0.000 C 
BRANCH  24  25
ATOM     25  C   UNL     1       0.669  10.549  19.242  0.00  0.00    +0.000 C 
BRANCH  25  26
ATOM     26  C   UNL     1      -0.561  11.220  18.662  0.00  0.00    +0.000 C 
BRANCH  26  27
ATOM     27  C   UNL     1      -1.712  10.232  18.614  0.00  0.00    +0.000 C 
BRANCH  27  28
ATOM     28  C   UNL     1      -2.026   9.876  17.173  0.00  0.00    +0.000 C 
BRANCH  28  29
ATOM     29  C   UNL     1      -2.599  11.083  16.456  0.00  0.00    +0.000 C 
BRANCH  29  30
ATOM     30  C   UNL     1      -4.075  10.868  16.179  0.00  0.00    +0.000 C 
BRANCH  30  31
ATOM     31  C   UNL     1      -4.885  11.239  17.402  0.00  0.00    +0.000 C 
BRANCH  31  33
ATOM     32  N   UNL     1      -6.503  13.425  16.819  0.00  0.00    +0.000 NA
ATOM     33  C   UNL     1      -5.769  12.434  17.083  0.00  0.00    +0.000 C 
ENDBRANCH  31  33
ENDBRANCH  30  31
ENDBRANCH  29  30
ENDBRANCH  28  29
ENDBRANCH  27  28
ENDBRANCH  26  27
ENDBRANCH  25  26
ENDBRANCH  24  25
ENDBRANCH  23  24
ENDBRANCH  22  23
ENDBRANCH  21  22
ENDBRANCH  20  21
ENDBRANCH  19  20
ENDBRANCH  18  19
ENDBRANCH   1  18
TORSDOF 23
ENDMDL
MODEL 2
REMARK VINA RESULT:      -6.0      4.362      9.023
REMARK  Name = 
REMARK  23 active torsions:
REMARK  status: ('A' for Active; 'I' for Inactive)
REMARK    1  A    between atoms: C_2  and  C_3
REMARK    2  A    between atoms: C_3  and  C_4
REMARK    3  A    between atoms: C_4  and  C_5
REMARK    4  A    between atoms: C_5  and  C_6
REMARK    5  A    between atoms: C_6  and  C_7
REMARK    6  A    between atoms: C_7  and  C_8
REMARK    7  A    between atoms: C_8  and  C_9
REMARK    8  A    between atoms: C_9  and  C_10
REMARK    9  A    between atoms: C_10  and  C_11
REMARK   10  A    between atoms: C_11  and  C_12
REMARK   11  A    between atoms: C_12  and  C_13
REMARK   12  A    between atoms: C_13  and  C_14
REMARK   13  A    between atoms: C_14  and  C_15
REMARK   14  A    between atoms: C_15  and  C_16
REMARK   15  A    between atoms: C_16  and  C_17
REMARK   16  A    between atoms: C_17  and  C_18
REMARK   17  A    between atoms: C_18  and  C_19
REMARK   18  A    between atoms: C_20  and  C_21
REMARK   19  A    between atoms: C_21  and  C_22
REMARK   20  A    between atoms: C_23  and  C_24
REMARK   21  A    between atoms: C_24  and  C_25
REMARK   22  A    between atoms: C_25  and  C_26
REMARK   23  A    between atoms: CA_29  and  C_30
REMARK                            x       y       z     vdW  Elec       q    Type
REMARK                         _______ _______ _______ _____ _____    ______ ____
ROOT
ATOM      1  C   UNL     1       7.905   6.730  18.655  0.00  0.00    +0.000 C 
ENDROOT
BRANCH   1   2
ATOM      2  C   UNL     1       7.055   5.481  18.511  0.00  0.00    +0.000 C 
BRANCH   2   3
ATOM      3  C   UNL     1       7.557   4.577  17.431  0.00  0.00    +0.000 C 
ATOM      4  C   UNL     1       6.848   4.332  16.322  0.00  0.00    +0.000 C 
BRANCH   4   5
ATOM      5  C   UNL     1       5.494   4.928  16.094  0.00  0.00    +0.000 C 
BRANCH   5   6
ATOM      6  C   UNL     1       4.381   4.132  16.704  0.00  0.00    +0.000 C 
ATOM      7  C   UNL     1       3.484   4.688  17.541  0.00  0.00    +0.000 C 
BRANCH   7   8
ATOM      8  C   UNL     1       3.542   6.143  17.909  0.00  0.00    +0.000 C 
BRANCH   8   9
ATOM      9  C   UNL     1       2.655   6.526  19.092  0.00  0.00    +0.000 C 
BRANCH   9  10
ATOM     10  C   UNL     1       2.106   7.909  18.911  0.00  0.00    +0.000 A 
ATOM     11  C   UNL     1       2.113   8.719  17.795  0.00  0.00    +0.000 A 
ATOM     12  C   UNL     1       1.477   9.930  18.138  0.00  0.00    +0.000 A 
ATOM     13  CA  UNL     1       1.085   9.851  19.458  0.00  0.00    +0.000 A 
ATOM     14  N   UNL     1       1.483   8.609  19.929  0.00  0.00    +0.000 N 
ATOM     15  H   UNL     1       1.340   8.274  20.872  0.00  0.00    +0.000 HD
BRANCH  13  16
ATOM     16  C   UNL     1       0.392  10.866  20.212  0.00  0.00    +0.000 C 
ATOM     17  O   UNL     1       0.274  12.042  19.852  0.00  0.00    +0.000 OA
ENDBRANCH  13  16
ENDBRANCH   9  10
ENDBRANCH   8   9
ENDBRANCH   7   8
ENDBRANCH   5   6
ENDBRANCH   4   5
ENDBRANCH   2   3
ENDBRANCH   1   2
BRANCH   1  18
ATOM     18  C   UNL     1       7.753   7.609  17.424  0.00  0.00    +0.000 C 
BRANCH  18  19
ATOM     19  C   UNL     1       7.717   9.075  17.829  0.00  0.00    +0.000 C 
BRANCH  19  20
ATOM     20  C   UNL     1       8.884   9.403  18.731  0.00  0.00    +0.000 C 
BRANCH  20  21
ATOM     21  C   UNL     1       9.399  10.794  18.415  0.00  0.00    +0.000 C 
BRANCH  21  22
ATOM     22  C   UNL     1      10.127  11.354  19.620  0.00  0.00    +0.000 C 
BRANCH  22  23
ATOM     23  C   UNL     1      11.609  11.474  19.317  0.00  0.00    +0.000 C 
BRANCH  23  24
ATOM     24  C   UNL     1      12.079  12.889  19.595  0.00  0.00    +0.000 C 
BRANCH  24  25
ATOM     25  C   UNL     1      10.882  13.789  19.845  0.00  0.00    +0.000 C 
BRANCH  25  26
ATOM     26  C   UNL     1      11.088  15.123  19.153  0.00  0.00    +0.000 C 
BRANCH  26  27
ATOM     27  C   UNL     1       9.787  15.580  18.520  0.00  0.00    +0.000 C 
BRANCH  27  28
ATOM     28  C   UNL     1       8.847  14.400  18.363  0.00  0.00    +0.000 C 
BRANCH  28  29
ATOM     29  C   UNL     1       7.441  14.803  18.764  0.00  0.00    +0.000 C 
BRANCH  29  30
ATOM     30  C   UNL     1       7.471  15.538  20.090  0.00  0.00    +0.000 C 
BRANCH  30  31
ATOM     31  C   UNL     1       6.744  14.728  21.142  0.00  0.00    +0.000 C 
BRANCH  31  33
ATOM     32  N   UNL     1       8.563  13.120  22.498  0.00  0.00    +0.000 NA
ATOM     33  C   UNL     1       7.738  13.849  21.883  0.00  0.00    +0.000 C 
ENDBRANCH  31  33
ENDBRANCH  30  31
ENDBRANCH  29  30
ENDBRANCH  28  29
ENDBRANCH  27  28
ENDBRANCH  26  27
ENDBRANCH  25  26
ENDBRANCH  24  25
ENDBRANCH  23  24
ENDBRANCH  22  23
ENDBRANCH  21  22
ENDBRANCH  20  21
ENDBRANCH  19  20
ENDBRANCH  18  19
ENDBRANCH   1  18
TORSDOF 23
ENDMDL
MODEL 3
REMARK VINA RESULT:      -6.0      3.202      6.072
REMARK  Name = 
REMARK  23 active torsions:
REMARK  status: ('A' for Active; 'I' for Inactive)
REMARK    1  A    between atoms: C_2  and  C_3
REMARK    2  A    between atoms: C_3  and  C_4
REMARK    3  A    between atoms: C_4  and  C_5
REMARK    4  A    between atoms: C_5  and  C_6
REMARK    5  A    between atoms: C_6  and  C_7
REMARK    6  A    between atoms: C_7  and  C_8
REMARK    7  A    between atoms: C_8  and  C_9
REMARK    8  A    between atoms: C_9  and  C_10
REMARK    9  A    between atoms: C_10  and  C_11
REMARK   10  A    between atoms: C_11  and  C_12
REMARK   11  A    between atoms: C_12  and  C_13
REMARK   12  A    between atoms: C_13  and  C_14
REMARK   13  A    between atoms: C_14  and  C_15
REMARK   14  A    between atoms: C_15  and  C_16
REMARK   15  A    between atoms: C_16  and  C_17
REMARK   16  A    between atoms: C_17  and  C_18
REMARK   17  A    between atoms: C_18  and  C_19
REMARK   18  A    between atoms: C_20  and  C_21
REMARK   19  A    between atoms: C_21  and  C_22
REMARK   20  A    between atoms: C_23  and  C_24
REMARK   21  A    between atoms: C_24  and  C_25
REMARK   22  A    between atoms: C_25  and  C_26
REMARK   23  A    between atoms: CA_29  and  C_30
REMARK                            x       y       z     vdW  Elec       q    Type
REMARK                         _______ _______ _______ _____ _____    ______ ____
ROOT
ATOM      1  C   UNL     1       5.301   3.932  16.407  0.00  0.00    +0.000 C 
ENDROOT
BRANCH   1   2
ATOM      2  C   UNL     1       5.576   5.260  15.726  0.00  0.00    +0.000 C 
BRANCH   2   3
ATOM      3  C   UNL     1       5.106   6.422  16.540  0.00  0.00    +0.000 C 
ATOM      4  C   UNL     1       5.958   7.248  17.161  0.00  0.00    +0.000 C 
BRANCH   4   5
ATOM      5  C   UNL     1       7.441   7.053  17.101  0.00  0.00    +0.000 C 
BRANCH   5   6
ATOM      6  C   UNL     1       8.120   7.227  18.425  0.00  0.00    +0.000 C 
ATOM      7  C   UNL     1       8.569   8.426  18.843  0.00  0.00    +0.000 C 
BRANCH   7   8
ATOM      8  C   UNL     1       8.412   9.664  18.007  0.00  0.00    +0.000 C 
BRANCH   8   9
ATOM      9  C   UNL     1       9.466  10.737  18.271  0.00  0.00    +0.000 C 
BRANCH   9  10
ATOM     10  C   UNL     1       8.840  12.099  18.277  0.00  0.00    +0.000 A 
ATOM     11  C   UNL     1       8.124  12.742  17.289  0.00  0.00    +0.000 A 
ATOM     12  C   UNL     1       7.755  14.011  17.783  0.00  0.00    +0.000 A 
ATOM     13  CA  UNL     1       8.246  14.133  19.065  0.00  0.00    +0.000 A 
ATOM     14  N   UNL     1       8.919  12.957  19.360  0.00  0.00    +0.000 N 
ATOM     15  H   UNL     1       9.394  12.763  20.231  0.00  0.00    +0.000 HD
BRANCH  13  16
ATOM     16  C   UNL     1       8.092  15.267  19.941  0.00  0.00    +0.000 C 
ATOM     17  O   UNL     1       7.968  15.188  21.168  0.00  0.00    +0.000 OA
ENDBRANCH  13  16
ENDBRANCH   9  10
ENDBRANCH   8   9
ENDBRANCH   7   8
ENDBRANCH   5   6
ENDBRANCH   4   5
ENDBRANCH   2   3
ENDBRANCH   1   2
BRANCH   1  18
ATOM     18  C   UNL     1       3.974   3.990  17.145  0.00  0.00    +0.000 C 
BRANCH  18  19
ATOM     19  C   UNL     1       3.402   2.589  17.303  0.00  0.00    +0.000 C 
BRANCH  19  20
ATOM     20  C   UNL     1       2.094   2.635  18.059  0.00  0.00    +0.000 C 
BRANCH  20  21
ATOM     21  C   UNL     1       2.310   2.158  19.483  0.00  0.00    +0.000 C 
BRANCH  21  22
ATOM     22  C   UNL     1       1.195   2.678  20.369  0.00  0.00    +0.000 C 
BRANCH  22  23
ATOM     23  C   UNL     1       1.007   4.166  20.139  0.00  0.00    +0.000 C 
BRANCH  23  24
ATOM     24  C   UNL     1       1.912   4.949  21.071  0.00  0.00    +0.000 C 
BRANCH  24  25
ATOM     25  C   UNL     1       2.031   6.383  20.588  0.00  0.00    +0.000 C 
BRANCH  25  26
ATOM     26  C   UNL     1       2.152   6.409  19.076  0.00  0.00    +0.000 C 
BRANCH  26  27
ATOM     27  C   UNL     1       2.652   7.768  18.623  0.00  0.00    +0.000 C 
BRANCH  27  28
ATOM     28  C   UNL     1       1.664   8.382  17.648  0.00  0.00    +0.000 C 
BRANCH  28  29
ATOM     29  C   UNL     1       1.324   9.796  18.080  0.00  0.00    +0.000 C 
BRANCH  29  30
ATOM     30  C   UNL     1       0.862   9.799  19.525  0.00  0.00    +0.000 C 
BRANCH  30  31
ATOM     31  C   UNL     1      -0.241  10.818  19.708  0.00  0.00    +0.000 C 
BRANCH  31  33
ATOM     32  N   UNL     1       0.400  12.511  21.819  0.00  0.00    +0.000 NA
ATOM     33  C   UNL     1       0.109  11.744  20.862  0.00  0.00    +0.000 C 
ENDBRANCH  31  33
ENDBRANCH  30  31
ENDBRANCH  29  30
ENDBRANCH  28  29
ENDBRANCH  27  28
ENDBRANCH  26  27
ENDBRANCH  25  26
ENDBRANCH  24  25
ENDBRANCH  23  24
ENDBRANCH  22  23
ENDBRANCH  21  22
ENDBRANCH  20  21
ENDBRANCH  19  20
ENDBRANCH  18  19
ENDBRANCH   1  18
TORSDOF 23
ENDMDL
MODEL 4
REMARK VINA RESULT:      -5.9      2.559      4.186
REMARK  Name = 
REMARK  23 active torsions:
REMARK  status: ('A' for Active; 'I' for Inactive)
REMARK    1  A    between atoms: C_2  and  C_3
REMARK    2  A    between atoms: C_3  and  C_4
REMARK    3  A    between atoms: C_4  and  C_5
REMARK    4  A    between atoms: C_5  and  C_6
REMARK    5  A    between atoms: C_6  and  C_7
REMARK    6  A    between atoms: C_7  and  C_8
REMARK    7  A    between atoms: C_8  and  C_9
REMARK    8  A    between atoms: C_9  and  C_10
REMARK    9  A    between atoms: C_10  and  C_11
REMARK   10  A    between atoms: C_11  and  C_12
REMARK   11  A    between atoms: C_12  and  C_13
REMARK   12  A    between atoms: C_13  and  C_14
REMARK   13  A    between atoms: C_14  and  C_15
REMARK   14  A    between atoms: C_15  and  C_16
REMARK   15  A    between atoms: C_16  and  C_17
REMARK   16  A    between atoms: C_17  and  C_18
REMARK   17  A    between atoms: C_18  and  C_19
REMARK   18  A    between atoms: C_20  and  C_21
REMARK   19  A    between atoms: C_21  and  C_22
REMARK   20  A    between atoms: C_23  and  C_24
REMARK   21  A    between atoms: C_24  and  C_25
REMARK   22  A    between atoms: C_25  and  C_26
REMARK   23  A    between atoms: CA_29  and  C_30
REMARK                            x       y       z     vdW  Elec       q    Type
REMARK                         _______ _______ _______ _____ _____    ______ ____
ROOT
ATOM      1  C   UNL     1       2.273   6.779  18.256  0.00  0.00    +0.000 C 
ENDROOT
BRANCH   1   2
ATOM      2  C   UNL     1       2.269   6.833  19.772  0.00  0.00    +0.000 C 
BRANCH   2   3
ATOM      3  C   UNL     1       3.021   5.694  20.381  0.00  0.00    +0.000 C 
ATOM      4  C   UNL     1       2.459   4.496  20.583  0.00  0.00    +0.000 C 
BRANCH   4   5
ATOM      5  C   UNL     1       1.030   4.218  20.234  0.00  0.00    +0.000 C 
BRANCH   5   6
ATOM      6  C   UNL     1       0.771   2.787  19.872  0.00  0.00    +0.000 C 
ATOM      7  C   UNL     1       1.282   2.231  18.756  0.00  0.00    +0.000 C 
BRANCH   7   8
ATOM      8  C   UNL     1       2.147   3.012  17.809  0.00  0.00    +0.000 C 
BRANCH   8   9
ATOM      9  C   UNL     1       3.577   2.490  17.690  0.00  0.00    +0.000 C 
BRANCH   9  10
ATOM     10  C   UNL     1       4.548   3.629  17.612  0.00  0.00    +0.000 A 
ATOM     11  C   UNL     1       4.685   4.603  16.645  0.00  0.00    +0.000 A 
ATOM     12  C   UNL     1       5.752   5.442  17.028  0.00  0.00    +0.000 A 
ATOM     13  CA  UNL     1       6.258   4.976  18.223  0.00  0.00    +0.000 A 
ATOM     14  N   UNL     1       5.519   3.856  18.572  0.00  0.00    +0.000 N 
ATOM     15  H   UNL     1       5.671   3.295  19.399  0.00  0.00    +0.000 HD
BRANCH  13  16
ATOM     16  C   UNL     1       7.350   5.543  18.975  0.00  0.00    +0.000 C 
ATOM     17  O   UNL     1       7.514   5.387  20.189  0.00  0.00    +0.000 OA
ENDBRANCH  13  16
ENDBRANCH   9  10
ENDBRANCH   8   9
ENDBRANCH   7   8
ENDBRANCH   5   6
ENDBRANCH   4   5
ENDBRANCH   2   3
ENDBRANCH   1   2
BRANCH   1  18
ATOM     18  C   UNL     1       3.043   7.963  17.694  0.00  0.00    +0.000 C 
BRANCH  18  19
ATOM     19  C   UNL     1       2.286   9.254  17.963  0.00  0.00    +0.000 C 
BRANCH  19  20
ATOM     20  C   UNL     1       0.822   9.089  17.627  0.00  0.00    +0.000 C 
BRANCH  20  21
ATOM     21  C   UNL     1       0.003  10.106  18.397  0.00  0.00    +0.000 C 
BRANCH  21  22
ATOM     22  C   UNL     1       0.425  10.103  19.854  0.00  0.00    +0.000 C 
BRANCH  22  23
ATOM     23  C   UNL     1       0.503  11.527  20.370  0.00  0.00    +0.000 C 
BRANCH  23  24
ATOM     24  C   UNL     1       0.958  12.453  19.258  0.00  0.00    +0.000 C 
BRANCH  24  25
ATOM     25  C   UNL     1       0.228  13.780  19.362  0.00  0.00    +0.000 C 
BRANCH  25  26
ATOM     26  C   UNL     1      -1.207  13.546  19.793  0.00  0.00    +0.000 C 
BRANCH  26  27
ATOM     27  C   UNL     1      -1.607  14.574  20.835  0.00  0.00    +0.000 C 
BRANCH  27  28
ATOM     28  C   UNL     1      -3.076  14.417  21.178  0.00  0.00    +0.000 C 
BRANCH  28  29
ATOM     29  C   UNL     1      -3.292  13.126  21.944  0.00  0.00    +0.000 C 
BRANCH  29  30
ATOM     30  C   UNL     1      -4.764  12.758  21.934  0.00  0.00    +0.000 C 
BRANCH  30  31
ATOM     31  C   UNL     1      -5.258  12.658  20.507  0.00  0.00    +0.000 C 
BRANCH  31  33
ATOM     32  N   UNL     1      -7.428  10.922  20.394  0.00  0.00    +0.000 NA
ATOM     33  C   UNL     1      -6.443  11.709  20.446  0.00  0.00    +0.000 C 
ENDBRANCH  31  33
ENDBRANCH  30  31
ENDBRANCH  29  30
ENDBRANCH  28  29
ENDBRANCH  27  28
ENDBRANCH  26  27
ENDBRANCH  25  26
ENDBRANCH  24  25
ENDBRANCH  23  24
ENDBRANCH  22  23
ENDBRANCH  21  22
ENDBRANCH  20  21
ENDBRANCH  19  20
ENDBRANCH  18  19
ENDBRANCH   1  18
TORSDOF 23
ENDMDL
MODEL 5
REMARK VINA RESULT:      -5.9      3.738      5.526
REMARK  Name = 
REMARK  23 active torsions:
REMARK  status: ('A' for Active; 'I' for Inactive)
REMARK    1  A    between atoms: C_2  and  C_3
REMARK    2  A    between atoms: C_3  and  C_4
REMARK    3  A    between atoms: C_4  and  C_5
REMARK    4  A    between atoms: C_5  and  C_6
REMARK    5  A    between atoms: C_6  and  C_7
REMARK    6  A    between atoms: C_7  and  C_8
REMARK    7  A    between atoms: C_8  and  C_9
REMARK    8  A    between atoms: C_9  and  C_10
REMARK    9  A    between atoms: C_10  and  C_11
REMARK   10  A    between atoms: C_11  and  C_12
REMARK   11  A    between atoms: C_12  and  C_13
REMARK   12  A    between atoms: C_13  and  C_14
REMARK   13  A    between atoms: C_14  and  C_15
REMARK   14  A    between atoms: C_15  and  C_16
REMARK   15  A    between atoms: C_16  and  C_17
REMARK   16  A    between atoms: C_17  and  C_18
REMARK   17  A    between atoms: C_18  and  C_19
REMARK   18  A    between atoms: C_20  and  C_21
REMARK   19  A    between atoms: C_21  and  C_22
REMARK   20  A    between atoms: C_23  and  C_24
REMARK   21  A    between atoms: C_24  and  C_25
REMARK   22  A    between atoms: C_25  and  C_26
REMARK   23  A    between atoms: CA_29  and  C_30
REMARK                            x       y       z     vdW  Elec       q    Type
REMARK                         _______ _______ _______ _____ _____    ______ ____
ROOT
ATOM      1  C   UNL     1       2.845   7.989  17.752  0.00  0.00    +0.000 C 
ENDROOT
BRANCH   1   2
ATOM      2  C   UNL     1       2.534   6.653  18.400  0.00  0.00    +0.000 C 
BRANCH   2   3
ATOM      3  C   UNL     1       2.270   6.783  19.866  0.00  0.00    +0.000 C 
ATOM      4  C   UNL     1       1.709   5.798  20.578  0.00  0.00    +0.000 C 
BRANCH   4   5
ATOM      5  C   UNL     1       1.286   4.505  19.954  0.00  0.00    +0.000 C 
BRANCH   5   6
ATOM      6  C   UNL     1       1.213   3.368  20.927  0.00  0.00    +0.000 C 
ATOM      7  C   UNL     1       2.283   2.598  21.204  0.00  0.00    +0.000 C 
BRANCH   7   8
ATOM      8  C   UNL     1       3.618   2.838  20.558  0.00  0.00    +0.000 C 
BRANCH   8   9
ATOM      9  C   UNL     1       3.773   2.193  19.182  0.00  0.00    +0.000 C 
BRANCH   9  10
ATOM     10  C   UNL     1       4.399   3.156  18.219  0.00  0.00    +0.000 A 
ATOM     11  C   UNL     1       3.909   3.653  17.029  0.00  0.00    +0.000 A 
ATOM     12  C   UNL     1       4.883   4.521  16.493  0.00  0.00    +0.000 A 
ATOM     13  CA  UNL     1       5.957   4.549  17.357  0.00  0.00    +0.000 A 
ATOM     14  N   UNL     1       5.657   3.700  18.411  0.00  0.00    +0.000 N 
ATOM     15  H   UNL     1       6.267   3.510  19.195  0.00  0.00    +0.000 HD
BRANCH  13  16
ATOM     16  C   UNL     1       7.169   5.314  17.199  0.00  0.00    +0.000 C 
ATOM     17  O   UNL     1       7.438   5.995  16.204  0.00  0.00    +0.000 OA
ENDBRANCH  13  16
ENDBRANCH   9  10
ENDBRANCH   8   9
ENDBRANCH   7   8
ENDBRANCH   5   6
ENDBRANCH   4   5
ENDBRANCH   2   3
ENDBRANCH   1   2
BRANCH   1  18
ATOM     18  C   UNL     1       1.641   8.911  17.855  0.00  0.00    +0.000 C 
BRANCH  18  19
ATOM     19  C   UNL     1       2.099  10.357  17.977  0.00  0.00    +0.000 C 
BRANCH  19  20
ATOM     20  C   UNL     1       1.176  11.129  18.891  0.00  0.00    +0.000 C 
BRANCH  20  21
ATOM     21  C   UNL     1       0.767  10.254  20.061  0.00  0.00    +0.000 C 
BRANCH  21  22
ATOM     22  C   UNL     1      -0.724  10.391  20.302  0.00  0.00    +0.000 C 
BRANCH  22  23
ATOM     23  C   UNL     1      -1.241  11.647  19.625  0.00  0.00    +0.000 C 
BRANCH  23  24
ATOM     24  C   UNL     1      -1.467  12.733  20.660  0.00  0.00    +0.000 C 
BRANCH  24  25
ATOM     25  C   UNL     1      -2.771  12.483  21.394  0.00  0.00    +0.000 C 
BRANCH  25  26
ATOM     26  C   UNL     1      -2.500  12.292  22.874  0.00  0.00    +0.000 C 
BRANCH  26  27
ATOM     27  C   UNL     1      -1.326  13.157  23.298  0.00  0.00    +0.000 C 
BRANCH  27  28
ATOM     28  C   UNL     1      -1.825  14.517  23.747  0.00  0.00    +0.000 C 
BRANCH  28  29
ATOM     29  C   UNL     1      -3.073  14.357  24.593  0.00  0.00    +0.000 C 
BRANCH  29  30
ATOM     30  C   UNL     1      -4.105  15.396  24.195  0.00  0.00    +0.000 C 
BRANCH  30  31
ATOM     31  C   UNL     1      -3.832  15.876  22.786  0.00  0.00    +0.000 C 
BRANCH  31  33
ATOM     32  N   UNL     1      -4.304  18.612  22.629  0.00  0.00    +0.000 NA
ATOM     33  C   UNL     1      -4.090  17.371  22.701  0.00  0.00    +0.000 C 
ENDBRANCH  31  33
ENDBRANCH  30  31
ENDBRANCH  29  30
ENDBRANCH  28  29
ENDBRANCH  27  28
ENDBRANCH  26  27
ENDBRANCH  25  26
ENDBRANCH  24  25
ENDBRANCH  23  24
ENDBRANCH  22  23
ENDBRANCH  21  22
ENDBRANCH  20  21
ENDBRANCH  19  20
ENDBRANCH  18  19
ENDBRANCH   1  18
TORSDOF 23
ENDMDL
MODEL 6
REMARK VINA RESULT:      -5.8      3.082      8.892
REMARK  Name = 
REMARK  23 active torsions:
REMARK  status: ('A' for Active; 'I' for Inactive)
REMARK    1  A    between atoms: C_2  and  C_3
REMARK    2  A    between atoms: C_3  and  C_4
REMARK    3  A    between atoms: C_4  and  C_5
REMARK    4  A    between atoms: C_5  and  C_6
REMARK    5  A    between atoms: C_6  and  C_7
REMARK    6  A    between atoms: C_7  and  C_8
REMARK    7  A    between atoms: C_8  and  C_9
REMARK    8  A    between atoms: C_9  and  C_10
REMARK    9  A    between atoms: C_10  and  C_11
REMARK   10  A    between atoms: C_11  and  C_12
REMARK   11  A    between atoms: C_12  and  C_13
REMARK   12  A    between atoms: C_13  and  C_14
REMARK   13  A    between atoms: C_14  and  C_15
REMARK   14  A    between atoms: C_15  and  C_16
REMARK   15  A    between atoms: C_16  and  C_17
REMARK   16  A    between atoms: C_17  and  C_18
REMARK   17  A    between atoms: C_18  and  C_19
REMARK   18  A    between atoms: C_20  and  C_21
REMARK   19  A    between atoms: C_21  and  C_22
REMARK   20  A    between atoms: C_23  and  C_24
REMARK   21  A    between atoms: C_24  and  C_25
REMARK   22  A    between atoms: C_25  and  C_26
REMARK   23  A    between atoms: CA_29  and  C_30
REMARK                            x       y       z     vdW  Elec       q    Type
REMARK                         _______ _______ _______ _____ _____    ______ ____
ROOT
ATOM      1  C   UNL     1       4.306   7.292  16.094  0.00  0.00    +0.000 C 
ENDROOT
BRANCH   1   2
ATOM      2  C   UNL     1       3.925   7.791  17.475  0.00  0.00    +0.000 C 
BRANCH   2   3
ATOM      3  C   UNL     1       2.492   7.517  17.800  0.00  0.00    +0.000 C 
ATOM      4  C   UNL     1       1.578   8.493  17.871  0.00  0.00    +0.000 C 
BRANCH   4   5
ATOM      5  C   UNL     1       1.931   9.931  17.651  0.00  0.00    +0.000 C 
BRANCH   5   6
ATOM      6  C   UNL     1       2.138  10.696  18.922  0.00  0.00    +0.000 C 
ATOM      7  C   UNL     1       1.235  11.590  19.369  0.00  0.00    +0.000 C 
BRANCH   7   8
ATOM      8  C   UNL     1      -0.038  11.870  18.622  0.00  0.00    +0.000 C 
BRANCH   8   9
ATOM      9  C   UNL     1      -1.172  10.892  18.926  0.00  0.00    +0.000 C 
BRANCH   9  10
ATOM     10  C   UNL     1      -2.143  10.843  17.786  0.00  0.00    +0.000 A 
ATOM     11  C   UNL     1      -3.399  11.402  17.675  0.00  0.00    +0.000 A 
ATOM     12  C   UNL     1      -3.910  11.061  16.405  0.00  0.00    +0.000 A 
ATOM     13  CA  UNL     1      -2.966  10.299  15.751  0.00  0.00    +0.000 A 
ATOM     14  N   UNL     1      -1.885  10.162  16.609  0.00  0.00    +0.000 N 
ATOM     15  H   UNL     1      -1.043   9.641  16.403  0.00  0.00    +0.000 HD
BRANCH  13  16
ATOM     16  C   UNL     1      -3.075   9.746  14.424  0.00  0.00    +0.000 C 
ATOM     17  O   UNL     1      -3.561  10.344  13.459  0.00  0.00    +0.000 OA
ENDBRANCH  13  16
ENDBRANCH   9  10
ENDBRANCH   8   9
ENDBRANCH   7   8
ENDBRANCH   5   6
ENDBRANCH   4   5
ENDBRANCH   2   3
ENDBRANCH   1   2
BRANCH   1  18
ATOM     18  C   UNL     1       5.548   6.420  16.179  0.00  0.00    +0.000 C 
BRANCH  18  19
ATOM     19  C   UNL     1       6.425   6.869  17.338  0.00  0.00    +0.000 C 
BRANCH  19  20
ATOM     20  C   UNL     1       7.176   5.694  17.919  0.00  0.00    +0.000 C 
BRANCH  20  21
ATOM     21  C   UNL     1       6.719   5.449  19.344  0.00  0.00    +0.000 C 
BRANCH  21  22
ATOM     22  C   UNL     1       5.239   5.120  19.355  0.00  0.00    +0.000 C 
BRANCH  22  23
ATOM     23  C   UNL     1       5.044   3.618  19.259  0.00  0.00    +0.000 C 
BRANCH  23  24
ATOM     24  C   UNL     1       4.387   3.268  17.938  0.00  0.00    +0.000 C 
BRANCH  24  25
ATOM     25  C   UNL     1       3.101   4.057  17.778  0.00  0.00    +0.000 C 
BRANCH  25  26
ATOM     26  C   UNL     1       1.956   3.116  17.453  0.00  0.00    +0.000 C 
BRANCH  26  27
ATOM     27  C   UNL     1       1.607   2.289  18.677  0.00  0.00    +0.000 C 
BRANCH  27  28
ATOM     28  C   UNL     1       0.930   3.165  19.714  0.00  0.00    +0.000 C 
BRANCH  28  29
ATOM     29  C   UNL     1       1.778   3.228  20.970  0.00  0.00    +0.000 C 
BRANCH  29  30
ATOM     30  C   UNL     1       2.126   4.671  21.287  0.00  0.00    +0.000 C 
BRANCH  30  31
ATOM     31  C   UNL     1       1.186   5.599  20.548  0.00  0.00    +0.000 C 
BRANCH  31  33
ATOM     32  N   UNL     1       1.473   8.185  21.529  0.00  0.00    +0.000 NA
ATOM     33  C   UNL     1       1.343   7.012  21.084  0.00  0.00    +0.000 C 
ENDBRANCH  31  33
ENDBRANCH  30  31
ENDBRANCH  29  30
ENDBRANCH  28  29
ENDBRANCH  27  28
ENDBRANCH  26  27
ENDBRANCH  25  26
ENDBRANCH  24  25
ENDBRANCH  23  24
ENDBRANCH  22  23
ENDBRANCH  21  22
ENDBRANCH  20  21
ENDBRANCH  19  20
ENDBRANCH  18  19
ENDBRANCH   1  18
TORSDOF 23
ENDMDL
MODEL 7
REMARK VINA RESULT:      -5.8      3.956      9.679
REMARK  Name = 
REMARK  23 active torsions:
REMARK  status: ('A' for Active; 'I' for Inactive)
REMARK    1  A    between atoms: C_2  and  C_3
REMARK    2  A    between atoms: C_3  and  C_4
REMARK    3  A    between atoms: C_4  and  C_5
REMARK    4  A    between atoms: C_5  and  C_6
REMARK    5  A    between atoms: C_6  and  C_7
REMARK    6  A    between atoms: C_7  and  C_8
REMARK    7  A    between atoms: C_8  and  C_9
REMARK    8  A    between atoms: C_9  and  C_10
REMARK    9  A    between atoms: C_10  and  C_11
REMARK   10  A    between atoms: C_11  and  C_12
REMARK   11  A    between atoms: C_12  and  C_13
REMARK   12  A    between atoms: C_13  and  C_14
REMARK   13  A    between atoms: C_14  and  C_15
REMARK   14  A    between atoms: C_15  and  C_16
REMARK   15  A    between atoms: C_16  and  C_17
REMARK   16  A    between atoms: C_17  and  C_18
REMARK   17  A    between atoms: C_18  and  C_19
REMARK   18  A    between atoms: C_20  and  C_21
REMARK   19  A    between atoms: C_21  and  C_22
REMARK   20  A    between atoms: C_23  and  C_24
REMARK   21  A    between atoms: C_24  and  C_25
REMARK   22  A    between atoms: C_25  and  C_26
REMARK   23  A    between atoms: CA_29  and  C_30
REMARK                            x       y       z     vdW  Elec       q    Type
REMARK                         _______ _______ _______ _____ _____    ______ ____
ROOT
ATOM      1  C   UNL     1       1.365   4.492  17.773  0.00  0.00    +0.000 C 
ENDROOT
BRANCH   1   2
ATOM      2  C   UNL     1       2.432   5.571  17.738  0.00  0.00    +0.000 C 
BRANCH   2   3
ATOM      3  C   UNL     1       2.495   6.345  19.015  0.00  0.00    +0.000 C 
ATOM      4  C   UNL     1       2.151   7.638  19.081  0.00  0.00    +0.000 C 
BRANCH   4   5
ATOM      5  C   UNL     1       1.701   8.404  17.878  0.00  0.00    +0.000 C 
BRANCH   5   6
ATOM      6  C   UNL     1       2.065   9.857  17.924  0.00  0.00    +0.000 C 
ATOM      7  C   UNL     1       1.323  10.755  18.601  0.00  0.00    +0.000 C 
BRANCH   7   8
ATOM      8  C   UNL     1       0.089  10.353  19.356  0.00  0.00    +0.000 C 
BRANCH   8   9
ATOM      9  C   UNL     1       0.058  10.828  20.807  0.00  0.00    +0.000 C 
BRANCH   9  10
ATOM     10  C   UNL     1      -1.143  11.690  21.052  0.00  0.00    +0.000 A 
ATOM     11  C   UNL     1      -1.734  12.630  20.234  0.00  0.00    +0.000 A 
ATOM     12  C   UNL     1      -2.835  13.173  20.927  0.00  0.00    +0.000 A 
ATOM     13  CA  UNL     1      -2.910  12.563  22.161  0.00  0.00    +0.000 A 
ATOM     14  N   UNL     1      -1.861  11.658  22.235  0.00  0.00    +0.000 N 
ATOM     15  H   UNL     1      -1.656  11.071  23.032  0.00  0.00    +0.000 HD
BRANCH  13  16
ATOM     16  C   UNL     1      -3.891  12.813  23.187  0.00  0.00    +0.000 C 
ATOM     17  O   UNL     1      -4.058  12.098  24.180  0.00  0.00    +0.000 OA
ENDBRANCH  13  16
ENDBRANCH   9  10
ENDBRANCH   8   9
ENDBRANCH   7   8
ENDBRANCH   5   6
ENDBRANCH   4   5
ENDBRANCH   2   3
ENDBRANCH   1   2
BRANCH   1  18
ATOM     18  C   UNL     1       1.950   3.197  18.311  0.00  0.00    +0.000 C 
BRANCH  18  19
ATOM     19  C   UNL     1       1.771   3.129  19.820  0.00  0.00    +0.000 C 
BRANCH  19  20
ATOM     20  C   UNL     1       3.057   2.699  20.486  0.00  0.00    +0.000 C 
BRANCH  20  21
ATOM     21  C   UNL     1       4.185   2.703  19.472  0.00  0.00    +0.000 C 
BRANCH  21  22
ATOM     22  C   UNL     1       5.054   3.928  19.681  0.00  0.00    +0.000 C 
BRANCH  22  23
ATOM     23  C   UNL     1       5.759   4.286  18.386  0.00  0.00    +0.000 C 
BRANCH  23  24
ATOM     24  C   UNL     1       6.632   5.508  18.597  0.00  0.00    +0.000 C 
BRANCH  24  25
ATOM     25  C   UNL     1       6.498   6.447  17.412  0.00  0.00    +0.000 C 
BRANCH  25  26
ATOM     26  C   UNL     1       5.592   5.827  16.365  0.00  0.00    +0.000 C 
BRANCH  26  27
ATOM     27  C   UNL     1       6.398   5.481  15.126  0.00  0.00    +0.000 C 
BRANCH  27  28
ATOM     28  C   UNL     1       6.107   4.053  14.704  0.00  0.00    +0.000 C 
BRANCH  28  29
ATOM     29  C   UNL     1       5.417   4.045  13.353  0.00  0.00    +0.000 C 
BRANCH  29  30
ATOM     30  C   UNL     1       6.234   3.239  12.360  0.00  0.00    +0.000 C 
BRANCH  30  31
ATOM     31  C   UNL     1       5.322   2.331  11.564  0.00  0.00    +0.000 C 
BRANCH  31  33
ATOM     32  N   UNL     1       3.255   3.828  10.459  0.00  0.00    +0.000 NA
ATOM     33  C   UNL     1       4.192   3.149  10.960  0.00  0.00    +0.000 C 
ENDBRANCH  31  33
ENDBRANCH  30  31
ENDBRANCH  29  30
ENDBRANCH  28  29
ENDBRANCH  27  28
ENDBRANCH  26  27
ENDBRANCH  25  26
ENDBRANCH  24  25
ENDBRANCH  23  24
ENDBRANCH  22  23
ENDBRANCH  21  22
ENDBRANCH  20  21
ENDBRANCH  19  20
ENDBRANCH  18  19
ENDBRANCH   1  18
TORSDOF 23
ENDMDL
MODEL 8
REMARK VINA RESULT:      -5.8      5.217      9.530
REMARK  Name = 
REMARK  23 active torsions:
REMARK  status: ('A' for Active; 'I' for Inactive)
REMARK    1  A    between atoms: C_2  and  C_3
REMARK    2  A    between atoms: C_3  and  C_4
REMARK    3  A    between atoms: C_4  and  C_5
REMARK    4  A    between atoms: C_5  and  C_6
REMARK    5  A    between atoms: C_6  and  C_7
REMARK    6  A    between atoms: C_7  and  C_8
REMARK    7  A    between atoms: C_8  and  C_9
REMARK    8  A    between atoms: C_9  and  C_10
REMARK    9  A    between atoms: C_10  and  C_11
REMARK   10  A    between atoms: C_11  and  C_12
REMARK   11  A    between atoms: C_12  and  C_13
REMARK   12  A    between atoms: C_13  and  C_14
REMARK   13  A    between atoms: C_14  and  C_15
REMARK   14  A    between atoms: C_15  and  C_16
REMARK   15  A    between atoms: C_16  and  C_17
REMARK   16  A    between atoms: C_17  and  C_18
REMARK   17  A    between atoms: C_18  and  C_19
REMARK   18  A    between atoms: C_20  and  C_21
REMARK   19  A    between atoms: C_21  and  C_22
REMARK   20  A    between atoms: C_23  and  C_24
REMARK   21  A    between atoms: C_24  and  C_25
REMARK   22  A    between atoms: C_25  and  C_26
REMARK   23  A    between atoms: CA_29  and  C_30
REMARK                            x       y       z     vdW  Elec       q    Type
REMARK                         _______ _______ _______ _____ _____    ______ ____
ROOT
ATOM      1  C   UNL     1       8.186   7.623  18.739  0.00  0.00    +0.000 C 
ENDROOT
BRANCH   1   2
ATOM      2  C   UNL     1       7.659   6.305  18.202  0.00  0.00    +0.000 C 
BRANCH   2   3
ATOM      3  C   UNL     1       6.851   6.483  16.957  0.00  0.00    +0.000 C 
ATOM      4  C   UNL     1       5.530   6.263  16.928  0.00  0.00    +0.000 C 
BRANCH   4   5
ATOM      5  C   UNL     1       4.774   5.802  18.134  0.00  0.00    +0.000 C 
BRANCH   5   6
ATOM      6  C   UNL     1       3.400   5.292  17.819  0.00  0.00    +0.000 C 
ATOM      7  C   UNL     1       2.292   5.987  18.141  0.00  0.00    +0.000 C 
BRANCH   7   8
ATOM      8  C   UNL     1       2.367   7.319  18.832  0.00  0.00    +0.000 C 
BRANCH   8   9
ATOM      9  C   UNL     1       2.093   8.514  17.922  0.00  0.00    +0.000 C 
BRANCH   9  10
ATOM     10  C   UNL     1       1.179   9.490  18.598  0.00  0.00    +0.000 A 
ATOM     11  C   UNL     1       0.819   9.584  19.925  0.00  0.00    +0.000 A 
ATOM     12  C   UNL     1      -0.073  10.670  20.053  0.00  0.00    +0.000 A 
ATOM     13  CA  UNL     1      -0.250  11.230  18.806  0.00  0.00    +0.000 A 
ATOM     14  N   UNL     1       0.516  10.495  17.914  0.00  0.00    +0.000 N 
ATOM     15  H   UNL     1       0.575  10.668  16.920  0.00  0.00    +0.000 HD
BRANCH  13  16
ATOM     16  C   UNL     1      -1.075  12.367  18.482  0.00  0.00    +0.000 C 
ATOM     17  O   UNL     1      -0.642  13.506  18.277  0.00  0.00    +0.000 OA
ENDBRANCH  13  16
ENDBRANCH   9  10
ENDBRANCH   8   9
ENDBRANCH   7   8
ENDBRANCH   5   6
ENDBRANCH   4   5
ENDBRANCH   2   3
ENDBRANCH   1   2
BRANCH   1  18
ATOM     18  C   UNL     1       8.201   8.667  17.634  0.00  0.00    +0.000 C 
BRANCH  18  19
ATOM     19  C   UNL     1       8.335  10.059  18.232  0.00  0.00    +0.000 C 
BRANCH  19  20
ATOM     20  C   UNL     1       9.529  10.125  19.156  0.00  0.00    +0.000 C 
BRANCH  20  21
ATOM     21  C   UNL     1      10.424  11.281  18.753  0.00  0.00    +0.000 C 
BRANCH  21  22
ATOM     22  C   UNL     1      10.998  11.937  19.993  0.00  0.00    +0.000 C 
BRANCH  22  23
ATOM     23  C   UNL     1       9.950  11.973  21.089  0.00  0.00    +0.000 C 
BRANCH  23  24
ATOM     24  C   UNL     1       9.776  13.395  21.589  0.00  0.00    +0.000 C 
BRANCH  24  25
ATOM     25  C   UNL     1       8.756  13.425  22.711  0.00  0.00    +0.000 C 
BRANCH  25  26
ATOM     26  C   UNL     1       8.155  12.044  22.898  0.00  0.00    +0.000 C 
BRANCH  26  27
ATOM     27  C   UNL     1       8.167  11.673  24.369  0.00  0.00    +0.000 C 
BRANCH  27  28
ATOM     28  C   UNL     1       7.917  12.907  25.215  0.00  0.00    +0.000 C 
BRANCH  28  29
ATOM     29  C   UNL     1       6.985  12.568  26.362  0.00  0.00    +0.000 C 
BRANCH  29  30
ATOM     30  C   UNL     1       6.504  11.135  26.232  0.00  0.00    +0.000 C 
BRANCH  30  31
ATOM     31  C   UNL     1       4.997  11.109  26.105  0.00  0.00    +0.000 C 
BRANCH  31  33
ATOM     32  N   UNL     1       3.947   9.246  27.882  0.00  0.00    +0.000 NA
ATOM     33  C   UNL     1       4.422  10.091  27.076  0.00  0.00    +0.000 C 
ENDBRANCH  31  33
ENDBRANCH  30  31
ENDBRANCH  29  30
ENDBRANCH  28  29
ENDBRANCH  27  28
ENDBRANCH  26  27
ENDBRANCH  25  26
ENDBRANCH  24  25
ENDBRANCH  23  24
ENDBRANCH  22  23
ENDBRANCH  21  22
ENDBRANCH  20  21
ENDBRANCH  19  20
ENDBRANCH  18  19
ENDBRANCH   1  18
TORSDOF 23
ENDMDL
MODEL 9
REMARK VINA RESULT:      -5.8      3.304      9.673
REMARK  Name = 
REMARK  23 active torsions:
REMARK  status: ('A' for Active; 'I' for Inactive)
REMARK    1  A    between atoms: C_2  and  C_3
REMARK    2  A    between atoms: C_3  and  C_4
REMARK    3  A    between atoms: C_4  and  C_5
REMARK    4  A    between atoms: C_5  and  C_6
REMARK    5  A    between atoms: C_6  and  C_7
REMARK    6  A    between atoms: C_7  and  C_8
REMARK    7  A    between atoms: C_8  and  C_9
REMARK    8  A    between atoms: C_9  and  C_10
REMARK    9  A    between atoms: C_10  and  C_11
REMARK   10  A    between atoms: C_11  and  C_12
REMARK   11  A    between atoms: C_12  and  C_13
REMARK   12  A    between atoms: C_13  and  C_14
REMARK   13  A    between atoms: C_14  and  C_15
REMARK   14  A    between atoms: C_15  and  C_16
REMARK   15  A    between atoms: C_16  and  C_17
REMARK   16  A    between atoms: C_17  and  C_18
REMARK   17  A    between atoms: C_18  and  C_19
REMARK   18  A    between atoms: C_20  and  C_21
REMARK   19  A    between atoms: C_21  and  C_22
REMARK   20  A    between atoms: C_23  and  C_24
REMARK   21  A    between atoms: C_24  and  C_25
REMARK   22  A    between atoms: C_25  and  C_26
REMARK   23  A    between atoms: CA_29  and  C_30
REMARK                            x       y       z     vdW  Elec       q    Type
REMARK                         _______ _______ _______ _____ _____    ______ ____
ROOT
ATOM      1  C   UNL     1       1.427   8.212  21.676  0.00  0.00    +0.000 C 
ENDROOT
BRANCH   1   2
ATOM      2  C   UNL     1      -0.062   8.499  21.624  0.00  0.00    +0.000 C 
BRANCH   2   3
ATOM      3  C   UNL     1      -0.370   9.940  21.874  0.00  0.00    +0.000 C 
ATOM      4  C   UNL     1      -0.537  10.817  20.876  0.00  0.00    +0.000 C 
BRANCH   4   5
ATOM      5  C   UNL     1      -0.405  10.421  19.439  0.00  0.00    +0.000 C 
BRANCH   5   6
ATOM      6  C   UNL     1      -1.584  10.812  18.601  0.00  0.00    +0.000 C 
ATOM      7  C   UNL     1      -1.644  11.999  17.967  0.00  0.00    +0.000 C 
BRANCH   7   8
ATOM      8  C   UNL     1      -0.529  13.001  18.058  0.00  0.00    +0.000 C 
BRANCH   8   9
ATOM      9  C   UNL     1      -0.768  14.115  19.074  0.00  0.00    +0.000 C 
BRANCH   9  10
ATOM     10  C   UNL     1       0.192  15.244  18.851  0.00  0.00    +0.000 A 
ATOM     11  C   UNL     1      -0.050  16.599  18.756  0.00  0.00    +0.000 A 
ATOM     12  C   UNL     1       1.187  17.242  18.536  0.00  0.00    +0.000 A 
ATOM     13  CA  UNL     1       2.172  16.278  18.500  0.00  0.00    +0.000 A 
ATOM     14  N   UNL     1       1.552  15.051  18.686  0.00  0.00    +0.000 N 
ATOM     15  H   UNL     1       2.026  14.158  18.695  0.00  0.00    +0.000 HD
BRANCH  13  16
ATOM     16  C   UNL     1       3.583  16.498  18.306  0.00  0.00    +0.000 C 
ATOM     17  O   UNL     1       4.423  15.596  18.221  0.00  0.00    +0.000 OA
ENDBRANCH  13  16
ENDBRANCH   9  10
ENDBRANCH   8   9
ENDBRANCH   7   8
ENDBRANCH   5   6
ENDBRANCH   4   5
ENDBRANCH   2   3
ENDBRANCH   1   2
BRANCH   1  18
ATOM     18  C   UNL     1       1.832   7.335  20.502  0.00  0.00    +0.000 C 
BRANCH  18  19
ATOM     19  C   UNL     1       1.200   5.958  20.636  0.00  0.00    +0.000 C 
BRANCH  19  20
ATOM     20  C   UNL     1       2.244   4.931  21.008  0.00  0.00    +0.000 C 
BRANCH  20  21
ATOM     21  C   UNL     1       1.637   3.543  20.955  0.00  0.00    +0.000 C 
BRANCH  21  22
ATOM     22  C   UNL     1       2.656   2.562  20.409  0.00  0.00    +0.000 C 
BRANCH  22  23
ATOM     23  C   UNL     1       2.176   2.007  19.081  0.00  0.00    +0.000 C 
BRANCH  23  24
ATOM     24  C   UNL     1       3.051   2.531  17.958  0.00  0.00    +0.000 C 
BRANCH  24  25
ATOM     25  C   UNL     1       2.361   3.693  17.268  0.00  0.00    +0.000 C 
BRANCH  25  26
ATOM     26  C   UNL     1       3.060   4.992  17.624  0.00  0.00    +0.000 C 
BRANCH  26  27
ATOM     27  C   UNL     1       4.562   4.776  17.654  0.00  0.00    +0.000 C 
BRANCH  27  28
ATOM     28  C   UNL     1       5.123   4.859  16.247  0.00  0.00    +0.000 C 
BRANCH  28  29
ATOM     29  C   UNL     1       6.514   5.463  16.281  0.00  0.00    +0.000 C 
BRANCH  29  30
ATOM     30  C   UNL     1       6.485   6.790  17.014  0.00  0.00    +0.000 C 
BRANCH  30  31
ATOM     31  C   UNL     1       7.731   6.936  17.861  0.00  0.00    +0.000 C 
BRANCH  31  33
ATOM     32  N   UNL     1       7.550   5.263  20.075  0.00  0.00    +0.000 NA
ATOM     33  C   UNL     1       7.632   6.021  19.071  0.00  0.00    +0.000 C 
ENDBRANCH  31  33
ENDBRANCH  30  31
ENDBRANCH  29  30
ENDBRANCH  28  29
ENDBRANCH  27  28
ENDBRANCH  26  27
ENDBRANCH  25  26
ENDBRANCH  24  25
ENDBRANCH  23  24
ENDBRANCH  22  23
ENDBRANCH  21  22
ENDBRANCH  20  21
ENDBRANCH  19  20
ENDBRANCH  18  19
ENDBRANCH   1  18
TORSDOF 23
ENDMDL
