MODEL 1
REMARK VINA RESULT:      -8.2      0.000      0.000
REMARK  Name = 
REMARK  5 active torsions:
REMARK  status: ('A' for Active; 'I' for Inactive)
REMARK    1  A    between atoms: C_1  and  O_2
REMARK    2  A    between atoms: O_2  and  C_3
REMARK    3  A    between atoms: C_3  and  C_5
REMARK    4  A    between atoms: C_6  and  C_7
REMARK    5  A    between atoms: C_15  and  N_16
REMARK                            x       y       z     vdW  Elec       q    Type
REMARK                         _______ _______ _______ _____ _____    ______ ____
ROOT
ATOM      1  C   UNL     1       1.450   8.792  20.277  0.00  0.00    +0.000 A 
ATOM      2  C   UNL     1       1.130   9.664  19.155  0.00  0.00    +0.000 A 
ATOM      3  C   UNL     1       1.800   9.239  18.026  0.00  0.00    +0.000 A 
ATOM      4  S   UNL     1       2.624   7.775  18.253  0.00  0.00    +0.000 S 
ATOM      5  C   UNL     1       2.058   7.600  19.851  0.00  0.00    +0.000 A 
ENDROOT
BRANCH   5   6
ATOM      6  N   UNL     1       2.176   6.459  20.584  0.00  0.00    +0.000 N 
ATOM      7  C   UNL     1       2.037   5.102  20.410  0.00  0.00    +0.000 C 
ATOM      8  N   UNL     1       2.006   4.402  21.524  0.00  0.00    +0.000 NA
ATOM      9  S   UNL     1       2.259   2.813  21.211  0.00  0.00    +0.000 S 
ATOM     10  O   UNL     1       3.374   2.329  21.986  0.00  0.00    +0.000 OA
ATOM     11  O   UNL     1       1.003   2.122  21.075  0.00  0.00    +0.000 OA
ATOM     12  C   UNL     1       2.849   3.119  19.592  0.00  0.00    +0.000 A 
ATOM     13  C   UNL     1       3.583   2.281  18.783  0.00  0.00    +0.000 A 
ATOM     14  C   UNL     1       3.415   2.468  17.421  0.00  0.00    +0.000 A 
ATOM     15  C   UNL     1       2.447   3.383  16.969  0.00  0.00    +0.000 A 
ATOM     16  C   UNL     1       1.859   4.316  17.849  0.00  0.00    +0.000 A 
ATOM     17  C   UNL     1       2.227   4.278  19.177  0.00  0.00    +0.000 A 
ATOM     18  H   UNL     1       2.423   6.626  21.566  0.00  0.00    +0.000 HD
ENDBRANCH   5   6
BRANCH   2  19
ATOM     19  C   UNL     1       0.262  10.857  19.121  0.00  0.00    +0.000 A 
ATOM     20  C   UNL     1      -1.134  10.745  19.203  0.00  0.00    +0.000 A 
ATOM     21  C   UNL     1      -1.953  11.876  19.137  0.00  0.00    +0.000 A 
ATOM     22  C   UNL     1      -1.393  13.140  18.977  0.00  0.00    +0.000 A 
ATOM     23  C   UNL     1      -0.010  13.277  18.928  0.00  0.00    +0.000 A 
ATOM     24  C   UNL     1       0.812  12.147  19.024  0.00  0.00    +0.000 A 
ENDBRANCH   2  19
BRANCH   1  25
ATOM     25  C   UNL     1       1.166   9.077  21.689  0.00  0.00    +0.000 C 
ATOM     26  O   UNL     1       2.006   9.489  22.481  0.00  0.00    +0.000 OA
BRANCH  25  28
ATOM     27  C   UNL     1      -0.716   9.770  22.978  0.00  0.00    +0.000 C 
ATOM     28  O   UNL     1      -0.159   8.920  21.975  0.00  0.00    +0.000 OA
ENDBRANCH  25  28
ENDBRANCH   1  25
TORSDOF 4
ENDMDL
MODEL 2
REMARK VINA RESULT:      -8.1      0.682      1.134
REMARK  Name = 
REMARK  5 active torsions:
REMARK  status: ('A' for Active; 'I' for Inactive)
REMARK    1  A    between atoms: C_1  and  O_2
REMARK    2  A    between atoms: O_2  and  C_3
REMARK    3  A    between atoms: C_3  and  C_5
REMARK    4  A    between atoms: C_6  and  C_7
REMARK    5  A    between atoms: C_15  and  N_16
REMARK                            x       y       z     vdW  Elec       q    Type
REMARK                         _______ _______ _______ _____ _____    ______ ____
ROOT
ATOM      1  C   UNL     1       1.219   9.011  20.618  0.00  0.00    +0.000 A 
ATOM      2  C   UNL     1       0.906   9.999  19.595  0.00  0.00    +0.000 A 
ATOM      3  C   UNL     1       1.503   9.644  18.402  0.00  0.00    +0.000 A 
ATOM      4  S   UNL     1       2.249   8.122  18.458  0.00  0.00    +0.000 S 
ATOM      5  C   UNL     1       1.738   7.832  20.059  0.00  0.00    +0.000 A 
ENDROOT
BRANCH   5   6
ATOM      6  N   UNL     1       1.818   6.622  20.679  0.00  0.00    +0.000 N 
ATOM      7  C   UNL     1       1.891   5.291  20.341  0.00  0.00    +0.000 C 
ATOM      8  N   UNL     1       1.683   4.457  21.337  0.00  0.00    +0.000 NA
ATOM      9  S   UNL     1       2.194   2.951  20.938  0.00  0.00    +0.000 S 
ATOM     10  O   UNL     1       3.145   2.479  21.913  0.00  0.00    +0.000 OA
ATOM     11  O   UNL     1       1.099   2.168  20.426  0.00  0.00    +0.000 OA
ATOM     12  C   UNL     1       3.108   3.514  19.555  0.00  0.00    +0.000 A 
ATOM     13  C   UNL     1       4.108   2.858  18.875  0.00  0.00    +0.000 A 
ATOM     14  C   UNL     1       4.245   3.199  17.539  0.00  0.00    +0.000 A 
ATOM     15  C   UNL     1       3.306   4.070  16.955  0.00  0.00    +0.000 A 
ATOM     16  C   UNL     1       2.419   4.824  17.751  0.00  0.00    +0.000 A 
ATOM     17  C   UNL     1       2.465   4.653  19.117  0.00  0.00    +0.000 A 
ATOM     18  H   UNL     1       1.805   6.686  21.703  0.00  0.00    +0.000 HD
ENDBRANCH   5   6
BRANCH   2  19
ATOM     19  C   UNL     1       0.109  11.235  19.708  0.00  0.00    +0.000 A 
ATOM     20  C   UNL     1       0.712  12.466  20.007  0.00  0.00    +0.000 A 
ATOM     21  C   UNL     1      -0.052  13.629  20.145  0.00  0.00    +0.000 A 
ATOM     22  C   UNL     1      -1.435  13.582  19.997  0.00  0.00    +0.000 A 
ATOM     23  C   UNL     1      -2.050  12.380  19.666  0.00  0.00    +0.000 A 
ATOM     24  C   UNL     1      -1.281  11.220  19.498  0.00  0.00    +0.000 A 
ENDBRANCH   2  19
BRANCH   1  25
ATOM     25  C   UNL     1       1.009   9.178  22.061  0.00  0.00    +0.000 C 
ATOM     26  O   UNL     1       1.906   9.459  22.850  0.00  0.00    +0.000 OA
BRANCH  25  28
ATOM     27  C   UNL     1      -0.877  10.152  23.145  0.00  0.00    +0.000 C 
ATOM     28  O   UNL     1      -0.311   9.081  22.390  0.00  0.00    +0.000 OA
ENDBRANCH  25  28
ENDBRANCH   1  25
TORSDOF 4
ENDMDL
MODEL 3
REMARK VINA RESULT:      -8.0      0.774      1.277
REMARK  Name = 
REMARK  5 active torsions:
REMARK  status: ('A' for Active; 'I' for Inactive)
REMARK    1  A    between atoms: C_1  and  O_2
REMARK    2  A    between atoms: O_2  and  C_3
REMARK    3  A    between atoms: C_3  and  C_5
REMARK    4  A    between atoms: C_6  and  C_7
REMARK    5  A    between atoms: C_15  and  N_16
REMARK                            x       y       z     vdW  Elec       q    Type
REMARK                         _______ _______ _______ _____ _____    ______ ____
ROOT
ATOM      1  C   UNL     1       1.154   8.601  19.936  0.00  0.00    +0.000 A 
ATOM      2  C   UNL     1       0.947   9.405  18.739  0.00  0.00    +0.000 A 
ATOM      3  C   UNL     1       1.934   9.130  17.814  0.00  0.00    +0.000 A 
ATOM      4  S   UNL     1       2.946   7.852  18.281  0.00  0.00    +0.000 S 
ATOM      5  C   UNL     1       2.062   7.555  19.708  0.00  0.00    +0.000 A 
ENDROOT
BRANCH   5   6
ATOM      6  N   UNL     1       2.219   6.450  20.488  0.00  0.00    +0.000 N 
ATOM      7  C   UNL     1       2.046   5.089  20.399  0.00  0.00    +0.000 C 
ATOM      8  N   UNL     1       2.091   4.449  21.547  0.00  0.00    +0.000 NA
ATOM      9  S   UNL     1       2.294   2.841  21.300  0.00  0.00    +0.000 S 
ATOM     10  O   UNL     1       3.459   2.376  22.010  0.00  0.00    +0.000 OA
ATOM     11  O   UNL     1       1.020   2.170  21.300  0.00  0.00    +0.000 OA
ATOM     12  C   UNL     1       2.759   3.052  19.625  0.00  0.00    +0.000 A 
ATOM     13  C   UNL     1       3.413   2.158  18.808  0.00  0.00    +0.000 A 
ATOM     14  C   UNL     1       3.141   2.277  17.454  0.00  0.00    +0.000 A 
ATOM     15  C   UNL     1       2.154   3.187  17.031  0.00  0.00    +0.000 A 
ATOM     16  C   UNL     1       1.653   4.176  17.905  0.00  0.00    +0.000 A 
ATOM     17  C   UNL     1       2.124   4.199  19.199  0.00  0.00    +0.000 A 
ATOM     18  H   UNL     1       2.546   6.663  21.438  0.00  0.00    +0.000 HD
ENDBRANCH   5   6
BRANCH   2  19
ATOM     19  C   UNL     1      -0.100  10.407  18.460  0.00  0.00    +0.000 A 
ATOM     20  C   UNL     1       0.035  11.738  18.879  0.00  0.00    +0.000 A 
ATOM     21  C   UNL     1      -0.975  12.676  18.640  0.00  0.00    +0.000 A 
ATOM     22  C   UNL     1      -2.143  12.298  17.985  0.00  0.00    +0.000 A 
ATOM     23  C   UNL     1      -2.283  10.991  17.530  0.00  0.00    +0.000 A 
ATOM     24  C   UNL     1      -1.258  10.059  17.744  0.00  0.00    +0.000 A 
ENDBRANCH   2  19
BRANCH   1  25
ATOM     25  C   UNL     1       0.494   8.811  21.231  0.00  0.00    +0.000 C 
ATOM     26  O   UNL     1      -0.284   8.007  21.734  0.00  0.00    +0.000 OA
BRANCH  25  28
ATOM     27  C   UNL     1      -0.058  10.819  22.390  0.00  0.00    +0.000 C 
ATOM     28  O   UNL     1       0.932   9.951  21.838  0.00  0.00    +0.000 OA
ENDBRANCH  25  28
ENDBRANCH   1  25
TORSDOF 4
ENDMDL
MODEL 4
REMARK VINA RESULT:      -7.9      2.530      3.409
REMARK  Name = 
REMARK  5 active torsions:
REMARK  status: ('A' for Active; 'I' for Inactive)
REMARK    1  A    between atoms: C_1  and  O_2
REMARK    2  A    between atoms: O_2  and  C_3
REMARK    3  A    between atoms: C_3  and  C_5
REMARK    4  A    between atoms: C_6  and  C_7
REMARK    5  A    between atoms: C_15  and  N_16
REMARK                            x       y       z     vdW  Elec       q    Type
REMARK                         _______ _______ _______ _____ _____    ______ ____
ROOT
ATOM      1  C   UNL     1       0.906   9.410  19.554  0.00  0.00    +0.000 A 
ATOM      2  C   UNL     1       0.323  10.182  20.644  0.00  0.00    +0.000 A 
ATOM      3  C   UNL     1       0.317   9.428  21.800  0.00  0.00    +0.000 A 
ATOM      4  S   UNL     1       1.125   7.947  21.633  0.00  0.00    +0.000 S 
ATOM      5  C   UNL     1       1.590   8.279  20.027  0.00  0.00    +0.000 A 
ENDROOT
BRANCH   5   6
ATOM      6  N   UNL     1       2.504   7.550  19.330  0.00  0.00    +0.000 N 
ATOM      7  C   UNL     1       2.943   6.249  19.248  0.00  0.00    +0.000 C 
ATOM      8  N   UNL     1       4.066   6.086  18.582  0.00  0.00    +0.000 NA
ATOM      9  S   UNL     1       4.275   4.508  18.189  0.00  0.00    +0.000 S 
ATOM     10  O   UNL     1       4.449   4.373  16.765  0.00  0.00    +0.000 OA
ATOM     11  O   UNL     1       5.093   3.849  19.174  0.00  0.00    +0.000 OA
ATOM     12  C   UNL     1       2.612   4.091  18.548  0.00  0.00    +0.000 A 
ATOM     13  C   UNL     1       1.912   2.975  18.148  0.00  0.00    +0.000 A 
ATOM     14  C   UNL     1       0.894   2.574  18.998  0.00  0.00    +0.000 A 
ATOM     15  C   UNL     1       0.729   3.233  20.230  0.00  0.00    +0.000 A 
ATOM     16  C   UNL     1       1.372   4.462  20.490  0.00  0.00    +0.000 A 
ATOM     17  C   UNL     1       2.203   4.979  19.520  0.00  0.00    +0.000 A 
ATOM     18  H   UNL     1       3.061   8.110  18.674  0.00  0.00    +0.000 HD
ENDBRANCH   5   6
BRANCH   2  19
ATOM     19  C   UNL     1      -0.229  11.550  20.624  0.00  0.00    +0.000 A 
ATOM     20  C   UNL     1       0.552  12.656  20.989  0.00  0.00    +0.000 A 
ATOM     21  C   UNL     1       0.014  13.947  21.000  0.00  0.00    +0.000 A 
ATOM     22  C   UNL     1      -1.319  14.155  20.657  0.00  0.00    +0.000 A 
ATOM     23  C   UNL     1      -2.102  13.076  20.259  0.00  0.00    +0.000 A 
ATOM     24  C   UNL     1      -1.554  11.787  20.219  0.00  0.00    +0.000 A 
ENDBRANCH   2  19
BRANCH   1  25
ATOM     25  C   UNL     1       0.831   9.753  18.128  0.00  0.00    +0.000 C 
ATOM     26  O   UNL     1      -0.213   9.753  17.484  0.00  0.00    +0.000 OA
BRANCH  25  28
ATOM     27  C   UNL     1       2.432  11.506  17.920  0.00  0.00    +0.000 C 
ATOM     28  O   UNL     1       2.039  10.161  17.647  0.00  0.00    +0.000 OA
ENDBRANCH  25  28
ENDBRANCH   1  25
TORSDOF 4
ENDMDL
MODEL 5
REMARK VINA RESULT:      -7.7      2.566      3.214
REMARK  Name = 
REMARK  5 active torsions:
REMARK  status: ('A' for Active; 'I' for Inactive)
REMARK    1  A    between atoms: C_1  and  O_2
REMARK    2  A    between atoms: O_2  and  C_3
REMARK    3  A    between atoms: C_3  and  C_5
REMARK    4  A    between atoms: C_6  and  C_7
REMARK    5  A    between atoms: C_15  and  N_16
REMARK                            x       y       z     vdW  Elec       q    Type
REMARK                         _______ _______ _______ _____ _____    ______ ____
ROOT
ATOM      1  C   UNL     1       1.013   9.440  19.610  0.00  0.00    +0.000 A 
ATOM      2  C   UNL     1       0.420  10.153  20.733  0.00  0.00    +0.000 A 
ATOM      3  C   UNL     1       0.304   9.305  21.817  0.00  0.00    +0.000 A 
ATOM      4  S   UNL     1       1.027   7.793  21.560  0.00  0.00    +0.000 S 
ATOM      5  C   UNL     1       1.599   8.229  20.014  0.00  0.00    +0.000 A 
ENDROOT
BRANCH   5   6
ATOM      6  N   UNL     1       2.504   7.504  19.301  0.00  0.00    +0.000 N 
ATOM      7  C   UNL     1       2.943   6.204  19.209  0.00  0.00    +0.000 C 
ATOM      8  N   UNL     1       4.056   6.043  18.525  0.00  0.00    +0.000 NA
ATOM      9  S   UNL     1       4.260   4.467  18.124  0.00  0.00    +0.000 S 
ATOM     10  O   UNL     1       4.414   4.338  16.697  0.00  0.00    +0.000 OA
ATOM     11  O   UNL     1       5.094   3.807  19.095  0.00  0.00    +0.000 OA
ATOM     12  C   UNL     1       2.604   4.047  18.506  0.00  0.00    +0.000 A 
ATOM     13  C   UNL     1       1.899   2.932  18.113  0.00  0.00    +0.000 A 
ATOM     14  C   UNL     1       0.894   2.527  18.977  0.00  0.00    +0.000 A 
ATOM     15  C   UNL     1       0.747   3.182  20.214  0.00  0.00    +0.000 A 
ATOM     16  C   UNL     1       1.392   4.410  20.468  0.00  0.00    +0.000 A 
ATOM     17  C   UNL     1       2.208   4.932  19.487  0.00  0.00    +0.000 A 
ATOM     18  H   UNL     1       3.050   8.067  18.638  0.00  0.00    +0.000 HD
ENDBRANCH   5   6
BRANCH   2  19
ATOM     19  C   UNL     1      -0.045  11.550  20.808  0.00  0.00    +0.000 A 
ATOM     20  C   UNL     1      -1.412  11.860  20.874  0.00  0.00    +0.000 A 
ATOM     21  C   UNL     1      -1.849  13.188  20.911  0.00  0.00    +0.000 A 
ATOM     22  C   UNL     1      -0.929  14.232  20.873  0.00  0.00    +0.000 A 
ATOM     23  C   UNL     1       0.432  13.947  20.842  0.00  0.00    +0.000 A 
ATOM     24  C   UNL     1       0.871  12.616  20.834  0.00  0.00    +0.000 A 
ENDBRANCH   2  19
BRANCH   1  25
ATOM     25  C   UNL     1       1.037   9.906  18.218  0.00  0.00    +0.000 C 
ATOM     26  O   UNL     1       1.934   9.635  17.426  0.00  0.00    +0.000 OA
BRANCH  25  28
ATOM     27  C   UNL     1      -1.239   9.812  17.518  0.00  0.00    +0.000 C 
ATOM     28  O   UNL     1      -0.101  10.586  17.897  0.00  0.00    +0.000 OA
ENDBRANCH  25  28
ENDBRANCH   1  25
TORSDOF 4
ENDMDL
MODEL 6
REMARK VINA RESULT:      -7.6      5.210      9.457
REMARK  Name = 
REMARK  5 active torsions:
REMARK  status: ('A' for Active; 'I' for Inactive)
REMARK    1  A    between atoms: C_1  and  O_2
REMARK    2  A    between atoms: O_2  and  C_3
REMARK    3  A    between atoms: C_3  and  C_5
REMARK    4  A    between atoms: C_6  and  C_7
REMARK    5  A    between atoms: C_15  and  N_16
REMARK                            x       y       z     vdW  Elec       q    Type
REMARK                         _______ _______ _______ _____ _____    ______ ____
ROOT
ATOM      1  C   UNL     1      -1.510  11.025  18.679  0.00  0.00    +0.000 A 
ATOM      2  C   UNL     1      -0.113  10.925  19.078  0.00  0.00    +0.000 A 
ATOM      3  C   UNL     1       0.320  12.137  19.578  0.00  0.00    +0.000 A 
ATOM      4  S   UNL     1      -0.926  13.278  19.727  0.00  0.00    +0.000 S 
ATOM      5  C   UNL     1      -2.118  12.177  19.204  0.00  0.00    +0.000 A 
ENDROOT
BRANCH   5   6
ATOM      6  N   UNL     1      -3.458  12.397  19.303  0.00  0.00    +0.000 N 
ATOM      7  C   UNL     1      -4.428  12.441  20.277  0.00  0.00    +0.000 C 
ATOM      8  N   UNL     1      -5.664  12.436  19.826  0.00  0.00    +0.000 NA
ATOM      9  S   UNL     1      -6.705  12.905  21.003  0.00  0.00    +0.000 S 
ATOM     10  O   UNL     1      -7.488  14.027  20.550  0.00  0.00    +0.000 OA
ATOM     11  O   UNL     1      -7.247  11.756  21.680  0.00  0.00    +0.000 OA
ATOM     12  C   UNL     1      -5.431  13.541  22.021  0.00  0.00    +0.000 A 
ATOM     13  C   UNL     1      -5.545  14.419  23.076  0.00  0.00    +0.000 A 
ATOM     14  C   UNL     1      -4.572  14.304  24.056  0.00  0.00    +0.000 A 
ATOM     15  C   UNL     1      -3.639  13.255  23.976  0.00  0.00    +0.000 A 
ATOM     16  C   UNL     1      -3.484  12.506  22.789  0.00  0.00    +0.000 A 
ATOM     17  C   UNL     1      -4.306  12.802  21.723  0.00  0.00    +0.000 A 
ATOM     18  H   UNL     1      -3.914  12.567  18.399  0.00  0.00    +0.000 HD
ENDBRANCH   5   6
BRANCH   2  19
ATOM     19  C   UNL     1       0.802   9.772  18.984  0.00  0.00    +0.000 A 
ATOM     20  C   UNL     1       1.471   9.467  17.789  0.00  0.00    +0.000 A 
ATOM     21  C   UNL     1       2.311   8.353  17.696  0.00  0.00    +0.000 A 
ATOM     22  C   UNL     1       2.492   7.517  18.794  0.00  0.00    +0.000 A 
ATOM     23  C   UNL     1       1.866   7.819  19.998  0.00  0.00    +0.000 A 
ATOM     24  C   UNL     1       1.047   8.952  20.100  0.00  0.00    +0.000 A 
ENDBRANCH   2  19
BRANCH   1  25
ATOM     25  C   UNL     1      -2.236  10.051  17.854  0.00  0.00    +0.000 C 
ATOM     26  O   UNL     1      -3.167   9.369  18.270  0.00  0.00    +0.000 OA
BRANCH  25  28
ATOM     27  C   UNL     1      -2.734  10.546  15.577  0.00  0.00    +0.000 C 
ATOM     28  O   UNL     1      -1.811  10.076  16.559  0.00  0.00    +0.000 OA
ENDBRANCH  25  28
ENDBRANCH   1  25
TORSDOF 4
ENDMDL
MODEL 7
REMARK VINA RESULT:      -7.5      2.306      2.543
REMARK  Name = 
REMARK  5 active torsions:
REMARK  status: ('A' for Active; 'I' for Inactive)
REMARK    1  A    between atoms: C_1  and  O_2
REMARK    2  A    between atoms: O_2  and  C_3
REMARK    3  A    between atoms: C_3  and  C_5
REMARK    4  A    between atoms: C_6  and  C_7
REMARK    5  A    between atoms: C_15  and  N_16
REMARK                            x       y       z     vdW  Elec       q    Type
REMARK                         _______ _______ _______ _____ _____    ______ ____
ROOT
ATOM      1  C   UNL     1       1.335   8.600  19.748  0.00  0.00    +0.000 A 
ATOM      2  C   UNL     1       0.887   9.737  18.955  0.00  0.00    +0.000 A 
ATOM      3  C   UNL     1       1.715   9.900  17.862  0.00  0.00    +0.000 A 
ATOM      4  S   UNL     1       2.856   8.656  17.700  0.00  0.00    +0.000 S 
ATOM      5  C   UNL     1       2.244   7.798  19.039  0.00  0.00    +0.000 A 
ENDROOT
BRANCH   5   6
ATOM      6  N   UNL     1       2.587   6.517  19.348  0.00  0.00    +0.000 N 
ATOM      7  C   UNL     1       3.275   5.468  18.786  0.00  0.00    +0.000 C 
ATOM      8  N   UNL     1       3.106   4.310  19.387  0.00  0.00    +0.000 NA
ATOM      9  S   UNL     1       4.260   3.245  18.917  0.00  0.00    +0.000 S 
ATOM     10  O   UNL     1       4.959   2.735  20.069  0.00  0.00    +0.000 OA
ATOM     11  O   UNL     1       3.779   2.431  17.831  0.00  0.00    +0.000 OA
ATOM     12  C   UNL     1       5.268   4.491  18.211  0.00  0.00    +0.000 A 
ATOM     13  C   UNL     1       6.604   4.419  17.887  0.00  0.00    +0.000 A 
ATOM     14  C   UNL     1       7.011   5.238  16.846  0.00  0.00    +0.000 A 
ATOM     15  C   UNL     1       6.044   5.969  16.131  0.00  0.00    +0.000 A 
ATOM     16  C   UNL     1       4.731   6.118  16.626  0.00  0.00    +0.000 A 
ATOM     17  C   UNL     1       4.407   5.490  17.809  0.00  0.00    +0.000 A 
ATOM     18  H   UNL     1       2.228   6.205  20.258  0.00  0.00    +0.000 HD
ENDBRANCH   5   6
BRANCH   2  19
ATOM     19  C   UNL     1      -0.242  10.655  19.198  0.00  0.00    +0.000 A 
ATOM     20  C   UNL     1      -0.139  11.708  20.118  0.00  0.00    +0.000 A 
ATOM     21  C   UNL     1      -1.223  12.556  20.369  0.00  0.00    +0.000 A 
ATOM     22  C   UNL     1      -2.434  12.360  19.711  0.00  0.00    +0.000 A 
ATOM     23  C   UNL     1      -2.547  11.343  18.769  0.00  0.00    +0.000 A 
ATOM     24  C   UNL     1      -1.452  10.512  18.497  0.00  0.00    +0.000 A 
ENDBRANCH   2  19
BRANCH   1  25
ATOM     25  C   UNL     1       0.896   8.284  21.113  0.00  0.00    +0.000 C 
ATOM     26  O   UNL     1       0.355   7.228  21.425  0.00  0.00    +0.000 OA
BRANCH  25  28
ATOM     27  C   UNL     1       0.353   9.535  23.068  0.00  0.00    +0.000 C 
ATOM     28  O   UNL     1       1.253   9.262  21.994  0.00  0.00    +0.000 OA
ENDBRANCH  25  28
ENDBRANCH   1  25
TORSDOF 4
ENDMDL
MODEL 8
REMARK VINA RESULT:      -7.1      2.356      2.528
REMARK  Name = 
REMARK  5 active torsions:
REMARK  status: ('A' for Active; 'I' for Inactive)
REMARK    1  A    between atoms: C_1  and  O_2
REMARK    2  A    between atoms: O_2  and  C_3
REMARK    3  A    between atoms: C_3  and  C_5
REMARK    4  A    between atoms: C_6  and  C_7
REMARK    5  A    between atoms: C_15  and  N_16
REMARK                            x       y       z     vdW  Elec       q    Type
REMARK                         _______ _______ _______ _____ _____    ______ ____
ROOT
ATOM      1  C   UNL     1       1.088   9.243  20.179  0.00  0.00    +0.000 A 
ATOM      2  C   UNL     1       0.612  10.443  19.505  0.00  0.00    +0.000 A 
ATOM      3  C   UNL     1       1.167  10.523  18.244  0.00  0.00    +0.000 A 
ATOM      4  S   UNL     1       2.066   9.149  17.824  0.00  0.00    +0.000 S 
ATOM      5  C   UNL     1       1.689   8.346  19.280  0.00  0.00    +0.000 A 
ENDROOT
BRANCH   5   6
ATOM      6  N   UNL     1       1.930   7.027  19.510  0.00  0.00    +0.000 N 
ATOM      7  C   UNL     1       2.711   6.015  19.003  0.00  0.00    +0.000 C 
ATOM      8  N   UNL     1       2.388   4.808  19.413  0.00  0.00    +0.000 NA
ATOM      9  S   UNL     1       3.601   3.751  19.099  0.00  0.00    +0.000 S 
ATOM     10  O   UNL     1       4.006   3.090  20.314  0.00  0.00    +0.000 OA
ATOM     11  O   UNL     1       3.371   3.080  17.846  0.00  0.00    +0.000 OA
ATOM     12  C   UNL     1       4.766   5.021  18.789  0.00  0.00    +0.000 A 
ATOM     13  C   UNL     1       6.140   4.927  18.773  0.00  0.00    +0.000 A 
ATOM     14  C   UNL     1       6.790   5.835  17.953  0.00  0.00    +0.000 A 
ATOM     15  C   UNL     1       6.028   6.680  17.125  0.00  0.00    +0.000 A 
ATOM     16  C   UNL     1       4.639   6.831  17.321  0.00  0.00    +0.000 A 
ATOM     17  C   UNL     1       4.039   6.093  18.319  0.00  0.00    +0.000 A 
ATOM     18  H   UNL     1       1.364   6.633  20.272  0.00  0.00    +0.000 HD
ENDBRANCH   5   6
BRANCH   2  19
ATOM     19  C   UNL     1      -0.298  11.491  20.004  0.00  0.00    +0.000 A 
ATOM     20  C   UNL     1       0.149  12.485  20.887  0.00  0.00    +0.000 A 
ATOM     21  C   UNL     1      -0.726  13.458  21.382  0.00  0.00    +0.000 A 
ATOM     22  C   UNL     1      -2.067  13.449  21.012  0.00  0.00    +0.000 A 
ATOM     23  C   UNL     1      -2.525  12.493  20.110  0.00  0.00    +0.000 A 
ATOM     24  C   UNL     1      -1.641  11.537  19.591  0.00  0.00    +0.000 A 
ENDBRANCH   2  19
BRANCH   1  25
ATOM     25  C   UNL     1       0.952   8.956  21.613  0.00  0.00    +0.000 C 
ATOM     26  O   UNL     1       1.906   8.841  22.375  0.00  0.00    +0.000 OA
BRANCH  25  28
ATOM     27  C   UNL     1      -0.708   9.684  23.160  0.00  0.00    +0.000 C 
ATOM     28  O   UNL     1      -0.356   8.934  21.998  0.00  0.00    +0.000 OA
ENDBRANCH  25  28
ENDBRANCH   1  25
TORSDOF 4
ENDMDL
MODEL 9
REMARK VINA RESULT:      -7.1      2.906      3.656
REMARK  Name = 
REMARK  5 active torsions:
REMARK  status: ('A' for Active; 'I' for Inactive)
REMARK    1  A    between atoms: C_1  and  O_2
REMARK    2  A    between atoms: O_2  and  C_3
REMARK    3  A    between atoms: C_3  and  C_5
REMARK    4  A    between atoms: C_6  and  C_7
REMARK    5  A    between atoms: C_15  and  N_16
REMARK                            x       y       z     vdW  Elec       q    Type
REMARK                         _______ _______ _______ _____ _____    ______ ____
ROOT
ATOM      1  C   UNL     1       1.440   8.852  19.363  0.00  0.00    +0.000 A 
ATOM      2  C   UNL     1       0.982   9.217  20.696  0.00  0.00    +0.000 A 
ATOM      3  C   UNL     1       1.044   8.118  21.529  0.00  0.00    +0.000 A 
ATOM      4  S   UNL     1       1.778   6.773  20.803  0.00  0.00    +0.000 S 
ATOM      5  C   UNL     1       2.119   7.623  19.365  0.00  0.00    +0.000 A 
ENDROOT
BRANCH   5   6
ATOM      6  N   UNL     1       2.942   7.164  18.383  0.00  0.00    +0.000 N 
ATOM      7  C   UNL     1       3.756   6.083  18.139  0.00  0.00    +0.000 C 
ATOM      8  N   UNL     1       4.574   6.226  17.118  0.00  0.00    +0.000 NA
ATOM      9  S   UNL     1       5.181   4.773  16.661  0.00  0.00    +0.000 S 
ATOM     10  O   UNL     1       4.905   4.541  15.265  0.00  0.00    +0.000 OA
ATOM     11  O   UNL     1       6.456   4.542  17.288  0.00  0.00    +0.000 OA
ATOM     12  C   UNL     1       3.992   3.872  17.578  0.00  0.00    +0.000 A 
ATOM     13  C   UNL     1       3.638   2.549  17.440  0.00  0.00    +0.000 A 
ATOM     14  C   UNL     1       3.172   1.932  18.590  0.00  0.00    +0.000 A 
ATOM     15  C   UNL     1       3.207   2.636  19.808  0.00  0.00    +0.000 A 
ATOM     16  C   UNL     1       3.424   4.030  19.837  0.00  0.00    +0.000 A 
ATOM     17  C   UNL     1       3.646   4.679  18.641  0.00  0.00    +0.000 A 
ATOM     18  H   UNL     1       3.013   7.798  17.578  0.00  0.00    +0.000 HD
ENDBRANCH   5   6
BRANCH   2  19
ATOM     19  C   UNL     1       0.482  10.516  21.186  0.00  0.00    +0.000 A 
ATOM     20  C   UNL     1      -0.557  10.589  22.125  0.00  0.00    +0.000 A 
ATOM     21  C   UNL     1      -1.050  11.823  22.562  0.00  0.00    +0.000 A 
ATOM     22  C   UNL     1      -0.518  13.008  22.060  0.00  0.00    +0.000 A 
ATOM     23  C   UNL     1       0.536  12.958  21.154  0.00  0.00    +0.000 A 
ATOM     24  C   UNL     1       1.049  11.722  20.740  0.00  0.00    +0.000 A 
ENDBRANCH   2  19
BRANCH   1  25
ATOM     25  C   UNL     1       1.258   9.655  18.147  0.00  0.00    +0.000 C 
ATOM     26  O   UNL     1       2.155  10.308  17.623  0.00  0.00    +0.000 OA
BRANCH  25  28
ATOM     27  C   UNL     1      -0.952  10.518  17.918  0.00  0.00    +0.000 C 
ATOM     28  O   UNL     1       0.006   9.501  17.627  0.00  0.00    +0.000 OA
ENDBRANCH  25  28
ENDBRANCH   1  25
TORSDOF 4
ENDMDL
