MODEL 1
REMARK VINA RESULT:      -8.2      0.000      0.000
REMARK  Name = 
REMARK  3 active torsions:
REMARK  status: ('A' for Active; 'I' for Inactive)
REMARK    1  A    between atoms: C_1  and  C_2
REMARK    2  A    between atoms: C_4  and  C_5
REMARK    3  A    between atoms: N_14  and  C_15
REMARK                            x       y       z     vdW  Elec       q    Type
REMARK                         _______ _______ _______ _____ _____    ______ ____
ROOT
ATOM      1  C   UNL     1       2.188   9.073  17.937  0.00  0.00    +0.000 C 
ATOM      2  C   UNL     1       2.770   7.698  18.081  0.00  0.00    +0.000 A 
ATOM      3  C   UNL     1       3.715   7.214  17.167  0.00  0.00    +0.000 A 
ATOM      4  C   UNL     1       4.297   5.925  17.276  0.00  0.00    +0.000 A 
ATOM      5  C   UNL     1       3.883   5.111  18.359  0.00  0.00    +0.000 A 
ATOM      6  N   UNL     1       4.436   3.826  18.532  0.00  0.00    +0.000 NA
ATOM      7  C   UNL     1       4.015   3.087  19.498  0.00  0.00    +0.000 A 
ATOM      8  N   UNL     1       3.069   3.460  20.414  0.00  0.00    +0.000 N 
ATOM      9  C   UNL     1       2.677   2.557  21.474  0.00  0.00    +0.000 C 
ATOM     10  C   UNL     1       2.483   4.713  20.363  0.00  0.00    +0.000 A 
ATOM     11  O   UNL     1       1.642   5.105  21.173  0.00  0.00    +0.000 OA
ATOM     12  C   UNL     1       2.921   5.595  19.260  0.00  0.00    +0.000 A 
ATOM     13  C   UNL     1       2.370   6.874  19.130  0.00  0.00    +0.000 A 
ENDROOT
BRANCH   4  14
ATOM     14  C   UNL     1       5.287   5.484  16.252  0.00  0.00    +0.000 A 
ATOM     15  C   UNL     1       4.935   4.626  15.195  0.00  0.00    +0.000 A 
ATOM     16  C   UNL     1       5.891   4.179  14.280  0.00  0.00    +0.000 A 
ATOM     17  C   UNL     1       7.192   4.618  14.423  0.00  0.00    +0.000 A 
ATOM     18  N   UNL     1       7.589   5.450  15.402  0.00  0.00    +0.000 NA
ATOM     19  C   UNL     1       6.636   5.855  16.283  0.00  0.00    +0.000 A 
ENDBRANCH   4  14
TORSDOF 1
ENDMDL
MODEL 2
REMARK VINA RESULT:      -7.8      2.048      5.302
REMARK  Name = 
REMARK  3 active torsions:
REMARK  status: ('A' for Active; 'I' for Inactive)
REMARK    1  A    between atoms: C_1  and  C_2
REMARK    2  A    between atoms: C_4  and  C_5
REMARK    3  A    between atoms: N_14  and  C_15
REMARK                            x       y       z     vdW  Elec       q    Type
REMARK                         _______ _______ _______ _____ _____    ______ ____
ROOT
ATOM      1  C   UNL     1       2.042   9.222  18.192  0.00  0.00    +0.000 C 
ATOM      2  C   UNL     1       2.623   7.845  18.070  0.00  0.00    +0.000 A 
ATOM      3  C   UNL     1       2.212   6.809  18.919  0.00  0.00    +0.000 A 
ATOM      4  C   UNL     1       2.729   5.491  18.827  0.00  0.00    +0.000 A 
ATOM      5  C   UNL     1       3.705   5.240  17.831  0.00  0.00    +0.000 A 
ATOM      6  N   UNL     1       4.246   3.948  17.677  0.00  0.00    +0.000 NA
ATOM      7  C   UNL     1       5.161   3.752  16.794  0.00  0.00    +0.000 A 
ATOM      8  N   UNL     1       5.651   4.711  15.949  0.00  0.00    +0.000 N 
ATOM      9  C   UNL     1       6.671   4.381  14.977  0.00  0.00    +0.000 C 
ATOM     10  C   UNL     1       5.168   6.007  15.985  0.00  0.00    +0.000 A 
ATOM     11  O   UNL     1       5.560   6.902  15.235  0.00  0.00    +0.000 OA
ATOM     12  C   UNL     1       4.126   6.288  16.996  0.00  0.00    +0.000 A 
ATOM     13  C   UNL     1       3.592   7.576  17.107  0.00  0.00    +0.000 A 
ENDROOT
BRANCH   4  14
ATOM     14  C   UNL     1       2.245   4.451  19.780  0.00  0.00    +0.000 A 
ATOM     15  C   UNL     1       1.273   3.502  19.418  0.00  0.00    +0.000 A 
ATOM     16  C   UNL     1       0.792   2.574  20.343  0.00  0.00    +0.000 A 
ATOM     17  C   UNL     1       1.310   2.593  21.622  0.00  0.00    +0.000 A 
ATOM     18  N   UNL     1       2.251   3.464  22.027  0.00  0.00    +0.000 NA
ATOM     19  C   UNL     1       2.687   4.363  21.104  0.00  0.00    +0.000 A 
ENDBRANCH   4  14
TORSDOF 1
ENDMDL
MODEL 3
REMARK VINA RESULT:      -7.5      1.592      3.445
REMARK  Name = 
REMARK  3 active torsions:
REMARK  status: ('A' for Active; 'I' for Inactive)
REMARK    1  A    between atoms: C_1  and  C_2
REMARK    2  A    between atoms: C_4  and  C_5
REMARK    3  A    between atoms: N_14  and  C_15
REMARK                            x       y       z     vdW  Elec       q    Type
REMARK                         _______ _______ _______ _____ _____    ______ ____
ROOT
ATOM      1  C   UNL     1       3.915   2.286  20.527  0.00  0.00    +0.000 C 
ATOM      2  C   UNL     1       3.871   3.535  19.698  0.00  0.00    +0.000 A 
ATOM      3  C   UNL     1       4.637   3.654  18.530  0.00  0.00    +0.000 A 
ATOM      4  C   UNL     1       4.614   4.812  17.713  0.00  0.00    +0.000 A 
ATOM      5  C   UNL     1       3.778   5.882  18.119  0.00  0.00    +0.000 A 
ATOM      6  N   UNL     1       3.698   7.055  17.341  0.00  0.00    +0.000 NA
ATOM      7  C   UNL     1       2.964   8.030  17.751  0.00  0.00    +0.000 A 
ATOM      8  N   UNL     1       2.215   8.018  18.896  0.00  0.00    +0.000 N 
ATOM      9  C   UNL     1       1.409   9.164  19.258  0.00  0.00    +0.000 C 
ATOM     10  C   UNL     1       2.188   6.906  19.719  0.00  0.00    +0.000 A 
ATOM     11  O   UNL     1       1.516   6.836  20.749  0.00  0.00    +0.000 OA
ATOM     12  C   UNL     1       3.028   5.763  19.300  0.00  0.00    +0.000 A 
ATOM     13  C   UNL     1       3.067   4.604  20.082  0.00  0.00    +0.000 A 
ENDROOT
BRANCH   4  14
ATOM     14  C   UNL     1       5.470   4.860  16.493  0.00  0.00    +0.000 A 
ATOM     15  C   UNL     1       5.126   4.179  15.313  0.00  0.00    +0.000 A 
ATOM     16  C   UNL     1       5.971   4.189  14.201  0.00  0.00    +0.000 A 
ATOM     17  C   UNL     1       7.149   4.906  14.279  0.00  0.00    +0.000 A 
ATOM     18  N   UNL     1       7.528   5.591  15.372  0.00  0.00    +0.000 NA
ATOM     19  C   UNL     1       6.687   5.548  16.440  0.00  0.00    +0.000 A 
ENDBRANCH   4  14
TORSDOF 1
ENDMDL
MODEL 4
REMARK VINA RESULT:      -7.5      2.076      5.384
REMARK  Name = 
REMARK  3 active torsions:
REMARK  status: ('A' for Active; 'I' for Inactive)
REMARK    1  A    between atoms: C_1  and  C_2
REMARK    2  A    between atoms: C_4  and  C_5
REMARK    3  A    between atoms: N_14  and  C_15
REMARK                            x       y       z     vdW  Elec       q    Type
REMARK                         _______ _______ _______ _____ _____    ______ ____
ROOT
ATOM      1  C   UNL     1       1.980   9.296  18.112  0.00  0.00    +0.000 C 
ATOM      2  C   UNL     1       2.571   7.921  18.007  0.00  0.00    +0.000 A 
ATOM      3  C   UNL     1       2.145   6.886  18.850  0.00  0.00    +0.000 A 
ATOM      4  C   UNL     1       2.670   5.570  18.775  0.00  0.00    +0.000 A 
ATOM      5  C   UNL     1       3.670   5.321  17.802  0.00  0.00    +0.000 A 
ATOM      6  N   UNL     1       4.221   4.031  17.666  0.00  0.00    +0.000 NA
ATOM      7  C   UNL     1       5.158   3.837  16.805  0.00  0.00    +0.000 A 
ATOM      8  N   UNL     1       5.663   4.796  15.969  0.00  0.00    +0.000 N 
ATOM      9  C   UNL     1       6.708   4.468  15.023  0.00  0.00    +0.000 C 
ATOM     10  C   UNL     1       5.173   6.090  15.990  0.00  0.00    +0.000 A 
ATOM     11  O   UNL     1       5.579   6.984  15.246  0.00  0.00    +0.000 OA
ATOM     12  C   UNL     1       4.106   6.368  16.975  0.00  0.00    +0.000 A 
ATOM     13  C   UNL     1       3.563   7.654  17.069  0.00  0.00    +0.000 A 
ENDROOT
BRANCH   4  14
ATOM     14  C   UNL     1       2.168   4.531  19.719  0.00  0.00    +0.000 A 
ATOM     15  C   UNL     1       2.654   4.421  21.034  0.00  0.00    +0.000 A 
ATOM     16  C   UNL     1       2.214   3.404  21.883  0.00  0.00    +0.000 A 
ATOM     17  C   UNL     1       1.269   2.516  21.409  0.00  0.00    +0.000 A 
ATOM     18  N   UNL     1       0.754   2.576  20.168  0.00  0.00    +0.000 NA
ATOM     19  C   UNL     1       1.215   3.571  19.364  0.00  0.00    +0.000 A 
ENDBRANCH   4  14
TORSDOF 1
ENDMDL
MODEL 5
REMARK VINA RESULT:      -7.3      0.669      1.100
REMARK  Name = 
REMARK  3 active torsions:
REMARK  status: ('A' for Active; 'I' for Inactive)
REMARK    1  A    between atoms: C_1  and  C_2
REMARK    2  A    between atoms: C_4  and  C_5
REMARK    3  A    between atoms: N_14  and  C_15
REMARK                            x       y       z     vdW  Elec       q    Type
REMARK                         _______ _______ _______ _____ _____    ______ ____
ROOT
ATOM      1  C   UNL     1       2.279   9.008  17.872  0.00  0.00    +0.000 C 
ATOM      2  C   UNL     1       2.822   7.620  18.041  0.00  0.00    +0.000 A 
ATOM      3  C   UNL     1       3.749   7.092  17.133  0.00  0.00    +0.000 A 
ATOM      4  C   UNL     1       4.296   5.790  17.265  0.00  0.00    +0.000 A 
ATOM      5  C   UNL     1       3.864   5.009  18.365  0.00  0.00    +0.000 A 
ATOM      6  N   UNL     1       4.381   3.712  18.561  0.00  0.00    +0.000 NA
ATOM      7  C   UNL     1       3.943   3.005  19.544  0.00  0.00    +0.000 A 
ATOM      8  N   UNL     1       3.012   3.422  20.455  0.00  0.00    +0.000 N 
ATOM      9  C   UNL     1       2.600   2.552  21.535  0.00  0.00    +0.000 C 
ATOM     10  C   UNL     1       2.462   4.690  20.382  0.00  0.00    +0.000 A 
ATOM     11  O   UNL     1       1.636   5.122  21.187  0.00  0.00    +0.000 OA
ATOM     12  C   UNL     1       2.920   5.537  19.260  0.00  0.00    +0.000 A 
ATOM     13  C   UNL     1       2.404   6.829  19.107  0.00  0.00    +0.000 A 
ENDROOT
BRANCH   4  14
ATOM     14  C   UNL     1       5.268   5.301  16.245  0.00  0.00    +0.000 A 
ATOM     15  C   UNL     1       6.647   5.555  16.348  0.00  0.00    +0.000 A 
ATOM     16  C   UNL     1       7.534   5.139  15.353  0.00  0.00    +0.000 A 
ATOM     17  C   UNL     1       7.027   4.449  14.270  0.00  0.00    +0.000 A 
ATOM     18  N   UNL     1       5.722   4.162  14.120  0.00  0.00    +0.000 NA
ATOM     19  C   UNL     1       4.886   4.593  15.101  0.00  0.00    +0.000 A 
ENDBRANCH   4  14
TORSDOF 1
ENDMDL
MODEL 6
REMARK VINA RESULT:      -7.1      1.985      3.876
REMARK  Name = 
REMARK  3 active torsions:
REMARK  status: ('A' for Active; 'I' for Inactive)
REMARK    1  A    between atoms: C_1  and  C_2
REMARK    2  A    between atoms: C_4  and  C_5
REMARK    3  A    between atoms: N_14  and  C_15
REMARK                            x       y       z     vdW  Elec       q    Type
REMARK                         _______ _______ _______ _____ _____    ______ ____
ROOT
ATOM      1  C   UNL     1       2.336   2.837  21.619  0.00  0.00    +0.000 C 
ATOM      2  C   UNL     1       2.635   3.953  20.662  0.00  0.00    +0.000 A 
ATOM      3  C   UNL     1       3.594   3.801  19.652  0.00  0.00    +0.000 A 
ATOM      4  C   UNL     1       3.897   4.827  18.721  0.00  0.00    +0.000 A 
ATOM      5  C   UNL     1       3.192   6.050  18.845  0.00  0.00    +0.000 A 
ATOM      6  N   UNL     1       3.435   7.104  17.941  0.00  0.00    +0.000 NA
ATOM      7  C   UNL     1       2.814   8.220  18.098  0.00  0.00    +0.000 A 
ATOM      8  N   UNL     1       1.892   8.472  19.077  0.00  0.00    +0.000 N 
ATOM      9  C   UNL     1       1.237   9.760  19.155  0.00  0.00    +0.000 C 
ATOM     10  C   UNL     1       1.547   7.499  19.999  0.00  0.00    +0.000 A 
ATOM     11  O   UNL     1       0.711   7.668  20.887  0.00  0.00    +0.000 OA
ATOM     12  C   UNL     1       2.247   6.202  19.872  0.00  0.00    +0.000 A 
ATOM     13  C   UNL     1       1.965   5.168  20.771  0.00  0.00    +0.000 A 
ENDROOT
BRANCH   4  14
ATOM     14  C   UNL     1       4.941   4.585  17.684  0.00  0.00    +0.000 A 
ATOM     15  C   UNL     1       6.308   4.799  17.938  0.00  0.00    +0.000 A 
ATOM     16  C   UNL     1       7.263   4.622  16.935  0.00  0.00    +0.000 A 
ATOM     17  C   UNL     1       6.838   4.209  15.688  0.00  0.00    +0.000 A 
ATOM     18  N   UNL     1       5.549   3.973  15.387  0.00  0.00    +0.000 NA
ATOM     19  C   UNL     1       4.644   4.168  16.383  0.00  0.00    +0.000 A 
ENDBRANCH   4  14
TORSDOF 1
ENDMDL
MODEL 7
REMARK VINA RESULT:      -7.1      3.190      6.086
REMARK  Name = 
REMARK  3 active torsions:
REMARK  status: ('A' for Active; 'I' for Inactive)
REMARK    1  A    between atoms: C_1  and  C_2
REMARK    2  A    between atoms: C_4  and  C_5
REMARK    3  A    between atoms: N_14  and  C_15
REMARK                            x       y       z     vdW  Elec       q    Type
REMARK                         _______ _______ _______ _____ _____    ______ ____
ROOT
ATOM      1  C   UNL     1       7.838   6.790  18.843  0.00  0.00    +0.000 C 
ATOM      2  C   UNL     1       7.075   6.005  17.816  0.00  0.00    +0.000 A 
ATOM      3  C   UNL     1       5.878   5.356  18.146  0.00  0.00    +0.000 A 
ATOM      4  C   UNL     1       5.122   4.616  17.202  0.00  0.00    +0.000 A 
ATOM      5  C   UNL     1       5.623   4.540  15.879  0.00  0.00    +0.000 A 
ATOM      6  N   UNL     1       4.910   3.832  14.890  0.00  0.00    +0.000 NA
ATOM      7  C   UNL     1       5.405   3.741  13.705  0.00  0.00    +0.000 A 
ATOM      8  N   UNL     1       6.584   4.308  13.304  0.00  0.00    +0.000 N 
ATOM      9  C   UNL     1       7.043   4.159  11.940  0.00  0.00    +0.000 C 
ATOM     10  C   UNL     1       7.351   5.055  14.180  0.00  0.00    +0.000 A 
ATOM     11  O   UNL     1       8.408   5.603  13.865  0.00  0.00    +0.000 OA
ATOM     12  C   UNL     1       6.833   5.177  15.561  0.00  0.00    +0.000 A 
ATOM     13  C   UNL     1       7.553   5.906  16.513  0.00  0.00    +0.000 A 
ENDROOT
BRANCH   4  14
ATOM     14  C   UNL     1       3.865   3.945  17.641  0.00  0.00    +0.000 A 
ATOM     15  C   UNL     1       2.647   4.640  17.750  0.00  0.00    +0.000 A 
ATOM     16  C   UNL     1       1.494   4.006  18.218  0.00  0.00    +0.000 A 
ATOM     17  C   UNL     1       1.571   2.669  18.554  0.00  0.00    +0.000 A 
ATOM     18  N   UNL     1       2.700   1.945  18.459  0.00  0.00    +0.000 NA
ATOM     19  C   UNL     1       3.806   2.597  18.011  0.00  0.00    +0.000 A 
ENDBRANCH   4  14
TORSDOF 1
ENDMDL
MODEL 8
REMARK VINA RESULT:      -7.1      2.309      3.997
REMARK  Name = 
REMARK  3 active torsions:
REMARK  status: ('A' for Active; 'I' for Inactive)
REMARK    1  A    between atoms: C_1  and  C_2
REMARK    2  A    between atoms: C_4  and  C_5
REMARK    3  A    between atoms: N_14  and  C_15
REMARK                            x       y       z     vdW  Elec       q    Type
REMARK                         _______ _______ _______ _____ _____    ______ ____
ROOT
ATOM      1  C   UNL     1       2.261   3.681  21.476  0.00  0.00    +0.000 C 
ATOM      2  C   UNL     1       2.406   4.824  20.515  0.00  0.00    +0.000 A 
ATOM      3  C   UNL     1       3.195   4.704  19.364  0.00  0.00    +0.000 A 
ATOM      4  C   UNL     1       3.348   5.756  18.425  0.00  0.00    +0.000 A 
ATOM      5  C   UNL     1       2.668   6.971  18.690  0.00  0.00    +0.000 A 
ATOM      6  N   UNL     1       2.766   8.050  17.788  0.00  0.00    +0.000 NA
ATOM      7  C   UNL     1       2.174   9.158  18.069  0.00  0.00    +0.000 A 
ATOM      8  N   UNL     1       1.417   9.378  19.187  0.00  0.00    +0.000 N 
ATOM      9  C   UNL     1       0.779  10.660  19.400  0.00  0.00    +0.000 C 
ATOM     10  C   UNL     1       1.221   8.379  20.125  0.00  0.00    +0.000 A 
ATOM     11  O   UNL     1       0.533   8.519  21.137  0.00  0.00    +0.000 OA
ATOM     12  C   UNL     1       1.895   7.090  19.855  0.00  0.00    +0.000 A 
ATOM     13  C   UNL     1       1.758   6.031  20.759  0.00  0.00    +0.000 A 
ENDROOT
BRANCH   4  14
ATOM     14  C   UNL     1       4.217   5.547  17.232  0.00  0.00    +0.000 A 
ATOM     15  C   UNL     1       4.439   4.271  16.684  0.00  0.00    +0.000 A 
ATOM     16  C   UNL     1       5.302   4.091  15.602  0.00  0.00    +0.000 A 
ATOM     17  C   UNL     1       5.922   5.202  15.065  0.00  0.00    +0.000 A 
ATOM     18  N   UNL     1       5.741   6.449  15.532  0.00  0.00    +0.000 NA
ATOM     19  C   UNL     1       4.903   6.586  16.595  0.00  0.00    +0.000 A 
ENDBRANCH   4  14
TORSDOF 1
ENDMDL
MODEL 9
REMARK VINA RESULT:      -7.0      2.573      5.752
REMARK  Name = 
REMARK  3 active torsions:
REMARK  status: ('A' for Active; 'I' for Inactive)
REMARK    1  A    between atoms: C_1  and  C_2
REMARK    2  A    between atoms: C_4  and  C_5
REMARK    3  A    between atoms: N_14  and  C_15
REMARK                            x       y       z     vdW  Elec       q    Type
REMARK                         _______ _______ _______ _____ _____    ______ ____
ROOT
ATOM      1  C   UNL     1       1.462   2.242  18.800  0.00  0.00    +0.000 C 
ATOM      2  C   UNL     1       2.252   3.429  18.335  0.00  0.00    +0.000 A 
ATOM      3  C   UNL     1       1.873   4.731  18.686  0.00  0.00    +0.000 A 
ATOM      4  C   UNL     1       2.600   5.878  18.277  0.00  0.00    +0.000 A 
ATOM      5  C   UNL     1       3.750   5.671  17.476  0.00  0.00    +0.000 A 
ATOM      6  N   UNL     1       4.526   6.769  17.051  0.00  0.00    +0.000 NA
ATOM      7  C   UNL     1       5.542   6.560  16.289  0.00  0.00    +0.000 A 
ATOM      8  N   UNL     1       5.963   5.329  15.864  0.00  0.00    +0.000 N 
ATOM      9  C   UNL     1       7.131   5.204  15.020  0.00  0.00    +0.000 C 
ATOM     10  C   UNL     1       5.299   4.177  16.249  0.00  0.00    +0.000 A 
ATOM     11  O   UNL     1       5.648   3.045  15.911  0.00  0.00    +0.000 OA
ATOM     12  C   UNL     1       4.113   4.365  17.112  0.00  0.00    +0.000 A 
ATOM     13  C   UNL     1       3.379   3.252  17.537  0.00  0.00    +0.000 A 
ENDROOT
BRANCH   4  14
ATOM     14  C   UNL     1       2.119   7.229  18.686  0.00  0.00    +0.000 A 
ATOM     15  C   UNL     1       1.916   8.262  17.753  0.00  0.00    +0.000 A 
ATOM     16  C   UNL     1       1.520   9.536  18.163  0.00  0.00    +0.000 A 
ATOM     17  C   UNL     1       1.312   9.757  19.510  0.00  0.00    +0.000 A 
ATOM     18  N   UNL     1       1.475   8.809  20.449  0.00  0.00    +0.000 NA
ATOM     19  C   UNL     1       1.873   7.583  20.016  0.00  0.00    +0.000 A 
ENDBRANCH   4  14
TORSDOF 1
ENDMDL
