MODEL 1
REMARK VINA RESULT:      -8.8      0.000      0.000
REMARK  Name = 
REMARK  11 active torsions:
REMARK  status: ('A' for Active; 'I' for Inactive)
REMARK    1  A    between atoms: C_1  and  C_2
REMARK    2  A    between atoms: C_2  and  C_3
REMARK    3  A    between atoms: C_3  and  C_4
REMARK    4  A    between atoms: C_3  and  N_6
REMARK    5  A    between atoms: C_3  and  C_26
REMARK    6  A    between atoms: C_4  and  C_5
REMARK    7  A    between atoms: C_7  and  C_9
REMARK    8  A    between atoms: C_15  and  C_16
REMARK    9  A    between atoms: C_23  and  C_24
REMARK   10  A    between atoms: C_23  and  C_25
REMARK   11  A    between atoms: C_29  and  C_30
REMARK                            x       y       z     vdW  Elec       q    Type
REMARK                         _______ _______ _______ _____ _____    ______ ____
ROOT
ATOM      1  C   UNL     1       2.210   6.520  19.306  0.00  0.00    +0.000 A 
ATOM      2  C   UNL     1       1.596   5.884  20.382  0.00  0.00    +0.000 A 
ATOM      3  N   UNL     1       1.944   4.584  20.399  0.00  0.00    +0.000 NA
ATOM      4  N   UNL     1       2.745   4.365  19.370  0.00  0.00    +0.000 N 
ATOM      5  C   UNL     1       2.945   5.514  18.700  0.00  0.00    +0.000 A 
ATOM      6  N   UNL     1       3.814   5.576  17.578  0.00  0.00    +0.000 N 
ATOM      7  C   UNL     1       4.736   4.464  17.398  0.00  0.00    +0.000 C 
ATOM      8  C   UNL     1       3.966   3.144  17.583  0.00  0.00    +0.000 C 
ATOM      9  C   UNL     1       3.337   3.063  19.015  0.00  0.00    +0.000 C 
ATOM     10  C   UNL     1       2.249   1.973  19.006  0.00  0.00    +0.000 C 
ATOM     11  C   UNL     1       4.397   2.706  20.075  0.00  0.00    +0.000 C 
ATOM     12  H   UNL     1       3.811   6.382  16.934  0.00  0.00    +0.000 HD
ENDROOT
BRANCH   7  13
ATOM     13  C   UNL     1       5.468   4.517  16.072  0.00  0.00    +0.000 A 
ATOM     14  C   UNL     1       6.750   5.098  16.012  0.00  0.00    +0.000 A 
ATOM     15  C   UNL     1       7.458   5.130  14.809  0.00  0.00    +0.000 A 
ATOM     16  C   UNL     1       6.900   4.584  13.653  0.00  0.00    +0.000 A 
ATOM     17  C   UNL     1       5.628   4.006  13.697  0.00  0.00    +0.000 A 
ATOM     18  C   UNL     1       4.911   3.973  14.899  0.00  0.00    +0.000 A 
ENDBRANCH   7  13
BRANCH   1  20
ATOM     19  N   UNL     1       1.153   8.756  19.533  0.00  0.00    +0.000 N 
ATOM     20  C   UNL     1       2.103   7.961  18.941  0.00  0.00    +0.000 C 
ATOM     21  O   UNL     1       2.859   8.413  18.097  0.00  0.00    +0.000 OA
ATOM     22  H   UNL     1       0.546   8.309  20.227  0.00  0.00    +0.000 HD
BRANCH  19  23
ATOM     23  C   UNL     1       0.908  10.188  19.264  0.00  0.00    +0.000 C 
BRANCH  23  24
ATOM     24  C   UNL     1      -0.474  10.406  18.576  0.00  0.00    +0.000 A 
ATOM     25  C   UNL     1      -1.353  11.403  19.067  0.00  0.00    +0.000 A 
ATOM     26  C   UNL     1      -2.598  11.635  18.471  0.00  0.00    +0.000 A 
ATOM     27  C   UNL     1      -3.004  10.885  17.362  0.00  0.00    +0.000 A 
ATOM     28  C   UNL     1      -4.329  11.133  16.700  0.00  0.00    +0.000 C 
ATOM     29  C   UNL     1      -2.158   9.890  16.868  0.00  0.00    +0.000 A 
ATOM     30  C   UNL     1      -0.919   9.644  17.468  0.00  0.00    +0.000 A 
ENDBRANCH  23  24
BRANCH  23  32
ATOM     31  C   UNL     1       0.421  10.184  21.905  0.00  0.00    +0.000 C 
ATOM     32  C   UNL     1       0.840  10.954  20.640  0.00  0.00    +0.000 C 
ENDBRANCH  23  32
BRANCH  23  33
ATOM     33  C   UNL     1       2.009  10.753  18.294  0.00  0.00    +0.000 C 
ATOM     34  C   UNL     1       2.199  12.272  18.211  0.00  0.00    +0.000 C 
ENDBRANCH  23  33
ENDBRANCH  19  23
ENDBRANCH   1  20
TORSDOF 6
ENDMDL
MODEL 2
REMARK VINA RESULT:      -8.7      0.180      1.222
REMARK  Name = 
REMARK  11 active torsions:
REMARK  status: ('A' for Active; 'I' for Inactive)
REMARK    1  A    between atoms: C_1  and  C_2
REMARK    2  A    between atoms: C_2  and  C_3
REMARK    3  A    between atoms: C_3  and  C_4
REMARK    4  A    between atoms: C_3  and  N_6
REMARK    5  A    between atoms: C_3  and  C_26
REMARK    6  A    between atoms: C_4  and  C_5
REMARK    7  A    between atoms: C_7  and  C_9
REMARK    8  A    between atoms: C_15  and  C_16
REMARK    9  A    between atoms: C_23  and  C_24
REMARK   10  A    between atoms: C_23  and  C_25
REMARK   11  A    between atoms: C_29  and  C_30
REMARK                            x       y       z     vdW  Elec       q    Type
REMARK                         _______ _______ _______ _____ _____    ______ ____
ROOT
ATOM      1  C   UNL     1       2.138   6.554  19.424  0.00  0.00    +0.000 A 
ATOM      2  C   UNL     1       1.476   5.920  20.473  0.00  0.00    +0.000 A 
ATOM      3  N   UNL     1       1.815   4.618  20.503  0.00  0.00    +0.000 NA
ATOM      4  N   UNL     1       2.656   4.395  19.507  0.00  0.00    +0.000 N 
ATOM      5  C   UNL     1       2.891   5.544  18.848  0.00  0.00    +0.000 A 
ATOM      6  N   UNL     1       3.807   5.602  17.763  0.00  0.00    +0.000 N 
ATOM      7  C   UNL     1       4.729   4.484  17.620  0.00  0.00    +0.000 C 
ATOM      8  C   UNL     1       3.943   3.168  17.771  0.00  0.00    +0.000 C 
ATOM      9  C   UNL     1       3.256   3.090  19.175  0.00  0.00    +0.000 C 
ATOM     10  C   UNL     1       2.161   2.007  19.120  0.00  0.00    +0.000 C 
ATOM     11  C   UNL     1       4.268   2.725  20.279  0.00  0.00    +0.000 C 
ATOM     12  H   UNL     1       3.836   6.408  17.121  0.00  0.00    +0.000 HD
ENDROOT
BRANCH   7  13
ATOM     13  C   UNL     1       5.516   4.534  16.325  0.00  0.00    +0.000 A 
ATOM     14  C   UNL     1       4.933   4.041  15.143  0.00  0.00    +0.000 A 
ATOM     15  C   UNL     1       5.624   4.104  13.931  0.00  0.00    +0.000 A 
ATOM     16  C   UNL     1       6.902   4.660  13.882  0.00  0.00    +0.000 A 
ATOM     17  C   UNL     1       7.494   5.152  15.049  0.00  0.00    +0.000 A 
ATOM     18  C   UNL     1       6.809   5.088  16.268  0.00  0.00    +0.000 A 
ENDBRANCH   7  13
BRANCH   1  20
ATOM     19  N   UNL     1       1.143   8.815  19.674  0.00  0.00    +0.000 N 
ATOM     20  C   UNL     1       2.055   7.996  19.058  0.00  0.00    +0.000 C 
ATOM     21  O   UNL     1       2.797   8.427  18.190  0.00  0.00    +0.000 OA
ATOM     22  H   UNL     1       0.546   8.386  20.387  0.00  0.00    +0.000 HD
BRANCH  19  23
ATOM     23  C   UNL     1       0.925  10.252  19.407  0.00  0.00    +0.000 C 
BRANCH  23  24
ATOM     24  C   UNL     1      -0.455  10.498  18.725  0.00  0.00    +0.000 A 
ATOM     25  C   UNL     1      -0.827   9.729  17.594  0.00  0.00    +0.000 A 
ATOM     26  C   UNL     1      -2.060   9.914  16.959  0.00  0.00    +0.000 A 
ATOM     27  C   UNL     1      -2.966  10.868  17.435  0.00  0.00    +0.000 A 
ATOM     28  C   UNL     1      -4.301  11.067  16.777  0.00  0.00    +0.000 C 
ATOM     29  C   UNL     1      -2.617  11.645  18.542  0.00  0.00    +0.000 A 
ATOM     30  C   UNL     1      -1.380  11.474  19.172  0.00  0.00    +0.000 A 
ENDBRANCH  23  24
BRANCH  23  32
ATOM     31  C   UNL     1       0.370  10.279  22.035  0.00  0.00    +0.000 C 
ATOM     32  C   UNL     1       0.877  11.018  20.783  0.00  0.00    +0.000 C 
ENDBRANCH  23  32
BRANCH  23  33
ATOM     33  C   UNL     1       2.033  10.796  18.433  0.00  0.00    +0.000 C 
ATOM     34  C   UNL     1       2.241  12.313  18.339  0.00  0.00    +0.000 C 
ENDBRANCH  23  33
ENDBRANCH  19  23
ENDBRANCH   1  20
TORSDOF 6
ENDMDL
MODEL 3
REMARK VINA RESULT:      -8.5      1.841      8.613
REMARK  Name = 
REMARK  11 active torsions:
REMARK  status: ('A' for Active; 'I' for Inactive)
REMARK    1  A    between atoms: C_1  and  C_2
REMARK    2  A    between atoms: C_2  and  C_3
REMARK    3  A    between atoms: C_3  and  C_4
REMARK    4  A    between atoms: C_3  and  N_6
REMARK    5  A    between atoms: C_3  and  C_26
REMARK    6  A    between atoms: C_4  and  C_5
REMARK    7  A    between atoms: C_7  and  C_9
REMARK    8  A    between atoms: C_15  and  C_16
REMARK    9  A    between atoms: C_23  and  C_24
REMARK   10  A    between atoms: C_23  and  C_25
REMARK   11  A    between atoms: C_29  and  C_30
REMARK                            x       y       z     vdW  Elec       q    Type
REMARK                         _______ _______ _______ _____ _____    ______ ____
ROOT
ATOM      1  C   UNL     1       1.437   8.513  20.606  0.00  0.00    +0.000 A 
ATOM      2  C   UNL     1       1.959   8.922  21.831  0.00  0.00    +0.000 A 
ATOM      3  N   UNL     1       1.346  10.051  22.232  0.00  0.00    +0.000 NA
ATOM      4  N   UNL     1       0.462  10.383  21.306  0.00  0.00    +0.000 N 
ATOM      5  C   UNL     1       0.473   9.468  20.321  0.00  0.00    +0.000 A 
ATOM      6  N   UNL     1      -0.422   9.551  19.222  0.00  0.00    +0.000 N 
ATOM      7  C   UNL     1      -1.568  10.437  19.372  0.00  0.00    +0.000 C 
ATOM      8  C   UNL     1      -1.085  11.779  19.952  0.00  0.00    +0.000 C 
ATOM      9  C   UNL     1      -0.411  11.570  21.350  0.00  0.00    +0.000 C 
ATOM     10  C   UNL     1       0.420  12.824  21.681  0.00  0.00    +0.000 C 
ATOM     11  C   UNL     1      -1.463  11.359  22.456  0.00  0.00    +0.000 C 
ATOM     12  H   UNL     1      -0.284   8.992  18.366  0.00  0.00    +0.000 HD
ENDROOT
BRANCH   7  13
ATOM     13  C   UNL     1      -2.343  10.619  18.082  0.00  0.00    +0.000 A 
ATOM     14  C   UNL     1      -1.930   9.932  16.924  0.00  0.00    +0.000 A 
ATOM     15  C   UNL     1      -2.645  10.057  15.731  0.00  0.00    +0.000 A 
ATOM     16  C   UNL     1      -3.780  10.867  15.678  0.00  0.00    +0.000 A 
ATOM     17  C   UNL     1      -4.200  11.557  16.818  0.00  0.00    +0.000 A 
ATOM     18  C   UNL     1      -3.486  11.438  18.016  0.00  0.00    +0.000 A 
ENDBRANCH   7  13
BRANCH   1  20
ATOM     19  N   UNL     1       1.984   6.096  20.461  0.00  0.00    +0.000 N 
ATOM     20  C   UNL     1       1.826   7.303  19.829  0.00  0.00    +0.000 C 
ATOM     21  O   UNL     1       2.018   7.411  18.628  0.00  0.00    +0.000 OA
ATOM     22  H   UNL     1       1.815   6.079  21.471  0.00  0.00    +0.000 HD
BRANCH  19  23
ATOM     23  C   UNL     1       2.386   4.818  19.837  0.00  0.00    +0.000 C 
BRANCH  23  24
ATOM     24  C   UNL     1       3.636   5.002  18.924  0.00  0.00    +0.000 A 
ATOM     25  C   UNL     1       4.884   5.343  19.501  0.00  0.00    +0.000 A 
ATOM     26  C   UNL     1       6.031   5.509  18.716  0.00  0.00    +0.000 A 
ATOM     27  C   UNL     1       5.971   5.334  17.329  0.00  0.00    +0.000 A 
ATOM     28  C   UNL     1       7.195   5.490  16.474  0.00  0.00    +0.000 C 
ATOM     29  C   UNL     1       4.749   5.008  16.737  0.00  0.00    +0.000 A 
ATOM     30  C   UNL     1       3.597   4.855  17.515  0.00  0.00    +0.000 A 
ENDBRANCH  23  24
BRANCH  23  32
ATOM     31  C   UNL     1       1.729   3.058  21.755  0.00  0.00    +0.000 C 
ATOM     32  C   UNL     1       2.817   3.816  20.974  0.00  0.00    +0.000 C 
ENDBRANCH  23  32
BRANCH  23  33
ATOM     33  C   UNL     1       1.223   4.267  18.934  0.00  0.00    +0.000 C 
ATOM     34  C   UNL     1       1.188   2.766  18.623  0.00  0.00    +0.000 C 
ENDBRANCH  23  33
ENDBRANCH  19  23
ENDBRANCH   1  20
TORSDOF 6
ENDMDL
MODEL 4
REMARK VINA RESULT:      -8.4      1.798      8.634
REMARK  Name = 
REMARK  11 active torsions:
REMARK  status: ('A' for Active; 'I' for Inactive)
REMARK    1  A    between atoms: C_1  and  C_2
REMARK    2  A    between atoms: C_2  and  C_3
REMARK    3  A    between atoms: C_3  and  C_4
REMARK    4  A    between atoms: C_3  and  N_6
REMARK    5  A    between atoms: C_3  and  C_26
REMARK    6  A    between atoms: C_4  and  C_5
REMARK    7  A    between atoms: C_7  and  C_9
REMARK    8  A    between atoms: C_15  and  C_16
REMARK    9  A    between atoms: C_23  and  C_24
REMARK   10  A    between atoms: C_23  and  C_25
REMARK   11  A    between atoms: C_29  and  C_30
REMARK                            x       y       z     vdW  Elec       q    Type
REMARK                         _______ _______ _______ _____ _____    ______ ____
ROOT
ATOM      1  C   UNL     1       1.468   8.467  20.504  0.00  0.00    +0.000 A 
ATOM      2  C   UNL     1       1.994   8.875  21.728  0.00  0.00    +0.000 A 
ATOM      3  N   UNL     1       1.367   9.992  22.141  0.00  0.00    +0.000 NA
ATOM      4  N   UNL     1       0.472  10.318  21.224  0.00  0.00    +0.000 N 
ATOM      5  C   UNL     1       0.489   9.410  20.233  0.00  0.00    +0.000 A 
ATOM      6  N   UNL     1      -0.416   9.487  19.141  0.00  0.00    +0.000 N 
ATOM      7  C   UNL     1      -1.573  10.356  19.306  0.00  0.00    +0.000 C 
ATOM      8  C   UNL     1      -1.105  11.701  19.892  0.00  0.00    +0.000 C 
ATOM      9  C   UNL     1      -0.418  11.492  21.283  0.00  0.00    +0.000 C 
ATOM     10  C   UNL     1       0.398  12.755  21.616  0.00  0.00    +0.000 C 
ATOM     11  C   UNL     1      -1.459  11.258  22.395  0.00  0.00    +0.000 C 
ATOM     12  H   UNL     1      -0.276   8.936  18.280  0.00  0.00    +0.000 HD
ENDROOT
BRANCH   7  13
ATOM     13  C   UNL     1      -2.360  10.535  18.023  0.00  0.00    +0.000 A 
ATOM     14  C   UNL     1      -3.505  11.356  18.023  0.00  0.00    +0.000 A 
ATOM     15  C   UNL     1      -4.229  11.563  16.847  0.00  0.00    +0.000 A 
ATOM     16  C   UNL     1      -3.822  10.958  15.658  0.00  0.00    +0.000 A 
ATOM     17  C   UNL     1      -2.689  10.139  15.644  0.00  0.00    +0.000 A 
ATOM     18  C   UNL     1      -1.960   9.924  16.819  0.00  0.00    +0.000 A 
ENDBRANCH   7  13
BRANCH   1  20
ATOM     19  N   UNL     1       2.065   6.063  20.340  0.00  0.00    +0.000 N 
ATOM     20  C   UNL     1       1.869   7.269  19.715  0.00  0.00    +0.000 C 
ATOM     21  O   UNL     1       2.036   7.384  18.512  0.00  0.00    +0.000 OA
ATOM     22  H   UNL     1       1.915   6.039  21.353  0.00  0.00    +0.000 HD
BRANCH  19  23
ATOM     23  C   UNL     1       2.482   4.796  19.704  0.00  0.00    +0.000 C 
BRANCH  23  24
ATOM     24  C   UNL     1       3.768   4.991  18.844  0.00  0.00    +0.000 A 
ATOM     25  C   UNL     1       3.706   4.817  17.439  0.00  0.00    +0.000 A 
ATOM     26  C   UNL     1       4.836   4.991  16.632  0.00  0.00    +0.000 A 
ATOM     27  C   UNL     1       6.063   5.351  17.199  0.00  0.00    +0.000 A 
ATOM     28  C   UNL     1       7.280   5.560  16.345  0.00  0.00    +0.000 C 
ATOM     29  C   UNL     1       6.150   5.519  18.583  0.00  0.00    +0.000 A 
ATOM     30  C   UNL     1       5.028   5.332  19.396  0.00  0.00    +0.000 A 
ENDBRANCH  23  24
BRANCH  23  32
ATOM     31  C   UNL     1       1.763   3.254  21.782  0.00  0.00    +0.000 C 
ATOM     32  C   UNL     1       2.863   3.766  20.835  0.00  0.00    +0.000 C 
ENDBRANCH  23  32
BRANCH  23  33
ATOM     33  C   UNL     1       1.351   4.273  18.745  0.00  0.00    +0.000 C 
ATOM     34  C   UNL     1       1.193   2.759  18.561  0.00  0.00    +0.000 C 
ENDBRANCH  23  33
ENDBRANCH  19  23
ENDBRANCH   1  20
TORSDOF 6
ENDMDL
MODEL 5
REMARK VINA RESULT:      -8.0      2.039      8.644
REMARK  Name = 
REMARK  11 active torsions:
REMARK  status: ('A' for Active; 'I' for Inactive)
REMARK    1  A    between atoms: C_1  and  C_2
REMARK    2  A    between atoms: C_2  and  C_3
REMARK    3  A    between atoms: C_3  and  C_4
REMARK    4  A    between atoms: C_3  and  N_6
REMARK    5  A    between atoms: C_3  and  C_26
REMARK    6  A    between atoms: C_4  and  C_5
REMARK    7  A    between atoms: C_7  and  C_9
REMARK    8  A    between atoms: C_15  and  C_16
REMARK    9  A    between atoms: C_23  and  C_24
REMARK   10  A    between atoms: C_23  and  C_25
REMARK   11  A    between atoms: C_29  and  C_30
REMARK                            x       y       z     vdW  Elec       q    Type
REMARK                         _______ _______ _______ _____ _____    ______ ____
ROOT
ATOM      1  C   UNL     1       1.075   8.620  21.097  0.00  0.00    +0.000 A 
ATOM      2  C   UNL     1       1.675   9.230  22.196  0.00  0.00    +0.000 A 
ATOM      3  N   UNL     1       1.265  10.509  22.285  0.00  0.00    +0.000 NA
ATOM      4  N   UNL     1       0.438  10.741  21.280  0.00  0.00    +0.000 N 
ATOM      5  C   UNL     1       0.283   9.619  20.554  0.00  0.00    +0.000 A 
ATOM      6  N   UNL     1      -0.600   9.572  19.442  0.00  0.00    +0.000 N 
ATOM      7  C   UNL     1      -1.578  10.645  19.333  0.00  0.00    +0.000 C 
ATOM      8  C   UNL     1      -0.869  11.990  19.576  0.00  0.00    +0.000 C 
ATOM      9  C   UNL     1      -0.223  12.028  21.001  0.00  0.00    +0.000 C 
ATOM     10  C   UNL     1       0.812  13.169  21.034  0.00  0.00    +0.000 C 
ATOM     11  C   UNL     1      -1.281  12.279  22.093  0.00  0.00    +0.000 C 
ATOM     12  H   UNL     1      -0.569   8.801  18.758  0.00  0.00    +0.000 HD
ENDROOT
BRANCH   7  13
ATOM     13  C   UNL     1      -2.328  10.624  18.016  0.00  0.00    +0.000 A 
ATOM     14  C   UNL     1      -3.493  11.401  17.871  0.00  0.00    +0.000 A 
ATOM     15  C   UNL     1      -4.185  11.424  16.658  0.00  0.00    +0.000 A 
ATOM     16  C   UNL     1      -3.723  10.676  15.575  0.00  0.00    +0.000 A 
ATOM     17  C   UNL     1      -2.568   9.898  15.705  0.00  0.00    +0.000 A 
ATOM     18  C   UNL     1      -1.873   9.868  16.919  0.00  0.00    +0.000 A 
ENDBRANCH   7  13
BRANCH   1  20
ATOM     19  N   UNL     1       2.386   6.821  19.996  0.00  0.00    +0.000 N 
ATOM     20  C   UNL     1       1.246   7.207  20.657  0.00  0.00    +0.000 C 
ATOM     21  O   UNL     1       0.350   6.408  20.877  0.00  0.00    +0.000 OA
ATOM     22  H   UNL     1       3.093   7.544  19.837  0.00  0.00    +0.000 HD
BRANCH  19  23
ATOM     23  C   UNL     1       2.692   5.471  19.480  0.00  0.00    +0.000 C 
BRANCH  23  24
ATOM     24  C   UNL     1       3.923   5.497  18.523  0.00  0.00    +0.000 A 
ATOM     25  C   UNL     1       4.993   4.591  18.729  0.00  0.00    +0.000 A 
ATOM     26  C   UNL     1       6.110   4.578  17.887  0.00  0.00    +0.000 A 
ATOM     27  C   UNL     1       6.194   5.464  16.808  0.00  0.00    +0.000 A 
ATOM     28  C   UNL     1       7.378   5.450  15.884  0.00  0.00    +0.000 C 
ATOM     29  C   UNL     1       5.157   6.373  16.591  0.00  0.00    +0.000 A 
ATOM     30  C   UNL     1       4.044   6.400  17.437  0.00  0.00    +0.000 A 
ENDBRANCH  23  24
BRANCH  23  32
ATOM     31  C   UNL     1       2.062   3.562  21.259  0.00  0.00    +0.000 C 
ATOM     32  C   UNL     1       3.097   4.548  20.691  0.00  0.00    +0.000 C 
ENDBRANCH  23  32
BRANCH  23  33
ATOM     33  C   UNL     1       1.472   4.916  18.658  0.00  0.00    +0.000 C 
ATOM     34  C   UNL     1       1.713   3.749  17.693  0.00  0.00    +0.000 C 
ENDBRANCH  23  33
ENDBRANCH  19  23
ENDBRANCH   1  20
TORSDOF 6
ENDMDL
MODEL 6
REMARK VINA RESULT:      -7.9      2.010      8.606
REMARK  Name = 
REMARK  11 active torsions:
REMARK  status: ('A' for Active; 'I' for Inactive)
REMARK    1  A    between atoms: C_1  and  C_2
REMARK    2  A    between atoms: C_2  and  C_3
REMARK    3  A    between atoms: C_3  and  C_4
REMARK    4  A    between atoms: C_3  and  N_6
REMARK    5  A    between atoms: C_3  and  C_26
REMARK    6  A    between atoms: C_4  and  C_5
REMARK    7  A    between atoms: C_7  and  C_9
REMARK    8  A    between atoms: C_15  and  C_16
REMARK    9  A    between atoms: C_23  and  C_24
REMARK   10  A    between atoms: C_23  and  C_25
REMARK   11  A    between atoms: C_29  and  C_30
REMARK                            x       y       z     vdW  Elec       q    Type
REMARK                         _______ _______ _______ _____ _____    ______ ____
ROOT
ATOM      1  C   UNL     1       1.089   8.534  21.107  0.00  0.00    +0.000 A 
ATOM      2  C   UNL     1       1.701   9.121  22.212  0.00  0.00    +0.000 A 
ATOM      3  N   UNL     1       1.323  10.408  22.309  0.00  0.00    +0.000 NA
ATOM      4  N   UNL     1       0.504  10.668  21.304  0.00  0.00    +0.000 N 
ATOM      5  C   UNL     1       0.322   9.556  20.570  0.00  0.00    +0.000 A 
ATOM      6  N   UNL     1      -0.559   9.538  19.456  0.00  0.00    +0.000 N 
ATOM      7  C   UNL     1      -1.510  10.636  19.353  0.00  0.00    +0.000 C 
ATOM      8  C   UNL     1      -0.769  11.962  19.607  0.00  0.00    +0.000 C 
ATOM      9  C   UNL     1      -0.124  11.974  21.033  0.00  0.00    +0.000 C 
ATOM     10  C   UNL     1       0.938  13.089  21.077  0.00  0.00    +0.000 C 
ATOM     11  C   UNL     1      -1.179  12.242  22.125  0.00  0.00    +0.000 C 
ATOM     12  H   UNL     1      -0.546   8.772  18.766  0.00  0.00    +0.000 HD
ENDROOT
BRANCH   7  13
ATOM     13  C   UNL     1      -2.258  10.643  18.034  0.00  0.00    +0.000 A 
ATOM     14  C   UNL     1      -1.797   9.839  16.974  0.00  0.00    +0.000 A 
ATOM     15  C   UNL     1      -2.486   9.804  15.759  0.00  0.00    +0.000 A 
ATOM     16  C   UNL     1      -3.641  10.566  15.587  0.00  0.00    +0.000 A 
ATOM     17  C   UNL     1      -4.109  11.371  16.630  0.00  0.00    +0.000 A 
ATOM     18  C   UNL     1      -3.421  11.414  17.849  0.00  0.00    +0.000 A 
ENDBRANCH   7  13
BRANCH   1  20
ATOM     19  N   UNL     1       2.379   6.696  20.047  0.00  0.00    +0.000 N 
ATOM     20  C   UNL     1       1.225   7.120  20.657  0.00  0.00    +0.000 C 
ATOM     21  O   UNL     1       0.289   6.355  20.824  0.00  0.00    +0.000 OA
ATOM     22  H   UNL     1       3.122   7.393  19.931  0.00  0.00    +0.000 HD
BRANCH  19  23
ATOM     23  C   UNL     1       2.658   5.341  19.528  0.00  0.00    +0.000 C 
BRANCH  23  24
ATOM     24  C   UNL     1       3.893   5.342  18.577  0.00  0.00    +0.000 A 
ATOM     25  C   UNL     1       3.898   6.176  17.431  0.00  0.00    +0.000 A 
ATOM     26  C   UNL     1       4.991   6.211  16.558  0.00  0.00    +0.000 A 
ATOM     27  C   UNL     1       6.118   5.420  16.803  0.00  0.00    +0.000 A 
ATOM     28  C   UNL     1       7.307   5.459  15.886  0.00  0.00    +0.000 C 
ATOM     29  C   UNL     1       6.132   4.582  17.921  0.00  0.00    +0.000 A 
ATOM     30  C   UNL     1       5.037   4.533  18.788  0.00  0.00    +0.000 A 
ENDBRANCH  23  24
BRANCH  23  32
ATOM     31  C   UNL     1       1.933   3.574  21.414  0.00  0.00    +0.000 C 
ATOM     32  C   UNL     1       3.037   4.406  20.739  0.00  0.00    +0.000 C 
ENDBRANCH  23  32
BRANCH  23  33
ATOM     33  C   UNL     1       1.429   4.816  18.700  0.00  0.00    +0.000 C 
ATOM     34  C   UNL     1       1.575   3.494  17.936  0.00  0.00    +0.000 C 
ENDBRANCH  23  33
ENDBRANCH  19  23
ENDBRANCH   1  20
TORSDOF 6
ENDMDL
MODEL 7
REMARK VINA RESULT:      -7.8      1.218      2.551
REMARK  Name = 
REMARK  11 active torsions:
REMARK  status: ('A' for Active; 'I' for Inactive)
REMARK    1  A    between atoms: C_1  and  C_2
REMARK    2  A    between atoms: C_2  and  C_3
REMARK    3  A    between atoms: C_3  and  C_4
REMARK    4  A    between atoms: C_3  and  N_6
REMARK    5  A    between atoms: C_3  and  C_26
REMARK    6  A    between atoms: C_4  and  C_5
REMARK    7  A    between atoms: C_7  and  C_9
REMARK    8  A    between atoms: C_15  and  C_16
REMARK    9  A    between atoms: C_23  and  C_24
REMARK   10  A    between atoms: C_23  and  C_25
REMARK   11  A    between atoms: C_29  and  C_30
REMARK                            x       y       z     vdW  Elec       q    Type
REMARK                         _______ _______ _______ _____ _____    ______ ____
ROOT
ATOM      1  C   UNL     1       2.021   6.636  19.521  0.00  0.00    +0.000 A 
ATOM      2  C   UNL     1       1.407   6.007  20.601  0.00  0.00    +0.000 A 
ATOM      3  N   UNL     1       1.800   4.722  20.661  0.00  0.00    +0.000 NA
ATOM      4  N   UNL     1       2.631   4.504  19.655  0.00  0.00    +0.000 N 
ATOM      5  C   UNL     1       2.805   5.642  18.959  0.00  0.00    +0.000 A 
ATOM      6  N   UNL     1       3.696   5.706  17.854  0.00  0.00    +0.000 N 
ATOM      7  C   UNL     1       4.662   4.624  17.725  0.00  0.00    +0.000 C 
ATOM      8  C   UNL     1       3.935   3.281  17.929  0.00  0.00    +0.000 C 
ATOM      9  C   UNL     1       3.278   3.216  19.349  0.00  0.00    +0.000 C 
ATOM     10  C   UNL     1       2.230   2.087  19.347  0.00  0.00    +0.000 C 
ATOM     11  C   UNL     1       4.327   2.926  20.441  0.00  0.00    +0.000 C 
ATOM     12  H   UNL     1       3.678   6.493  17.188  0.00  0.00    +0.000 HD
ENDROOT
BRANCH   7  13
ATOM     13  C   UNL     1       5.421   4.668  16.413  0.00  0.00    +0.000 A 
ATOM     14  C   UNL     1       6.736   5.169  16.392  0.00  0.00    +0.000 A 
ATOM     15  C   UNL     1       7.468   5.191  15.203  0.00  0.00    +0.000 A 
ATOM     16  C   UNL     1       6.899   4.713  14.022  0.00  0.00    +0.000 A 
ATOM     17  C   UNL     1       5.594   4.215  14.027  0.00  0.00    +0.000 A 
ATOM     18  C   UNL     1       4.853   4.193  15.215  0.00  0.00    +0.000 A 
ENDBRANCH   7  13
BRANCH   1  20
ATOM     19  N   UNL     1       0.924   8.856  19.713  0.00  0.00    +0.000 N 
ATOM     20  C   UNL     1       1.870   8.062  19.115  0.00  0.00    +0.000 C 
ATOM     21  O   UNL     1       2.588   8.502  18.231  0.00  0.00    +0.000 OA
ATOM     22  H   UNL     1       0.350   8.419  20.441  0.00  0.00    +0.000 HD
BRANCH  19  23
ATOM     23  C   UNL     1       0.638  10.273  19.407  0.00  0.00    +0.000 C 
BRANCH  23  24
ATOM     24  C   UNL     1      -0.270  10.916  20.499  0.00  0.00    +0.000 A 
ATOM     25  C   UNL     1      -0.336  10.335  21.790  0.00  0.00    +0.000 A 
ATOM     26  C   UNL     1      -1.132  10.888  22.799  0.00  0.00    +0.000 A 
ATOM     27  C   UNL     1      -1.885  12.041  22.555  0.00  0.00    +0.000 A 
ATOM     28  C   UNL     1      -2.731  12.657  23.632  0.00  0.00    +0.000 C 
ATOM     29  C   UNL     1      -1.844  12.625  21.287  0.00  0.00    +0.000 A 
ATOM     30  C   UNL     1      -1.061  12.069  20.271  0.00  0.00    +0.000 A 
ENDBRANCH  23  24
BRANCH  23  32
ATOM     31  C   UNL     1       2.207  12.217  18.424  0.00  0.00    +0.000 C 
ATOM     32  C   UNL     1       1.993  11.077  19.435  0.00  0.00    +0.000 C 
ENDBRANCH  23  32
BRANCH  23  33
ATOM     33  C   UNL     1      -0.123  10.388  18.036  0.00  0.00    +0.000 C 
ATOM     34  C   UNL     1      -1.504   9.734  17.912  0.00  0.00    +0.000 C 
ENDBRANCH  23  33
ENDBRANCH  19  23
ENDBRANCH   1  20
TORSDOF 6
ENDMDL
MODEL 8
REMARK VINA RESULT:      -7.4      4.644     10.680
REMARK  Name = 
REMARK  11 active torsions:
REMARK  status: ('A' for Active; 'I' for Inactive)
REMARK    1  A    between atoms: C_1  and  C_2
REMARK    2  A    between atoms: C_2  and  C_3
REMARK    3  A    between atoms: C_3  and  C_4
REMARK    4  A    between atoms: C_3  and  N_6
REMARK    5  A    between atoms: C_3  and  C_26
REMARK    6  A    between atoms: C_4  and  C_5
REMARK    7  A    between atoms: C_7  and  C_9
REMARK    8  A    between atoms: C_15  and  C_16
REMARK    9  A    between atoms: C_23  and  C_24
REMARK   10  A    between atoms: C_23  and  C_25
REMARK   11  A    between atoms: C_29  and  C_30
REMARK                            x       y       z     vdW  Elec       q    Type
REMARK                         _______ _______ _______ _____ _____    ______ ____
ROOT
ATOM      1  C   UNL     1      -3.218  11.436  18.612  0.00  0.00    +0.000 A 
ATOM      2  C   UNL     1      -4.159  10.880  17.750  0.00  0.00    +0.000 A 
ATOM      3  N   UNL     1      -5.399  11.180  18.177  0.00  0.00    +0.000 NA
ATOM      4  N   UNL     1      -5.285  11.894  19.284  0.00  0.00    +0.000 N 
ATOM      5  C   UNL     1      -3.985  12.087  19.566  0.00  0.00    +0.000 A 
ATOM      6  N   UNL     1      -3.575  12.872  20.676  0.00  0.00    +0.000 N 
ATOM      7  C   UNL     1      -4.581  13.738  21.276  0.00  0.00    +0.000 C 
ATOM      8  C   UNL     1      -5.882  12.934  21.461  0.00  0.00    +0.000 C 
ATOM      9  C   UNL     1      -6.411  12.410  20.083  0.00  0.00    +0.000 C 
ATOM     10  C   UNL     1      -7.428  11.284  20.351  0.00  0.00    +0.000 C 
ATOM     11  C   UNL     1      -7.102  13.531  19.283  0.00  0.00    +0.000 C 
ATOM     12  H   UNL     1      -2.605  12.852  21.027  0.00  0.00    +0.000 HD
ENDROOT
BRANCH   7  13
ATOM     13  C   UNL     1      -4.113  14.371  22.572  0.00  0.00    +0.000 A 
ATOM     14  C   UNL     1      -4.889  15.386  23.165  0.00  0.00    +0.000 A 
ATOM     15  C   UNL     1      -4.496  15.963  24.374  0.00  0.00    +0.000 A 
ATOM     16  C   UNL     1      -3.329  15.537  25.007  0.00  0.00    +0.000 A 
ATOM     17  C   UNL     1      -2.548  14.532  24.429  0.00  0.00    +0.000 A 
ATOM     18  C   UNL     1      -2.933  13.952  23.215  0.00  0.00    +0.000 A 
ENDBRANCH   7  13
BRANCH   1  20
ATOM     19  N   UNL     1      -1.021  10.481  19.268  0.00  0.00    +0.000 N 
ATOM     20  C   UNL     1      -1.735  11.356  18.488  0.00  0.00    +0.000 C 
ATOM     21  O   UNL     1      -1.169  12.092  17.696  0.00  0.00    +0.000 OA
ATOM     22  H   UNL     1      -1.559   9.899  19.917  0.00  0.00    +0.000 HD
BRANCH  19  23
ATOM     23  C   UNL     1       0.445  10.301  19.277  0.00  0.00    +0.000 C 
BRANCH  23  24
ATOM     24  C   UNL     1       1.181  11.658  19.492  0.00  0.00    +0.000 A 
ATOM     25  C   UNL     1       2.055  12.149  18.490  0.00  0.00    +0.000 A 
ATOM     26  C   UNL     1       2.727  13.367  18.642  0.00  0.00    +0.000 A 
ATOM     27  C   UNL     1       2.545  14.138  19.795  0.00  0.00    +0.000 A 
ATOM     28  C   UNL     1       3.245  15.456  19.965  0.00  0.00    +0.000 C 
ATOM     29  C   UNL     1       1.696  13.669  20.800  0.00  0.00    +0.000 A 
ATOM     30  C   UNL     1       1.033  12.446  20.660  0.00  0.00    +0.000 A 
ENDBRANCH  23  24
BRANCH  23  32
ATOM     31  C   UNL     1      -0.270   8.941  21.480  0.00  0.00    +0.000 C 
ATOM     32  C   UNL     1       0.833   9.392  20.505  0.00  0.00    +0.000 C 
ENDBRANCH  23  32
BRANCH  23  33
ATOM     33  C   UNL     1       0.928   9.718  17.899  0.00  0.00    +0.000 C 
ATOM     34  C   UNL     1       1.937   8.563  17.908  0.00  0.00    +0.000 C 
ENDBRANCH  23  33
ENDBRANCH  19  23
ENDBRANCH   1  20
TORSDOF 6
ENDMDL
MODEL 9
REMARK VINA RESULT:      -7.4      4.648     10.641
REMARK  Name = 
REMARK  11 active torsions:
REMARK  status: ('A' for Active; 'I' for Inactive)
REMARK    1  A    between atoms: C_1  and  C_2
REMARK    2  A    between atoms: C_2  and  C_3
REMARK    3  A    between atoms: C_3  and  C_4
REMARK    4  A    between atoms: C_3  and  N_6
REMARK    5  A    between atoms: C_3  and  C_26
REMARK    6  A    between atoms: C_4  and  C_5
REMARK    7  A    between atoms: C_7  and  C_9
REMARK    8  A    between atoms: C_15  and  C_16
REMARK    9  A    between atoms: C_23  and  C_24
REMARK   10  A    between atoms: C_23  and  C_25
REMARK   11  A    between atoms: C_29  and  C_30
REMARK                            x       y       z     vdW  Elec       q    Type
REMARK                         _______ _______ _______ _____ _____    ______ ____
ROOT
ATOM      1  C   UNL     1      -3.205  11.482  18.608  0.00  0.00    +0.000 A 
ATOM      2  C   UNL     1      -4.137  10.943  17.725  0.00  0.00    +0.000 A 
ATOM      3  N   UNL     1      -5.382  11.233  18.145  0.00  0.00    +0.000 NA
ATOM      4  N   UNL     1      -5.281  11.925  19.267  0.00  0.00    +0.000 N 
ATOM      5  C   UNL     1      -3.983  12.113  19.566  0.00  0.00    +0.000 A 
ATOM      6  N   UNL     1      -3.586  12.876  20.697  0.00  0.00    +0.000 N 
ATOM      7  C   UNL     1      -4.598  13.729  21.303  0.00  0.00    +0.000 C 
ATOM      8  C   UNL     1      -5.901  12.921  21.458  0.00  0.00    +0.000 C 
ATOM      9  C   UNL     1      -6.415  12.425  20.065  0.00  0.00    +0.000 C 
ATOM     10  C   UNL     1      -7.434  11.293  20.299  0.00  0.00    +0.000 C 
ATOM     11  C   UNL     1      -7.098  13.561  19.280  0.00  0.00    +0.000 C 
ATOM     12  H   UNL     1      -2.620  12.849  21.057  0.00  0.00    +0.000 HD
ENDROOT
BRANCH   7  13
ATOM     13  C   UNL     1      -4.145  14.336  22.616  0.00  0.00    +0.000 A 
ATOM     14  C   UNL     1      -2.958  13.876  23.218  0.00  0.00    +0.000 A 
ATOM     15  C   UNL     1      -2.502  14.441  24.411  0.00  0.00    +0.000 A 
ATOM     16  C   UNL     1      -3.220  15.472  25.017  0.00  0.00    +0.000 A 
ATOM     17  C   UNL     1      -4.401  15.938  24.432  0.00  0.00    +0.000 A 
ATOM     18  C   UNL     1      -4.866  15.373  23.238  0.00  0.00    +0.000 A 
ENDBRANCH   7  13
BRANCH   1  20
ATOM     19  N   UNL     1      -1.018  10.500  19.253  0.00  0.00    +0.000 N 
ATOM     20  C   UNL     1      -1.722  11.405  18.498  0.00  0.00    +0.000 C 
ATOM     21  O   UNL     1      -1.146  12.170  17.741  0.00  0.00    +0.000 OA
ATOM     22  H   UNL     1      -1.563   9.894  19.873  0.00  0.00    +0.000 HD
BRANCH  19  23
ATOM     23  C   UNL     1       0.448  10.318  19.272  0.00  0.00    +0.000 C 
BRANCH  23  24
ATOM     24  C   UNL     1       1.186  11.678  19.464  0.00  0.00    +0.000 A 
ATOM     25  C   UNL     1       0.990  12.422  20.654  0.00  0.00    +0.000 A 
ATOM     26  C   UNL     1       1.640  13.642  20.867  0.00  0.00    +0.000 A 
ATOM     27  C   UNL     1       2.512  14.158  19.903  0.00  0.00    +0.000 A 
ATOM     28  C   UNL     1       3.232  15.458  20.123  0.00  0.00    +0.000 C 
ATOM     29  C   UNL     1       2.713  13.447  18.717  0.00  0.00    +0.000 A 
ATOM     30  C   UNL     1       2.055  12.234  18.493  0.00  0.00    +0.000 A 
ENDBRANCH  23  24
BRANCH  23  32
ATOM     31  C   UNL     1      -0.287   8.947  21.461  0.00  0.00    +0.000 C 
ATOM     32  C   UNL     1       0.829   9.432  20.519  0.00  0.00    +0.000 C 
ENDBRANCH  23  32
BRANCH  23  33
ATOM     33  C   UNL     1       0.937   9.708  17.907  0.00  0.00    +0.000 C 
ATOM     34  C   UNL     1       1.961   8.567  17.942  0.00  0.00    +0.000 C 
ENDBRANCH  23  33
ENDBRANCH  19  23
ENDBRANCH   1  20
TORSDOF 6
ENDMDL
