MODEL 1
REMARK VINA RESULT:      -8.6      0.000      0.000
REMARK  Name = 
REMARK  1 active torsions:
REMARK  status: ('A' for Active; 'I' for Inactive)
REMARK    1  A    between atoms: C_7  and  N_8
REMARK                            x       y       z     vdW  Elec       q    Type
REMARK                         _______ _______ _______ _____ _____    ______ ____
ROOT
ATOM      1  N   UNL     1       1.686   6.671  20.756  0.00  0.00    +0.000 N 
ATOM      2  C   UNL     1       2.103   5.384  20.412  0.00  0.00    +0.000 A 
ATOM      3  N   UNL     1       1.607   4.390  21.172  0.00  0.00    +0.000 NA
ATOM      4  C   UNL     1       1.984   3.115  20.914  0.00  0.00    +0.000 A 
ATOM      5  C   UNL     1       2.862   2.850  19.869  0.00  0.00    +0.000 A 
ATOM      6  C   UNL     1       3.463   1.700  19.312  0.00  0.00    +0.000 A 
ATOM      7  C   UNL     1       4.223   2.118  18.243  0.00  0.00    +0.000 A 
ATOM      8  N   UNL     1       4.106   3.497  18.103  0.00  0.00    +0.000 N 
ATOM      9  C   UNL     1       4.691   4.243  17.027  0.00  0.00    +0.000 A 
ATOM     10  C   UNL     1       4.570   5.628  16.953  0.00  0.00    +0.000 A 
ATOM     11  C   UNL     1       5.099   6.301  15.853  0.00  0.00    +0.000 A 
ATOM     12  C   UNL     1       5.738   5.581  14.854  0.00  0.00    +0.000 A 
ATOM     13  C   UNL     1       5.835   4.211  15.004  0.00  0.00    +0.000 A 
ATOM     14  N   UNL     1       5.336   3.530  16.061  0.00  0.00    +0.000 NA
ATOM     15  C   UNL     1       3.306   3.949  19.147  0.00  0.00    +0.000 A 
ATOM     16  N   UNL     1       2.973   5.224  19.412  0.00  0.00    +0.000 NA
ATOM     17  H   UNL     1       0.946   6.597  21.441  0.00  0.00    +0.000 HD
ENDROOT
BRANCH   1  24
ATOM     18 CL   UNL     1       0.416   9.368  21.900  0.00  0.00    +0.000 Cl
ATOM     19  C   UNL     1       1.082   9.066  20.331  0.00  0.00    +0.000 A 
ATOM     20  C   UNL     1       1.106  10.156  19.448  0.00  0.00    +0.000 A 
ATOM     21  C   UNL     1       1.728  10.048  18.206  0.00  0.00    +0.000 A 
ATOM     22  C   UNL     1       2.342   8.854  17.845  0.00  0.00    +0.000 A 
ATOM     23  C   UNL     1       2.308   7.762  18.718  0.00  0.00    +0.000 A 
ATOM     24  C   UNL     1       1.649   7.831  19.959  0.00  0.00    +0.000 A 
ENDBRANCH   1  24
TORSDOF 1
ENDMDL
MODEL 2
REMARK VINA RESULT:      -8.0      2.593      5.458
REMARK  Name = 
REMARK  1 active torsions:
REMARK  status: ('A' for Active; 'I' for Inactive)
REMARK    1  A    between atoms: C_7  and  N_8
REMARK                            x       y       z     vdW  Elec       q    Type
REMARK                         _______ _______ _______ _____ _____    ______ ____
ROOT
ATOM      1  N   UNL     1       6.206   4.045  18.328  0.00  0.00    +0.000 N 
ATOM      2  C   UNL     1       5.120   3.680  19.126  0.00  0.00    +0.000 A 
ATOM      3  N   UNL     1       5.150   2.424  19.610  0.00  0.00    +0.000 NA
ATOM      4  C   UNL     1       4.119   1.990  20.373  0.00  0.00    +0.000 A 
ATOM      5  C   UNL     1       3.058   2.843  20.655  0.00  0.00    +0.000 A 
ATOM      6  C   UNL     1       1.851   2.759  21.384  0.00  0.00    +0.000 A 
ATOM      7  C   UNL     1       1.242   3.992  21.302  0.00  0.00    +0.000 A 
ATOM      8  N   UNL     1       2.038   4.852  20.553  0.00  0.00    +0.000 N 
ATOM      9  C   UNL     1       1.746   6.242  20.356  0.00  0.00    +0.000 A 
ATOM     10  C   UNL     1       2.561   7.052  19.568  0.00  0.00    +0.000 A 
ATOM     11  C   UNL     1       2.272   8.411  19.462  0.00  0.00    +0.000 A 
ATOM     12  C   UNL     1       1.179   8.933  20.138  0.00  0.00    +0.000 A 
ATOM     13  C   UNL     1       0.406   8.065  20.886  0.00  0.00    +0.000 A 
ATOM     14  N   UNL     1       0.657   6.742  21.007  0.00  0.00    +0.000 NA
ATOM     15  C   UNL     1       3.132   4.117  20.110  0.00  0.00    +0.000 A 
ATOM     16  N   UNL     1       4.128   4.554  19.319  0.00  0.00    +0.000 NA
ATOM     17  H   UNL     1       6.908   3.320  18.390  0.00  0.00    +0.000 HD
ENDROOT
BRANCH   1  24
ATOM     18 CL   UNL     1       4.950   5.752  15.939  0.00  0.00    +0.000 Cl
ATOM     19  C   UNL     1       6.260   6.166  16.994  0.00  0.00    +0.000 A 
ATOM     20  C   UNL     1       6.828   7.435  16.807  0.00  0.00    +0.000 A 
ATOM     21  C   UNL     1       7.806   7.909  17.679  0.00  0.00    +0.000 A 
ATOM     22  C   UNL     1       8.211   7.122  18.751  0.00  0.00    +0.000 A 
ATOM     23  C   UNL     1       7.655   5.852  18.932  0.00  0.00    +0.000 A 
ATOM     24  C   UNL     1       6.699   5.332  18.041  0.00  0.00    +0.000 A 
ENDBRANCH   1  24
TORSDOF 1
ENDMDL
MODEL 3
REMARK VINA RESULT:      -7.9      2.226      5.604
REMARK  Name = 
REMARK  1 active torsions:
REMARK  status: ('A' for Active; 'I' for Inactive)
REMARK    1  A    between atoms: C_7  and  N_8
REMARK                            x       y       z     vdW  Elec       q    Type
REMARK                         _______ _______ _______ _____ _____    ______ ____
ROOT
ATOM      1  N   UNL     1       5.030   2.838  17.157  0.00  0.00    +0.000 N 
ATOM      2  C   UNL     1       4.231   3.129  18.264  0.00  0.00    +0.000 A 
ATOM      3  N   UNL     1       4.121   2.147  19.177  0.00  0.00    +0.000 NA
ATOM      4  C   UNL     1       3.344   2.347  20.267  0.00  0.00    +0.000 A 
ATOM      5  C   UNL     1       2.683   3.559  20.434  0.00  0.00    +0.000 A 
ATOM      6  C   UNL     1       1.818   4.122  21.399  0.00  0.00    +0.000 A 
ATOM      7  C   UNL     1       1.534   5.405  20.988  0.00  0.00    +0.000 A 
ATOM      8  N   UNL     1       2.207   5.670  19.800  0.00  0.00    +0.000 N 
ATOM      9  C   UNL     1       2.209   6.949  19.152  0.00  0.00    +0.000 A 
ATOM     10  C   UNL     1       2.873   7.150  17.944  0.00  0.00    +0.000 A 
ATOM     11  C   UNL     1       2.902   8.428  17.387  0.00  0.00    +0.000 A 
ATOM     12  C   UNL     1       2.268   9.474  18.042  0.00  0.00    +0.000 A 
ATOM     13  C   UNL     1       1.615   9.194  19.227  0.00  0.00    +0.000 A 
ATOM     14  N   UNL     1       1.565   7.966  19.791  0.00  0.00    +0.000 NA
ATOM     15  C   UNL     1       2.871   4.504  19.436  0.00  0.00    +0.000 A 
ATOM     16  N   UNL     1       3.608   4.309  18.328  0.00  0.00    +0.000 NA
ATOM     17  H   UNL     1       5.514   1.967  17.330  0.00  0.00    +0.000 HD
ENDROOT
BRANCH   1  24
ATOM     18 CL   UNL     1       7.166   4.921  18.295  0.00  0.00    +0.000 Cl
ATOM     19  C   UNL     1       6.619   4.713  16.666  0.00  0.00    +0.000 A 
ATOM     20  C   UNL     1       7.215   5.541  15.702  0.00  0.00    +0.000 A 
ATOM     21  C   UNL     1       6.931   5.370  14.349  0.00  0.00    +0.000 A 
ATOM     22  C   UNL     1       6.059   4.363  13.950  0.00  0.00    +0.000 A 
ATOM     23  C   UNL     1       5.454   3.546  14.910  0.00  0.00    +0.000 A 
ATOM     24  C   UNL     1       5.689   3.725  16.285  0.00  0.00    +0.000 A 
ENDBRANCH   1  24
TORSDOF 1
ENDMDL
MODEL 4
REMARK VINA RESULT:      -7.6      1.821      4.358
REMARK  Name = 
REMARK  1 active torsions:
REMARK  status: ('A' for Active; 'I' for Inactive)
REMARK    1  A    between atoms: C_7  and  N_8
REMARK                            x       y       z     vdW  Elec       q    Type
REMARK                         _______ _______ _______ _____ _____    ______ ____
ROOT
ATOM      1  N   UNL     1       2.082   8.859  18.089  0.00  0.00    +0.000 N 
ATOM      2  C   UNL     1       2.906   7.788  17.737  0.00  0.00    +0.000 A 
ATOM      3  N   UNL     1       3.846   8.057  16.812  0.00  0.00    +0.000 NA
ATOM      4  C   UNL     1       4.668   7.062  16.403  0.00  0.00    +0.000 A 
ATOM      5  C   UNL     1       4.539   5.789  16.947  0.00  0.00    +0.000 A 
ATOM      6  C   UNL     1       5.184   4.542  16.783  0.00  0.00    +0.000 A 
ATOM      7  C   UNL     1       4.593   3.663  17.663  0.00  0.00    +0.000 A 
ATOM      8  N   UNL     1       3.605   4.324  18.385  0.00  0.00    +0.000 N 
ATOM      9  C   UNL     1       2.863   3.725  19.456  0.00  0.00    +0.000 A 
ATOM     10  C   UNL     1       1.860   4.423  20.125  0.00  0.00    +0.000 A 
ATOM     11  C   UNL     1       1.213   3.821  21.202  0.00  0.00    +0.000 A 
ATOM     12  C   UNL     1       1.575   2.539  21.587  0.00  0.00    +0.000 A 
ATOM     13  C   UNL     1       2.567   1.902  20.865  0.00  0.00    +0.000 A 
ATOM     14  N   UNL     1       3.210   2.457  19.814  0.00  0.00    +0.000 NA
ATOM     15  C   UNL     1       3.541   5.625  17.897  0.00  0.00    +0.000 A 
ATOM     16  N   UNL     1       2.691   6.590  18.288  0.00  0.00    +0.000 NA
ATOM     17  H   UNL     1       2.458   9.703  17.677  0.00  0.00    +0.000 HD
ENDROOT
BRANCH   1  24
ATOM     18 CL   UNL     1      -0.571  10.635  18.039  0.00  0.00    +0.000 Cl
ATOM     19  C   UNL     1       0.174   9.840  19.385  0.00  0.00    +0.000 A 
ATOM     20  C   UNL     1      -0.488   9.954  20.616  0.00  0.00    +0.000 A 
ATOM     21  C   UNL     1      -0.035   9.254  21.732  0.00  0.00    +0.000 A 
ATOM     22  C   UNL     1       1.076   8.425  21.620  0.00  0.00    +0.000 A 
ATOM     23  C   UNL     1       1.746   8.320  20.397  0.00  0.00    +0.000 A 
ATOM     24  C   UNL     1       1.335   9.050  19.267  0.00  0.00    +0.000 A 
ENDBRANCH   1  24
TORSDOF 1
ENDMDL
MODEL 5
REMARK VINA RESULT:      -7.6      7.171     11.185
REMARK  Name = 
REMARK  1 active torsions:
REMARK  status: ('A' for Active; 'I' for Inactive)
REMARK    1  A    between atoms: C_7  and  N_8
REMARK                            x       y       z     vdW  Elec       q    Type
REMARK                         _______ _______ _______ _____ _____    ______ ____
ROOT
ATOM      1  N   UNL     1      -2.288  11.869  17.628  0.00  0.00    +0.000 N 
ATOM      2  C   UNL     1      -3.632  11.943  17.998  0.00  0.00    +0.000 A 
ATOM      3  N   UNL     1      -4.521  11.750  17.006  0.00  0.00    +0.000 NA
ATOM      4  C   UNL     1      -5.843  11.831  17.284  0.00  0.00    +0.000 A 
ATOM      5  C   UNL     1      -6.263  12.098  18.582  0.00  0.00    +0.000 A 
ATOM      6  C   UNL     1      -7.505  12.253  19.238  0.00  0.00    +0.000 A 
ATOM      7  C   UNL     1      -7.234  12.476  20.570  0.00  0.00    +0.000 A 
ATOM      8  N   UNL     1      -5.858  12.453  20.772  0.00  0.00    +0.000 N 
ATOM      9  C   UNL     1      -5.239  12.553  22.062  0.00  0.00    +0.000 A 
ATOM     10  C   UNL     1      -3.853  12.558  22.204  0.00  0.00    +0.000 A 
ATOM     11  C   UNL     1      -3.300  12.591  23.483  0.00  0.00    +0.000 A 
ATOM     12  C   UNL     1      -4.136  12.620  24.589  0.00  0.00    +0.000 A 
ATOM     13  C   UNL     1      -5.500  12.631  24.369  0.00  0.00    +0.000 A 
ATOM     14  N   UNL     1      -6.068  12.604  23.142  0.00  0.00    +0.000 NA
ATOM     15  C   UNL     1      -5.263  12.274  19.528  0.00  0.00    +0.000 A 
ATOM     16  N   UNL     1      -3.946  12.235  19.264  0.00  0.00    +0.000 NA
ATOM     17  H   UNL     1      -2.235  11.522  16.679  0.00  0.00    +0.000 HD
ENDROOT
BRANCH   1  24
ATOM     18 CL   UNL     1      -0.353  14.232  18.557  0.00  0.00    +0.000 Cl
ATOM     19  C   UNL     1      -0.216  12.535  18.870  0.00  0.00    +0.000 A 
ATOM     20  C   UNL     1       0.867  12.138  19.669  0.00  0.00    +0.000 A 
ATOM     21  C   UNL     1       0.998  10.813  20.077  0.00  0.00    +0.000 A 
ATOM     22  C   UNL     1       0.041   9.878  19.697  0.00  0.00    +0.000 A 
ATOM     23  C   UNL     1      -1.032  10.269  18.890  0.00  0.00    +0.000 A 
ATOM     24  C   UNL     1      -1.164  11.591  18.429  0.00  0.00    +0.000 A 
ENDBRANCH   1  24
TORSDOF 1
ENDMDL
MODEL 6
REMARK VINA RESULT:      -7.5      7.368     10.615
REMARK  Name = 
REMARK  1 active torsions:
REMARK  status: ('A' for Active; 'I' for Inactive)
REMARK    1  A    between atoms: C_7  and  N_8
REMARK                            x       y       z     vdW  Elec       q    Type
REMARK                         _______ _______ _______ _____ _____    ______ ____
ROOT
ATOM      1  N   UNL     1      -5.924  11.703  16.846  0.00  0.00    +0.000 N 
ATOM      2  C   UNL     1      -4.607  11.289  17.051  0.00  0.00    +0.000 A 
ATOM      3  N   UNL     1      -4.059  10.574  16.051  0.00  0.00    +0.000 NA
ATOM      4  C   UNL     1      -2.791  10.118  16.188  0.00  0.00    +0.000 A 
ATOM      5  C   UNL     1      -2.074  10.401  17.345  0.00  0.00    +0.000 A 
ATOM      6  C   UNL     1      -0.781  10.112  17.837  0.00  0.00    +0.000 A 
ATOM      7  C   UNL     1      -0.670  10.725  19.065  0.00  0.00    +0.000 A 
ATOM      8  N   UNL     1      -1.850  11.402  19.353  0.00  0.00    +0.000 N 
ATOM      9  C   UNL     1      -2.034  12.229  20.510  0.00  0.00    +0.000 A 
ATOM     10  C   UNL     1      -3.250  12.858  20.768  0.00  0.00    +0.000 A 
ATOM     11  C   UNL     1      -3.358  13.705  21.870  0.00  0.00    +0.000 A 
ATOM     12  C   UNL     1      -2.258  13.903  22.691  0.00  0.00    +0.000 A 
ATOM     13  C   UNL     1      -1.091  13.231  22.382  0.00  0.00    +0.000 A 
ATOM     14  N   UNL     1      -0.954  12.401  21.324  0.00  0.00    +0.000 NA
ATOM     15  C   UNL     1      -2.733  11.150  18.309  0.00  0.00    +0.000 A 
ATOM     16  N   UNL     1      -4.003  11.580  18.208  0.00  0.00    +0.000 NA
ATOM     17  H   UNL     1      -6.176  11.508  15.886  0.00  0.00    +0.000 HD
ENDROOT
BRANCH   1  24
ATOM     18 CL   UNL     1      -7.185  11.382  19.762  0.00  0.00    +0.000 Cl
ATOM     19  C   UNL     1      -7.250  12.747  18.699  0.00  0.00    +0.000 A 
ATOM     20  C   UNL     1      -7.911  13.883  19.189  0.00  0.00    +0.000 A 
ATOM     21  C   UNL     1      -7.916  15.070  18.460  0.00  0.00    +0.000 A 
ATOM     22  C   UNL     1      -7.248  15.132  17.241  0.00  0.00    +0.000 A 
ATOM     23  C   UNL     1      -6.599  13.997  16.745  0.00  0.00    +0.000 A 
ATOM     24  C   UNL     1      -6.617  12.775  17.440  0.00  0.00    +0.000 A 
ENDBRANCH   1  24
TORSDOF 1
ENDMDL
MODEL 7
REMARK VINA RESULT:      -7.4      4.256      8.285
REMARK  Name = 
REMARK  1 active torsions:
REMARK  status: ('A' for Active; 'I' for Inactive)
REMARK    1  A    between atoms: C_7  and  N_8
REMARK                            x       y       z     vdW  Elec       q    Type
REMARK                         _______ _______ _______ _____ _____    ______ ____
ROOT
ATOM      1  N   UNL     1       1.076   9.322  21.214  0.00  0.00    +0.000 N 
ATOM      2  C   UNL     1       0.106  10.325  21.241  0.00  0.00    +0.000 A 
ATOM      3  N   UNL     1       0.153  11.151  22.303  0.00  0.00    +0.000 NA
ATOM      4  C   UNL     1      -0.771  12.134  22.411  0.00  0.00    +0.000 A 
ATOM      5  C   UNL     1      -1.741  12.285  21.427  0.00  0.00    +0.000 A 
ATOM      6  C   UNL     1      -2.830  13.156  21.195  0.00  0.00    +0.000 A 
ATOM      7  C   UNL     1      -3.390  12.792  19.991  0.00  0.00    +0.000 A 
ATOM      8  N   UNL     1      -2.678  11.726  19.453  0.00  0.00    +0.000 N 
ATOM      9  C   UNL     1      -2.936  11.166  18.158  0.00  0.00    +0.000 A 
ATOM     10  C   UNL     1      -2.212  10.075  17.681  0.00  0.00    +0.000 A 
ATOM     11  C   UNL     1      -2.455   9.609  16.390  0.00  0.00    +0.000 A 
ATOM     12  C   UNL     1      -3.412  10.236  15.605  0.00  0.00    +0.000 A 
ATOM     13  C   UNL     1      -4.103  11.300  16.153  0.00  0.00    +0.000 A 
ATOM     14  N   UNL     1      -3.894  11.773  17.403  0.00  0.00    +0.000 NA
ATOM     15  C   UNL     1      -1.693  11.383  20.373  0.00  0.00    +0.000 A 
ATOM     16  N   UNL     1      -0.808  10.377  20.268  0.00  0.00    +0.000 NA
ATOM     17  H   UNL     1       1.748   9.505  21.947  0.00  0.00    +0.000 HD
ENDROOT
BRANCH   1  24
ATOM     18 CL   UNL     1       1.707  10.830  18.472  0.00  0.00    +0.000 Cl
ATOM     19  C   UNL     1       1.856   9.145  18.838  0.00  0.00    +0.000 A 
ATOM     20  C   UNL     1       2.356   8.330  17.812  0.00  0.00    +0.000 A 
ATOM     21  C   UNL     1       2.625   6.983  18.045  0.00  0.00    +0.000 A 
ATOM     22  C   UNL     1       2.408   6.446  19.310  0.00  0.00    +0.000 A 
ATOM     23  C   UNL     1       1.898   7.254  20.330  0.00  0.00    +0.000 A 
ATOM     24  C   UNL     1       1.577   8.606  20.110  0.00  0.00    +0.000 A 
ENDBRANCH   1  24
TORSDOF 1
ENDMDL
MODEL 8
REMARK VINA RESULT:      -7.4      7.896     10.903
REMARK  Name = 
REMARK  1 active torsions:
REMARK  status: ('A' for Active; 'I' for Inactive)
REMARK    1  A    between atoms: C_7  and  N_8
REMARK                            x       y       z     vdW  Elec       q    Type
REMARK                         _______ _______ _______ _____ _____    ______ ____
ROOT
ATOM      1  N   UNL     1      -1.538  12.254  17.626  0.00  0.00    +0.000 N 
ATOM      2  C   UNL     1      -2.868  11.871  17.809  0.00  0.00    +0.000 A 
ATOM      3  N   UNL     1      -3.423  11.191  16.789  0.00  0.00    +0.000 NA
ATOM      4  C   UNL     1      -4.718  10.807  16.883  0.00  0.00    +0.000 A 
ATOM      5  C   UNL     1      -5.448  11.106  18.028  0.00  0.00    +0.000 A 
ATOM      6  C   UNL     1      -6.768  10.883  18.481  0.00  0.00    +0.000 A 
ATOM      7  C   UNL     1      -6.855  11.413  19.749  0.00  0.00    +0.000 A 
ATOM      8  N   UNL     1      -5.625  11.950  20.112  0.00  0.00    +0.000 N 
ATOM      9  C   UNL     1      -5.341  12.493  21.409  0.00  0.00    +0.000 A 
ATOM     10  C   UNL     1      -4.100  13.049  21.709  0.00  0.00    +0.000 A 
ATOM     11  C   UNL     1      -3.852  13.503  23.003  0.00  0.00    +0.000 A 
ATOM     12  C   UNL     1      -4.843  13.396  23.967  0.00  0.00    +0.000 A 
ATOM     13  C   UNL     1      -6.055  12.849  23.591  0.00  0.00    +0.000 A 
ATOM     14  N   UNL     1      -6.329  12.403  22.344  0.00  0.00    +0.000 NA
ATOM     15  C   UNL     1      -4.776  11.806  19.020  0.00  0.00    +0.000 A 
ATOM     16  N   UNL     1      -3.503  12.229  18.929  0.00  0.00    +0.000 NA
ATOM     17  H   UNL     1      -1.185  11.800  16.793  0.00  0.00    +0.000 HD
ENDROOT
BRANCH   1  24
ATOM     18 CL   UNL     1      -0.271   9.942  19.427  0.00  0.00    +0.000 Cl
ATOM     19  C   UNL     1       0.038  11.644  19.477  0.00  0.00    +0.000 A 
ATOM     20  C   UNL     1       1.001  12.072  20.404  0.00  0.00    +0.000 A 
ATOM     21  C   UNL     1       1.407  13.404  20.439  0.00  0.00    +0.000 A 
ATOM     22  C   UNL     1       0.862  14.314  19.539  0.00  0.00    +0.000 A 
ATOM     23  C   UNL     1      -0.106  13.893  18.624  0.00  0.00    +0.000 A 
ATOM     24  C   UNL     1      -0.566  12.563  18.596  0.00  0.00    +0.000 A 
ENDBRANCH   1  24
TORSDOF 1
ENDMDL
MODEL 9
REMARK VINA RESULT:      -7.4      6.914     10.917
REMARK  Name = 
REMARK  1 active torsions:
REMARK  status: ('A' for Active; 'I' for Inactive)
REMARK    1  A    between atoms: C_7  and  N_8
REMARK                            x       y       z     vdW  Elec       q    Type
REMARK                         _______ _______ _______ _____ _____    ______ ____
ROOT
ATOM      1  N   UNL     1      -1.393  11.434  17.857  0.00  0.00    +0.000 N 
ATOM      2  C   UNL     1      -2.784  11.545  17.840  0.00  0.00    +0.000 A 
ATOM      3  N   UNL     1      -3.378  11.238  16.671  0.00  0.00    +0.000 NA
ATOM      4  C   UNL     1      -4.724  11.345  16.571  0.00  0.00    +0.000 A 
ATOM      5  C   UNL     1      -5.471  11.754  17.670  0.00  0.00    +0.000 A 
ATOM      6  C   UNL     1      -6.839  11.976  17.945  0.00  0.00    +0.000 A 
ATOM      7  C   UNL     1      -6.930  12.349  19.268  0.00  0.00    +0.000 A 
ATOM      8  N   UNL     1      -5.660  12.354  19.836  0.00  0.00    +0.000 N 
ATOM      9  C   UNL     1      -5.408  12.599  21.226  0.00  0.00    +0.000 A 
ATOM     10  C   UNL     1      -4.112  12.625  21.736  0.00  0.00    +0.000 A 
ATOM     11  C   UNL     1      -3.923  12.803  23.106  0.00  0.00    +0.000 A 
ATOM     12  C   UNL     1      -5.025  12.952  23.935  0.00  0.00    +0.000 A 
ATOM     13  C   UNL     1      -6.279  12.933  23.354  0.00  0.00    +0.000 A 
ATOM     14  N   UNL     1      -6.496  12.768  22.030  0.00  0.00    +0.000 NA
ATOM     15  C   UNL     1      -4.758  12.038  18.826  0.00  0.00    +0.000 A 
ATOM     16  N   UNL     1      -3.419  11.975  18.934  0.00  0.00    +0.000 NA
ATOM     17  H   UNL     1      -1.096  10.984  17.001  0.00  0.00    +0.000 HD
ENDROOT
BRANCH   1  24
ATOM     18 CL   UNL     1       0.154  13.926  19.118  0.00  0.00    +0.000 Cl
ATOM     19  C   UNL     1       0.233  12.259  19.577  0.00  0.00    +0.000 A 
ATOM     20  C   UNL     1       1.055  11.956  20.672  0.00  0.00    +0.000 A 
ATOM     21  C   UNL     1       1.094  10.664  21.193  0.00  0.00    +0.000 A 
ATOM     22  C   UNL     1       0.301   9.670  20.630  0.00  0.00    +0.000 A 
ATOM     23  C   UNL     1      -0.509   9.967  19.530  0.00  0.00    +0.000 A 
ATOM     24  C   UNL     1      -0.534  11.252  18.957  0.00  0.00    +0.000 A 
ENDBRANCH   1  24
TORSDOF 1
ENDMDL
