MODEL 1
REMARK VINA RESULT:      -7.0      0.000      0.000
REMARK  Name = 
REMARK  7 active torsions:
REMARK  status: ('A' for Active; 'I' for Inactive)
REMARK    1  A    between atoms: C_2  and  O_3
REMARK    2  A    between atoms: C_2  and  C_4
REMARK    3  A    between atoms: C_4  and  C_5
REMARK    4  A    between atoms: C_9  and  O_10
REMARK    5  A    between atoms: O_10  and  C_11
REMARK    6  A    between atoms: C_11  and  C_12
REMARK    7  A    between atoms: C_12  and  C_13
REMARK                            x       y       z     vdW  Elec       q    Type
REMARK                         _______ _______ _______ _____ _____    ______ ____
ROOT
ATOM      1  C   UNL     1       6.203   4.691  15.789  0.00  0.00    +0.000 A 
ATOM      2  C   UNL     1       7.227   4.407  16.702  0.00  0.00    +0.000 A 
ATOM      3  C   UNL     1       7.349   5.152  17.874  0.00  0.00    +0.000 A 
ATOM      4  C   UNL     1       6.440   6.174  18.152  0.00  0.00    +0.000 A 
ATOM      5  C   UNL     1       5.387   6.438  17.277  0.00  0.00    +0.000 A 
ATOM      6  C   UNL     1       5.282   5.709  16.088  0.00  0.00    +0.000 A 
ENDROOT
BRANCH   1   7
ATOM      7  C   UNL     1       6.076   3.907  14.502  0.00  0.00    +0.000 C 
BRANCH   7   9
ATOM      8  O   UNL     1       7.610   5.373  13.382  0.00  0.00    +0.000 OA
ATOM      9  C   UNL     1       6.865   4.399  13.310  0.00  0.00    +0.000 C 
BRANCH   9  10
ATOM     10  O   UNL     1       6.715   3.726  12.150  0.00  0.00    +0.000 OA
ATOM     11  H   UNL     1       6.116   2.954  12.195  0.00  0.00    +0.000 HD
ENDBRANCH   9  10
ENDBRANCH   7   9
ENDBRANCH   1   7
BRANCH   5  12
ATOM     12  O   UNL     1       4.526   7.429  17.670  0.00  0.00    +0.000 OA
BRANCH  12  13
ATOM     13  C   UNL     1       3.148   7.045  17.737  0.00  0.00    +0.000 C 
BRANCH  13  14
ATOM     14  C   UNL     1       2.784   6.722  19.186  0.00  0.00    +0.000 C 
BRANCH  14  15
ATOM     15  C   UNL     1       2.170   5.349  19.297  0.00  0.00    +0.000 A 
ATOM     16  C   UNL     1       2.003   4.559  18.151  0.00  0.00    +0.000 A 
ATOM     17  C   UNL     1       1.391   3.308  18.234  0.00  0.00    +0.000 A 
ATOM     18  C   UNL     1       0.937   2.834  19.463  0.00  0.00    +0.000 A 
ATOM     19  C   UNL     1       1.097   3.612  20.609  0.00  0.00    +0.000 A 
ATOM     20  C   UNL     1       1.708   4.864  20.528  0.00  0.00    +0.000 A 
ENDBRANCH  14  15
ENDBRANCH  13  14
ENDBRANCH  12  13
ENDBRANCH   5  12
TORSDOF 7
ENDMDL
MODEL 2
REMARK VINA RESULT:      -7.0      1.875      2.790
REMARK  Name = 
REMARK  7 active torsions:
REMARK  status: ('A' for Active; 'I' for Inactive)
REMARK    1  A    between atoms: C_2  and  O_3
REMARK    2  A    between atoms: C_2  and  C_4
REMARK    3  A    between atoms: C_4  and  C_5
REMARK    4  A    between atoms: C_9  and  O_10
REMARK    5  A    between atoms: O_10  and  C_11
REMARK    6  A    between atoms: C_11  and  C_12
REMARK    7  A    between atoms: C_12  and  C_13
REMARK                            x       y       z     vdW  Elec       q    Type
REMARK                         _______ _______ _______ _____ _____    ______ ____
ROOT
ATOM      1  C   UNL     1       5.433   4.850  16.553  0.00  0.00    +0.000 A 
ATOM      2  C   UNL     1       6.107   5.428  17.636  0.00  0.00    +0.000 A 
ATOM      3  C   UNL     1       5.903   4.945  18.928  0.00  0.00    +0.000 A 
ATOM      4  C   UNL     1       5.038   3.872  19.146  0.00  0.00    +0.000 A 
ATOM      5  C   UNL     1       4.397   3.255  18.073  0.00  0.00    +0.000 A 
ATOM      6  C   UNL     1       4.580   3.758  16.781  0.00  0.00    +0.000 A 
ENDROOT
BRANCH   1   7
ATOM      7  C   UNL     1       5.627   5.381  15.150  0.00  0.00    +0.000 C 
BRANCH   7   9
ATOM      8  O   UNL     1       7.805   5.336  14.143  0.00  0.00    +0.000 OA
ATOM      9  C   UNL     1       6.732   4.766  14.321  0.00  0.00    +0.000 C 
BRANCH   9  10
ATOM     10  O   UNL     1       6.491   3.556  13.773  0.00  0.00    +0.000 OA
ATOM     11  H   UNL     1       5.740   3.529  13.146  0.00  0.00    +0.000 HD
ENDBRANCH   9  10
ENDBRANCH   7   9
ENDBRANCH   1   7
BRANCH   5  12
ATOM     12  O   UNL     1       3.608   2.181  18.394  0.00  0.00    +0.000 OA
BRANCH  12  13
ATOM     13  C   UNL     1       2.313   2.174  17.783  0.00  0.00    +0.000 C 
BRANCH  13  14
ATOM     14  C   UNL     1       1.288   2.737  18.767  0.00  0.00    +0.000 C 
BRANCH  14  15
ATOM     15  C   UNL     1       1.564   4.190  19.064  0.00  0.00    +0.000 A 
ATOM     16  C   UNL     1       1.813   5.087  18.016  0.00  0.00    +0.000 A 
ATOM     17  C   UNL     1       2.119   6.422  18.281  0.00  0.00    +0.000 A 
ATOM     18  C   UNL     1       2.180   6.874  19.598  0.00  0.00    +0.000 A 
ATOM     19  C   UNL     1       1.936   5.990  20.649  0.00  0.00    +0.000 A 
ATOM     20  C   UNL     1       1.631   4.654  20.384  0.00  0.00    +0.000 A 
ENDBRANCH  14  15
ENDBRANCH  13  14
ENDBRANCH  12  13
ENDBRANCH   5  12
TORSDOF 7
ENDMDL
MODEL 3
REMARK VINA RESULT:      -6.9      1.874      3.010
REMARK  Name = 
REMARK  7 active torsions:
REMARK  status: ('A' for Active; 'I' for Inactive)
REMARK    1  A    between atoms: C_2  and  O_3
REMARK    2  A    between atoms: C_2  and  C_4
REMARK    3  A    between atoms: C_4  and  C_5
REMARK    4  A    between atoms: C_9  and  O_10
REMARK    5  A    between atoms: O_10  and  C_11
REMARK    6  A    between atoms: C_11  and  C_12
REMARK    7  A    between atoms: C_12  and  C_13
REMARK                            x       y       z     vdW  Elec       q    Type
REMARK                         _______ _______ _______ _____ _____    ______ ____
ROOT
ATOM      1  C   UNL     1       5.469   4.885  16.649  0.00  0.00    +0.000 A 
ATOM      2  C   UNL     1       6.168   5.414  17.741  0.00  0.00    +0.000 A 
ATOM      3  C   UNL     1       5.949   4.912  19.024  0.00  0.00    +0.000 A 
ATOM      4  C   UNL     1       5.045   3.868  19.223  0.00  0.00    +0.000 A 
ATOM      5  C   UNL     1       4.376   3.300  18.139  0.00  0.00    +0.000 A 
ATOM      6  C   UNL     1       4.574   3.822  16.858  0.00  0.00    +0.000 A 
ENDROOT
BRANCH   1   7
ATOM      7  C   UNL     1       5.678   5.439  15.257  0.00  0.00    +0.000 C 
BRANCH   7   9
ATOM      8  O   UNL     1       7.830   5.392  14.195  0.00  0.00    +0.000 OA
ATOM      9  C   UNL     1       6.770   4.813  14.419  0.00  0.00    +0.000 C 
BRANCH   9  10
ATOM     10  O   UNL     1       6.532   3.584  13.913  0.00  0.00    +0.000 OA
ATOM     11  H   UNL     1       6.062   2.974  14.516  0.00  0.00    +0.000 HD
ENDBRANCH   9  10
ENDBRANCH   7   9
ENDBRANCH   1   7
BRANCH   5  12
ATOM     12  O   UNL     1       3.548   2.250  18.440  0.00  0.00    +0.000 OA
BRANCH  12  13
ATOM     13  C   UNL     1       2.257   2.300  17.823  0.00  0.00    +0.000 C 
BRANCH  13  14
ATOM     14  C   UNL     1       1.263   2.952  18.785  0.00  0.00    +0.000 C 
BRANCH  14  15
ATOM     15  C   UNL     1       1.637   4.388  19.056  0.00  0.00    +0.000 A 
ATOM     16  C   UNL     1       1.694   4.862  20.374  0.00  0.00    +0.000 A 
ATOM     17  C   UNL     1       1.989   6.201  20.635  0.00  0.00    +0.000 A 
ATOM     18  C   UNL     1       2.229   7.079  19.581  0.00  0.00    +0.000 A 
ATOM     19  C   UNL     1       2.173   6.619  18.266  0.00  0.00    +0.000 A 
ATOM     20  C   UNL     1       1.876   5.281  18.003  0.00  0.00    +0.000 A 
ENDBRANCH  14  15
ENDBRANCH  13  14
ENDBRANCH  12  13
ENDBRANCH   5  12
TORSDOF 7
ENDMDL
MODEL 4
REMARK VINA RESULT:      -6.8      0.692      1.198
REMARK  Name = 
REMARK  7 active torsions:
REMARK  status: ('A' for Active; 'I' for Inactive)
REMARK    1  A    between atoms: C_2  and  O_3
REMARK    2  A    between atoms: C_2  and  C_4
REMARK    3  A    between atoms: C_4  and  C_5
REMARK    4  A    between atoms: C_9  and  O_10
REMARK    5  A    between atoms: O_10  and  C_11
REMARK    6  A    between atoms: C_11  and  C_12
REMARK    7  A    between atoms: C_12  and  C_13
REMARK                            x       y       z     vdW  Elec       q    Type
REMARK                         _______ _______ _______ _____ _____    ______ ____
ROOT
ATOM      1  C   UNL     1       6.142   4.683  16.044  0.00  0.00    +0.000 A 
ATOM      2  C   UNL     1       6.984   4.482  17.144  0.00  0.00    +0.000 A 
ATOM      3  C   UNL     1       6.826   5.247  18.298  0.00  0.00    +0.000 A 
ATOM      4  C   UNL     1       5.816   6.207  18.370  0.00  0.00    +0.000 A 
ATOM      5  C   UNL     1       4.939   6.387  17.301  0.00  0.00    +0.000 A 
ATOM      6  C   UNL     1       5.116   5.639  16.133  0.00  0.00    +0.000 A 
ENDROOT
BRANCH   1   7
ATOM      7  C   UNL     1       6.320   3.877  14.776  0.00  0.00    +0.000 C 
BRANCH   7   9
ATOM      8  O   UNL     1       6.942   4.139  12.473  0.00  0.00    +0.000 OA
ATOM      9  C   UNL     1       7.046   4.542  13.628  0.00  0.00    +0.000 C 
BRANCH   9  10
ATOM     10  O   UNL     1       7.827   5.603  13.924  0.00  0.00    +0.000 OA
ATOM     11  H   UNL     1       8.079   5.681  14.866  0.00  0.00    +0.000 HD
ENDBRANCH   9  10
ENDBRANCH   7   9
ENDBRANCH   1   7
BRANCH   5  12
ATOM     12  O   UNL     1       3.954   7.320  17.494  0.00  0.00    +0.000 OA
BRANCH  12  13
ATOM     13  C   UNL     1       2.956   6.960  18.455  0.00  0.00    +0.000 C 
BRANCH  13  14
ATOM     14  C   UNL     1       2.170   5.755  17.939  0.00  0.00    +0.000 C 
BRANCH  14  15
ATOM     15  C   UNL     1       1.960   4.737  19.033  0.00  0.00    +0.000 A 
ATOM     16  C   UNL     1       1.206   3.582  18.783  0.00  0.00    +0.000 A 
ATOM     17  C   UNL     1       0.964   2.659  19.800  0.00  0.00    +0.000 A 
ATOM     18  C   UNL     1       1.470   2.882  21.079  0.00  0.00    +0.000 A 
ATOM     19  C   UNL     1       2.220   4.029  21.339  0.00  0.00    +0.000 A 
ATOM     20  C   UNL     1       2.462   4.954  20.323  0.00  0.00    +0.000 A 
ENDBRANCH  14  15
ENDBRANCH  13  14
ENDBRANCH  12  13
ENDBRANCH   5  12
TORSDOF 7
ENDMDL
MODEL 5
REMARK VINA RESULT:      -6.8      1.151      1.773
REMARK  Name = 
REMARK  7 active torsions:
REMARK  status: ('A' for Active; 'I' for Inactive)
REMARK    1  A    between atoms: C_2  and  O_3
REMARK    2  A    between atoms: C_2  and  C_4
REMARK    3  A    between atoms: C_4  and  C_5
REMARK    4  A    between atoms: C_9  and  O_10
REMARK    5  A    between atoms: O_10  and  C_11
REMARK    6  A    between atoms: C_11  and  C_12
REMARK    7  A    between atoms: C_12  and  C_13
REMARK                            x       y       z     vdW  Elec       q    Type
REMARK                         _______ _______ _______ _____ _____    ______ ____
ROOT
ATOM      1  C   UNL     1       6.283   4.365  16.710  0.00  0.00    +0.000 A 
ATOM      2  C   UNL     1       7.586   4.532  17.193  0.00  0.00    +0.000 A 
ATOM      3  C   UNL     1       7.803   5.128  18.435  0.00  0.00    +0.000 A 
ATOM      4  C   UNL     1       6.721   5.545  19.211  0.00  0.00    +0.000 A 
ATOM      5  C   UNL     1       5.416   5.342  18.765  0.00  0.00    +0.000 A 
ATOM      6  C   UNL     1       5.199   4.771  17.507  0.00  0.00    +0.000 A 
ENDROOT
BRANCH   1   7
ATOM      7  C   UNL     1       6.035   3.744  15.353  0.00  0.00    +0.000 C 
BRANCH   7   9
ATOM      8  O   UNL     1       6.519   3.990  13.015  0.00  0.00    +0.000 OA
ATOM      9  C   UNL     1       6.691   4.401  14.160  0.00  0.00    +0.000 C 
BRANCH   9  10
ATOM     10  O   UNL     1       7.488   5.464  14.401  0.00  0.00    +0.000 OA
ATOM     11  H   UNL     1       7.312   6.247  13.841  0.00  0.00    +0.000 HD
ENDBRANCH   9  10
ENDBRANCH   7   9
ENDBRANCH   1   7
BRANCH   5  12
ATOM     12  O   UNL     1       4.428   5.745  19.625  0.00  0.00    +0.000 OA
BRANCH  12  13
ATOM     13  C   UNL     1       3.390   6.533  19.031  0.00  0.00    +0.000 C 
BRANCH  13  14
ATOM     14  C   UNL     1       2.072   6.259  19.756  0.00  0.00    +0.000 C 
BRANCH  14  15
ATOM     15  C   UNL     1       1.723   4.793  19.708  0.00  0.00    +0.000 A 
ATOM     16  C   UNL     1       1.585   4.064  20.898  0.00  0.00    +0.000 A 
ATOM     17  C   UNL     1       1.312   2.696  20.865  0.00  0.00    +0.000 A 
ATOM     18  C   UNL     1       1.175   2.042  19.642  0.00  0.00    +0.000 A 
ATOM     19  C   UNL     1       1.311   2.757  18.452  0.00  0.00    +0.000 A 
ATOM     20  C   UNL     1       1.586   4.125  18.484  0.00  0.00    +0.000 A 
ENDBRANCH  14  15
ENDBRANCH  13  14
ENDBRANCH  12  13
ENDBRANCH   5  12
TORSDOF 7
ENDMDL
MODEL 6
REMARK VINA RESULT:      -6.8      2.686      6.732
REMARK  Name = 
REMARK  7 active torsions:
REMARK  status: ('A' for Active; 'I' for Inactive)
REMARK    1  A    between atoms: C_2  and  O_3
REMARK    2  A    between atoms: C_2  and  C_4
REMARK    3  A    between atoms: C_4  and  C_5
REMARK    4  A    between atoms: C_9  and  O_10
REMARK    5  A    between atoms: O_10  and  C_11
REMARK    6  A    between atoms: C_11  and  C_12
REMARK    7  A    between atoms: C_12  and  C_13
REMARK                            x       y       z     vdW  Elec       q    Type
REMARK                         _______ _______ _______ _____ _____    ______ ____
ROOT
ATOM      1  C   UNL     1       1.998   4.595  19.657  0.00  0.00    +0.000 A 
ATOM      2  C   UNL     1       2.201   5.967  19.856  0.00  0.00    +0.000 A 
ATOM      3  C   UNL     1       2.976   6.699  18.957  0.00  0.00    +0.000 A 
ATOM      4  C   UNL     1       3.538   6.072  17.844  0.00  0.00    +0.000 A 
ATOM      5  C   UNL     1       3.306   4.718  17.606  0.00  0.00    +0.000 A 
ATOM      6  C   UNL     1       2.553   3.978  18.524  0.00  0.00    +0.000 A 
ENDROOT
BRANCH   1   7
ATOM      7  C   UNL     1       1.182   3.785  20.640  0.00  0.00    +0.000 C 
BRANCH   7   9
ATOM      8  O   UNL     1       3.147   2.679  21.462  0.00  0.00    +0.000 OA
ATOM      9  C   UNL     1       1.933   2.842  21.552  0.00  0.00    +0.000 C 
BRANCH   9  10
ATOM     10  O   UNL     1       1.212   2.173  22.476  0.00  0.00    +0.000 OA
ATOM     11  H   UNL     1       1.680   1.429  22.907  0.00  0.00    +0.000 HD
ENDBRANCH   9  10
ENDBRANCH   7   9
ENDBRANCH   1   7
BRANCH   5  12
ATOM     12  O   UNL     1       3.865   4.214  16.461  0.00  0.00    +0.000 OA
BRANCH  12  13
ATOM     13  C   UNL     1       5.108   3.527  16.643  0.00  0.00    +0.000 C 
BRANCH  13  14
ATOM     14  C   UNL     1       6.221   4.302  15.936  0.00  0.00    +0.000 C 
BRANCH  14  15
ATOM     15  C   UNL     1       6.901   5.257  16.885  0.00  0.00    +0.000 A 
ATOM     16  C   UNL     1       7.414   4.792  18.104  0.00  0.00    +0.000 A 
ATOM     17  C   UNL     1       8.001   5.675  19.010  0.00  0.00    +0.000 A 
ATOM     18  C   UNL     1       8.079   7.033  18.709  0.00  0.00    +0.000 A 
ATOM     19  C   UNL     1       7.570   7.508  17.500  0.00  0.00    +0.000 A 
ATOM     20  C   UNL     1       6.982   6.625  16.593  0.00  0.00    +0.000 A 
ENDBRANCH  14  15
ENDBRANCH  13  14
ENDBRANCH  12  13
ENDBRANCH   5  12
TORSDOF 7
ENDMDL
MODEL 7
REMARK VINA RESULT:      -6.7      1.167      1.411
REMARK  Name = 
REMARK  7 active torsions:
REMARK  status: ('A' for Active; 'I' for Inactive)
REMARK    1  A    between atoms: C_2  and  O_3
REMARK    2  A    between atoms: C_2  and  C_4
REMARK    3  A    between atoms: C_4  and  C_5
REMARK    4  A    between atoms: C_9  and  O_10
REMARK    5  A    between atoms: O_10  and  C_11
REMARK    6  A    between atoms: C_11  and  C_12
REMARK    7  A    between atoms: C_12  and  C_13
REMARK                            x       y       z     vdW  Elec       q    Type
REMARK                         _______ _______ _______ _____ _____    ______ ____
ROOT
ATOM      1  C   UNL     1       6.210   4.389  16.654  0.00  0.00    +0.000 A 
ATOM      2  C   UNL     1       7.517   4.589  17.115  0.00  0.00    +0.000 A 
ATOM      3  C   UNL     1       7.740   5.150  18.373  0.00  0.00    +0.000 A 
ATOM      4  C   UNL     1       6.661   5.500  19.185  0.00  0.00    +0.000 A 
ATOM      5  C   UNL     1       5.354   5.263  18.760  0.00  0.00    +0.000 A 
ATOM      6  C   UNL     1       5.131   4.727  17.487  0.00  0.00    +0.000 A 
ENDROOT
BRANCH   1   7
ATOM      7  C   UNL     1       5.956   3.806  15.282  0.00  0.00    +0.000 C 
BRANCH   7   9
ATOM      8  O   UNL     1       6.628   3.955  12.983  0.00  0.00    +0.000 OA
ATOM      9  C   UNL     1       6.718   4.406  14.122  0.00  0.00    +0.000 C 
BRANCH   9  10
ATOM     10  O   UNL     1       7.514   5.464  14.387  0.00  0.00    +0.000 OA
ATOM     11  H   UNL     1       8.317   5.256  14.906  0.00  0.00    +0.000 HD
ENDBRANCH   9  10
ENDBRANCH   7   9
ENDBRANCH   1   7
BRANCH   5  12
ATOM     12  O   UNL     1       4.371   5.599  19.654  0.00  0.00    +0.000 OA
BRANCH  12  13
ATOM     13  C   UNL     1       3.417   6.555  19.177  0.00  0.00    +0.000 C 
BRANCH  13  14
ATOM     14  C   UNL     1       2.049   6.250  19.787  0.00  0.00    +0.000 C 
BRANCH  14  15
ATOM     15  C   UNL     1       1.765   4.768  19.763  0.00  0.00    +0.000 A 
ATOM     16  C   UNL     1       1.558   4.111  18.542  0.00  0.00    +0.000 A 
ATOM     17  C   UNL     1       1.245   2.752  18.512  0.00  0.00    +0.000 A 
ATOM     18  C   UNL     1       1.134   2.036  19.701  0.00  0.00    +0.000 A 
ATOM     19  C   UNL     1       1.337   2.679  20.922  0.00  0.00    +0.000 A 
ATOM     20  C   UNL     1       1.648   4.039  20.954  0.00  0.00    +0.000 A 
ENDBRANCH  14  15
ENDBRANCH  13  14
ENDBRANCH  12  13
ENDBRANCH   5  12
TORSDOF 7
ENDMDL
MODEL 8
REMARK VINA RESULT:      -6.6      2.629      6.397
REMARK  Name = 
REMARK  7 active torsions:
REMARK  status: ('A' for Active; 'I' for Inactive)
REMARK    1  A    between atoms: C_2  and  O_3
REMARK    2  A    between atoms: C_2  and  C_4
REMARK    3  A    between atoms: C_4  and  C_5
REMARK    4  A    between atoms: C_9  and  O_10
REMARK    5  A    between atoms: O_10  and  C_11
REMARK    6  A    between atoms: C_11  and  C_12
REMARK    7  A    between atoms: C_12  and  C_13
REMARK                            x       y       z     vdW  Elec       q    Type
REMARK                         _______ _______ _______ _____ _____    ______ ____
ROOT
ATOM      1  C   UNL     1       2.402   5.140  19.670  0.00  0.00    +0.000 A 
ATOM      2  C   UNL     1       1.849   4.334  18.667  0.00  0.00    +0.000 A 
ATOM      3  C   UNL     1       2.673   3.531  17.879  0.00  0.00    +0.000 A 
ATOM      4  C   UNL     1       4.051   3.513  18.097  0.00  0.00    +0.000 A 
ATOM      5  C   UNL     1       4.611   4.274  19.123  0.00  0.00    +0.000 A 
ATOM      6  C   UNL     1       3.789   5.101  19.894  0.00  0.00    +0.000 A 
ENDROOT
BRANCH   1   7
ATOM      7  C   UNL     1       1.522   6.035  20.514  0.00  0.00    +0.000 C 
BRANCH   7   9
ATOM      8  O   UNL     1       1.997   8.089  19.368  0.00  0.00    +0.000 OA
ATOM      9  C   UNL     1       1.770   7.525  20.435  0.00  0.00    +0.000 C 
BRANCH   9  10
ATOM     10  O   UNL     1       1.739   8.218  21.593  0.00  0.00    +0.000 OA
ATOM     11  H   UNL     1       1.234   9.055  21.560  0.00  0.00    +0.000 HD
ENDBRANCH   9  10
ENDBRANCH   7   9
ENDBRANCH   1   7
BRANCH   5  12
ATOM     12  O   UNL     1       5.966   4.146  19.281  0.00  0.00    +0.000 OA
BRANCH  12  13
ATOM     13  C   UNL     1       6.675   5.377  19.462  0.00  0.00    +0.000 C 
BRANCH  13  14
ATOM     14  C   UNL     1       7.606   5.603  18.270  0.00  0.00    +0.000 C 
BRANCH  14  15
ATOM     15  C   UNL     1       6.868   5.423  16.967  0.00  0.00    +0.000 A 
ATOM     16  C   UNL     1       7.188   4.352  16.120  0.00  0.00    +0.000 A 
ATOM     17  C   UNL     1       6.548   4.205  14.889  0.00  0.00    +0.000 A 
ATOM     18  C   UNL     1       5.582   5.127  14.491  0.00  0.00    +0.000 A 
ATOM     19  C   UNL     1       5.258   6.197  15.324  0.00  0.00    +0.000 A 
ATOM     20  C   UNL     1       5.899   6.347  16.555  0.00  0.00    +0.000 A 
ENDBRANCH  14  15
ENDBRANCH  13  14
ENDBRANCH  12  13
ENDBRANCH   5  12
TORSDOF 7
ENDMDL
MODEL 9
REMARK VINA RESULT:      -6.6      2.836      6.726
REMARK  Name = 
REMARK  7 active torsions:
REMARK  status: ('A' for Active; 'I' for Inactive)
REMARK    1  A    between atoms: C_2  and  O_3
REMARK    2  A    between atoms: C_2  and  C_4
REMARK    3  A    between atoms: C_4  and  C_5
REMARK    4  A    between atoms: C_9  and  O_10
REMARK    5  A    between atoms: O_10  and  C_11
REMARK    6  A    between atoms: C_11  and  C_12
REMARK    7  A    between atoms: C_12  and  C_13
REMARK                            x       y       z     vdW  Elec       q    Type
REMARK                         _______ _______ _______ _____ _____    ______ ____
ROOT
ATOM      1  C   UNL     1       2.297   3.412  19.139  0.00  0.00    +0.000 A 
ATOM      2  C   UNL     1       2.158   4.786  19.371  0.00  0.00    +0.000 A 
ATOM      3  C   UNL     1       2.792   5.707  18.537  0.00  0.00    +0.000 A 
ATOM      4  C   UNL     1       3.556   5.264  17.457  0.00  0.00    +0.000 A 
ATOM      5  C   UNL     1       3.665   3.901  17.184  0.00  0.00    +0.000 A 
ATOM      6  C   UNL     1       3.053   2.977  18.037  0.00  0.00    +0.000 A 
ENDROOT
BRANCH   1   7
ATOM      7  C   UNL     1       1.636   2.403  20.051  0.00  0.00    +0.000 C 
BRANCH   7   9
ATOM      8  O   UNL     1       1.076   2.671  22.369  0.00  0.00    +0.000 OA
ATOM      9  C   UNL     1       1.952   2.492  21.527  0.00  0.00    +0.000 C 
BRANCH   9  10
ATOM     10  O   UNL     1       3.247   2.372  21.889  0.00  0.00    +0.000 OA
ATOM     11  H   UNL     1       3.665   1.521  21.651  0.00  0.00    +0.000 HD
ENDBRANCH   9  10
ENDBRANCH   7   9
ENDBRANCH   1   7
BRANCH   5  12
ATOM     12  O   UNL     1       4.398   3.577  16.072  0.00  0.00    +0.000 OA
BRANCH  12  13
ATOM     13  C   UNL     1       5.192   4.642  15.537  0.00  0.00    +0.000 C 
BRANCH  13  14
ATOM     14  C   UNL     1       6.663   4.390  15.866  0.00  0.00    +0.000 C 
BRANCH  14  15
ATOM     15  C   UNL     1       7.152   5.345  16.926  0.00  0.00    +0.000 A 
ATOM     16  C   UNL     1       7.219   6.719  16.656  0.00  0.00    +0.000 A 
ATOM     17  C   UNL     1       7.717   7.606  17.611  0.00  0.00    +0.000 A 
ATOM     18  C   UNL     1       8.155   7.128  18.845  0.00  0.00    +0.000 A 
ATOM     19  C   UNL     1       8.094   5.763  19.123  0.00  0.00    +0.000 A 
ATOM     20  C   UNL     1       7.598   4.874  18.168  0.00  0.00    +0.000 A 
ENDBRANCH  14  15
ENDBRANCH  13  14
ENDBRANCH  12  13
ENDBRANCH   5  12
TORSDOF 7
ENDMDL
