MODEL 1
REMARK VINA RESULT:      -7.9      0.000      0.000
REMARK  Name = 
REMARK  5 active torsions:
REMARK  status: ('A' for Active; 'I' for Inactive)
REMARK    1  A    between atoms: C_1  and  O_2
REMARK    2  A    between atoms: O_2  and  C_3
REMARK    3  A    between atoms: C_3  and  C_4
REMARK    4  A    between atoms: C_7  and  C_8
REMARK    5  A    between atoms: C_13  and  N_14
REMARK                            x       y       z     vdW  Elec       q    Type
REMARK                         _______ _______ _______ _____ _____    ______ ____
ROOT
ATOM      1  C   UNL     1       6.954   4.697  17.044  0.00  0.00    +0.000 C 
ATOM      2  O   UNL     1       7.916   4.401  17.756  0.00  0.00    +0.000 OA
ATOM      3  N   UNL     1       5.703   5.006  17.629  0.00  0.00    +0.000 N 
ATOM      4  C   UNL     1       5.670   5.215  19.074  0.00  0.00    +0.000 C 
ATOM      5  C   UNL     1       4.346   4.788  19.689  0.00  0.00    +0.000 C 
ATOM      6  C   UNL     1       3.104   5.392  19.009  0.00  0.00    +0.000 C 
ATOM      7  C   UNL     1       3.206   5.154  17.493  0.00  0.00    +0.000 C 
ATOM      8  C   UNL     1       4.554   5.492  16.863  0.00  0.00    +0.000 C 
ENDROOT
BRANCH   6   9
ATOM      9  N   UNL     1       2.681   6.760  19.396  0.00  0.00    +0.000 NA
ATOM     10  C   UNL     1       2.262   7.552  18.226  0.00  0.00    +0.000 C 
ATOM     11  C   UNL     1       1.971   9.013  18.573  0.00  0.00    +0.000 C 
ATOM     12  C   UNL     1       0.937   9.106  19.684  0.00  0.00    +0.000 C 
ATOM     13  C   UNL     1       1.426   8.321  20.890  0.00  0.00    +0.000 C 
ATOM     14  C   UNL     1       1.743   6.872  20.513  0.00  0.00    +0.000 C 
ENDBRANCH   6   9
BRANCH   1  18
ATOM     15  C   UNL     1       6.655   4.093  13.597  0.00  0.00    +0.000 A 
ATOM     16  N   UNL     1       7.370   5.197  13.516  0.00  0.00    +0.000 NA
ATOM     17  N   UNL     1       7.642   5.576  14.812  0.00  0.00    +0.000 NA
ATOM     18  C   UNL     1       7.058   4.688  15.595  0.00  0.00    +0.000 A 
ATOM     19  O   UNL     1       6.461   3.675  14.886  0.00  0.00    +0.000 OA
BRANCH  15  20
ATOM     20  C   UNL     1       6.050   3.281  12.516  0.00  0.00    +0.000 C 
BRANCH  20  22
ATOM     21  C   UNL     1       4.069   3.222  11.240  0.00  0.00    +0.000 C 
ATOM     22  O   UNL     1       4.647   3.559  12.493  0.00  0.00    +0.000 OA
ENDBRANCH  20  22
ENDBRANCH  15  20
ENDBRANCH   1  18
TORSDOF 4
ENDMDL
MODEL 2
REMARK VINA RESULT:      -7.5      1.092      1.620
REMARK  Name = 
REMARK  5 active torsions:
REMARK  status: ('A' for Active; 'I' for Inactive)
REMARK    1  A    between atoms: C_1  and  O_2
REMARK    2  A    between atoms: O_2  and  C_3
REMARK    3  A    between atoms: C_3  and  C_4
REMARK    4  A    between atoms: C_7  and  C_8
REMARK    5  A    between atoms: C_13  and  N_14
REMARK                            x       y       z     vdW  Elec       q    Type
REMARK                         _______ _______ _______ _____ _____    ______ ____
ROOT
ATOM      1  C   UNL     1       6.952   4.527  16.753  0.00  0.00    +0.000 C 
ATOM      2  O   UNL     1       7.960   4.453  17.460  0.00  0.00    +0.000 OA
ATOM      3  N   UNL     1       5.666   4.521  17.345  0.00  0.00    +0.000 N 
ATOM      4  C   UNL     1       5.591   4.689  18.793  0.00  0.00    +0.000 C 
ATOM      5  C   UNL     1       4.409   3.950  19.400  0.00  0.00    +0.000 C 
ATOM      6  C   UNL     1       3.056   4.255  18.732  0.00  0.00    +0.000 C 
ATOM      7  C   UNL     1       3.204   4.077  17.212  0.00  0.00    +0.000 C 
ATOM      8  C   UNL     1       4.431   4.736  16.588  0.00  0.00    +0.000 C 
ENDROOT
BRANCH   6   9
ATOM      9  N   UNL     1       2.323   5.477  19.145  0.00  0.00    +0.000 NA
ATOM     10  C   UNL     1       2.040   5.480  20.590  0.00  0.00    +0.000 C 
ATOM     11  C   UNL     1       1.151   6.648  21.018  0.00  0.00    +0.000 C 
ATOM     12  C   UNL     1       1.759   7.974  20.587  0.00  0.00    +0.000 C 
ATOM     13  C   UNL     1       1.989   7.953  19.085  0.00  0.00    +0.000 C 
ATOM     14  C   UNL     1       2.852   6.757  18.675  0.00  0.00    +0.000 C 
ENDBRANCH   6   9
BRANCH   1  18
ATOM     15  C   UNL     1       6.620   4.061  13.288  0.00  0.00    +0.000 A 
ATOM     16  N   UNL     1       7.363   5.149  13.244  0.00  0.00    +0.000 NA
ATOM     17  N   UNL     1       7.651   5.472  14.552  0.00  0.00    +0.000 NA
ATOM     18  C   UNL     1       7.048   4.570  15.305  0.00  0.00    +0.000 A 
ATOM     19  O   UNL     1       6.423   3.601  14.561  0.00  0.00    +0.000 OA
BRANCH  15  20
ATOM     20  C   UNL     1       5.989   3.306  12.181  0.00  0.00    +0.000 C 
BRANCH  20  22
ATOM     21  C   UNL     1       6.455   1.251  11.127  0.00  0.00    +0.000 C 
ATOM     22  O   UNL     1       6.994   2.482  11.583  0.00  0.00    +0.000 OA
ENDBRANCH  20  22
ENDBRANCH  15  20
ENDBRANCH   1  18
TORSDOF 4
ENDMDL
MODEL 3
REMARK VINA RESULT:      -6.9      2.316      3.145
REMARK  Name = 
REMARK  5 active torsions:
REMARK  status: ('A' for Active; 'I' for Inactive)
REMARK    1  A    between atoms: C_1  and  O_2
REMARK    2  A    between atoms: O_2  and  C_3
REMARK    3  A    between atoms: C_3  and  C_4
REMARK    4  A    between atoms: C_7  and  C_8
REMARK    5  A    between atoms: C_13  and  N_14
REMARK                            x       y       z     vdW  Elec       q    Type
REMARK                         _______ _______ _______ _____ _____    ______ ____
ROOT
ATOM      1  C   UNL     1       5.332   5.924  15.382  0.00  0.00    +0.000 C 
ATOM      2  O   UNL     1       5.077   7.112  15.174  0.00  0.00    +0.000 OA
ATOM      3  N   UNL     1       5.070   5.351  16.650  0.00  0.00    +0.000 N 
ATOM      4  C   UNL     1       4.263   6.129  17.586  0.00  0.00    +0.000 C 
ATOM      5  C   UNL     1       4.648   5.869  19.034  0.00  0.00    +0.000 C 
ATOM      6  C   UNL     1       4.678   4.381  19.427  0.00  0.00    +0.000 C 
ATOM      7  C   UNL     1       5.526   3.616  18.398  0.00  0.00    +0.000 C 
ATOM      8  C   UNL     1       5.221   3.923  16.935  0.00  0.00    +0.000 C 
ENDROOT
BRANCH   6   9
ATOM      9  N   UNL     1       3.402   3.721  19.795  0.00  0.00    +0.000 NA
ATOM     10  C   UNL     1       2.371   4.702  20.176  0.00  0.00    +0.000 C 
ATOM     11  C   UNL     1       1.097   4.046  20.710  0.00  0.00    +0.000 C 
ATOM     12  C   UNL     1       0.544   3.047  19.706  0.00  0.00    +0.000 C 
ATOM     13  C   UNL     1       1.617   2.023  19.376  0.00  0.00    +0.000 C 
ATOM     14  C   UNL     1       2.894   2.703  18.876  0.00  0.00    +0.000 C 
ENDBRANCH   6   9
BRANCH   1  18
ATOM     15  C   UNL     1       6.065   3.723  12.745  0.00  0.00    +0.000 A 
ATOM     16  N   UNL     1       7.272   4.233  12.883  0.00  0.00    +0.000 NA
ATOM     17  N   UNL     1       7.200   5.114  13.940  0.00  0.00    +0.000 NA
ATOM     18  C   UNL     1       5.949   5.095  14.362  0.00  0.00    +0.000 A 
ATOM     19  O   UNL     1       5.181   4.181  13.685  0.00  0.00    +0.000 OA
BRANCH  15  20
ATOM     20  C   UNL     1       5.558   2.762  11.739  0.00  0.00    +0.000 C 
BRANCH  20  22
ATOM     21  C   UNL     1       3.741   3.597  10.491  0.00  0.00    +0.000 C 
ATOM     22  O   UNL     1       4.137   2.910  11.668  0.00  0.00    +0.000 OA
ENDBRANCH  20  22
ENDBRANCH  15  20
ENDBRANCH   1  18
TORSDOF 4
ENDMDL
MODEL 4
REMARK VINA RESULT:      -6.9      3.473      5.448
REMARK  Name = 
REMARK  5 active torsions:
REMARK  status: ('A' for Active; 'I' for Inactive)
REMARK    1  A    between atoms: C_1  and  O_2
REMARK    2  A    between atoms: O_2  and  C_3
REMARK    3  A    between atoms: C_3  and  C_4
REMARK    4  A    between atoms: C_7  and  C_8
REMARK    5  A    between atoms: C_13  and  N_14
REMARK                            x       y       z     vdW  Elec       q    Type
REMARK                         _______ _______ _______ _____ _____    ______ ____
ROOT
ATOM      1  C   UNL     1       6.943   5.470  16.985  0.00  0.00    +0.000 C 
ATOM      2  O   UNL     1       7.514   4.778  16.140  0.00  0.00    +0.000 OA
ATOM      3  N   UNL     1       5.609   5.179  17.359  0.00  0.00    +0.000 N 
ATOM      4  C   UNL     1       5.047   3.907  16.915  0.00  0.00    +0.000 C 
ATOM      5  C   UNL     1       3.548   3.991  16.670  0.00  0.00    +0.000 C 
ATOM      6  C   UNL     1       2.744   4.576  17.846  0.00  0.00    +0.000 C 
ATOM      7  C   UNL     1       3.393   5.902  18.277  0.00  0.00    +0.000 C 
ATOM      8  C   UNL     1       4.909   5.869  18.445  0.00  0.00    +0.000 C 
ENDROOT
BRANCH   6   9
ATOM      9  N   UNL     1       2.369   3.675  18.963  0.00  0.00    +0.000 NA
ATOM     10  C   UNL     1       3.481   3.492  19.912  0.00  0.00    +0.000 C 
ATOM     11  C   UNL     1       3.177   2.447  20.987  0.00  0.00    +0.000 C 
ATOM     12  C   UNL     1       1.892   2.791  21.723  0.00  0.00    +0.000 C 
ATOM     13  C   UNL     1       0.759   2.922  20.719  0.00  0.00    +0.000 C 
ATOM     14  C   UNL     1       1.099   3.947  19.635  0.00  0.00    +0.000 C 
ENDBRANCH   6   9
BRANCH   1  18
ATOM     15  C   UNL     1       8.100   8.664  17.875  0.00  0.00    +0.000 A 
ATOM     16  N   UNL     1       8.585   8.011  18.912  0.00  0.00    +0.000 NA
ATOM     17  N   UNL     1       8.268   6.685  18.715  0.00  0.00    +0.000 NA
ATOM     18  C   UNL     1       7.594   6.622  17.582  0.00  0.00    +0.000 A 
ATOM     19  O   UNL     1       7.504   7.842  16.958  0.00  0.00    +0.000 OA
BRANCH  15  20
ATOM     20  C   UNL     1       8.109  10.117  17.589  0.00  0.00    +0.000 C 
BRANCH  20  22
ATOM     21  C   UNL     1       9.322  12.082  18.059  0.00  0.00    +0.000 C 
ATOM     22  O   UNL     1       9.313  10.664  18.134  0.00  0.00    +0.000 OA
ENDBRANCH  20  22
ENDBRANCH  15  20
ENDBRANCH   1  18
TORSDOF 4
ENDMDL
MODEL 5
REMARK VINA RESULT:      -6.9      2.310      3.245
REMARK  Name = 
REMARK  5 active torsions:
REMARK  status: ('A' for Active; 'I' for Inactive)
REMARK    1  A    between atoms: C_1  and  O_2
REMARK    2  A    between atoms: O_2  and  C_3
REMARK    3  A    between atoms: C_3  and  C_4
REMARK    4  A    between atoms: C_7  and  C_8
REMARK    5  A    between atoms: C_13  and  N_14
REMARK                            x       y       z     vdW  Elec       q    Type
REMARK                         _______ _______ _______ _____ _____    ______ ____
ROOT
ATOM      1  C   UNL     1       5.317   5.921  15.374  0.00  0.00    +0.000 C 
ATOM      2  O   UNL     1       5.071   7.107  15.143  0.00  0.00    +0.000 OA
ATOM      3  N   UNL     1       5.049   5.374  16.652  0.00  0.00    +0.000 N 
ATOM      4  C   UNL     1       4.247   6.175  17.572  0.00  0.00    +0.000 C 
ATOM      5  C   UNL     1       4.627   5.940  19.025  0.00  0.00    +0.000 C 
ATOM      6  C   UNL     1       4.647   4.460  19.447  0.00  0.00    +0.000 C 
ATOM      7  C   UNL     1       5.491   3.669  18.433  0.00  0.00    +0.000 C 
ATOM      8  C   UNL     1       5.190   3.950  16.965  0.00  0.00    +0.000 C 
ENDROOT
BRANCH   6   9
ATOM      9  N   UNL     1       3.366   3.815  19.825  0.00  0.00    +0.000 NA
ATOM     10  C   UNL     1       2.289   4.805  20.000  0.00  0.00    +0.000 C 
ATOM     11  C   UNL     1       0.999   4.188  20.541  0.00  0.00    +0.000 C 
ATOM     12  C   UNL     1       0.537   3.041  19.656  0.00  0.00    +0.000 C 
ATOM     13  C   UNL     1       1.654   2.017  19.541  0.00  0.00    +0.000 C 
ATOM     14  C   UNL     1       2.944   2.663  19.029  0.00  0.00    +0.000 C 
ENDBRANCH   6   9
BRANCH   1  18
ATOM     15  C   UNL     1       6.040   3.662  12.784  0.00  0.00    +0.000 A 
ATOM     16  N   UNL     1       7.248   4.172  12.908  0.00  0.00    +0.000 NA
ATOM     17  N   UNL     1       7.181   5.075  13.947  0.00  0.00    +0.000 NA
ATOM     18  C   UNL     1       5.931   5.069  14.371  0.00  0.00    +0.000 A 
ATOM     19  O   UNL     1       5.159   4.142  13.714  0.00  0.00    +0.000 OA
BRANCH  15  20
ATOM     20  C   UNL     1       5.528   2.682  11.799  0.00  0.00    +0.000 C 
BRANCH  20  22
ATOM     21  C   UNL     1       6.279   0.548  11.136  0.00  0.00    +0.000 C 
ATOM     22  O   UNL     1       6.637   1.907  11.334  0.00  0.00    +0.000 OA
ENDBRANCH  20  22
ENDBRANCH  15  20
ENDBRANCH   1  18
TORSDOF 4
ENDMDL
MODEL 6
REMARK VINA RESULT:      -6.8      2.066      2.697
REMARK  Name = 
REMARK  5 active torsions:
REMARK  status: ('A' for Active; 'I' for Inactive)
REMARK    1  A    between atoms: C_1  and  O_2
REMARK    2  A    between atoms: O_2  and  C_3
REMARK    3  A    between atoms: C_3  and  C_4
REMARK    4  A    between atoms: C_7  and  C_8
REMARK    5  A    between atoms: C_13  and  N_14
REMARK                            x       y       z     vdW  Elec       q    Type
REMARK                         _______ _______ _______ _____ _____    ______ ____
ROOT
ATOM      1  C   UNL     1       5.101   4.117  18.981  0.00  0.00    +0.000 C 
ATOM      2  O   UNL     1       5.130   3.167  19.766  0.00  0.00    +0.000 OA
ATOM      3  N   UNL     1       4.048   5.062  19.045  0.00  0.00    +0.000 N 
ATOM      4  C   UNL     1       3.174   5.015  20.214  0.00  0.00    +0.000 C 
ATOM      5  C   UNL     1       1.752   5.448  19.889  0.00  0.00    +0.000 C 
ATOM      6  C   UNL     1       1.649   6.804  19.168  0.00  0.00    +0.000 C 
ATOM      7  C   UNL     1       2.602   6.796  17.962  0.00  0.00    +0.000 C 
ATOM      8  C   UNL     1       4.012   6.284  18.240  0.00  0.00    +0.000 C 
ENDROOT
BRANCH   6   9
ATOM      9  N   UNL     1       1.690   8.043  19.984  0.00  0.00    +0.000 NA
ATOM     10  C   UNL     1       1.158   9.200  19.243  0.00  0.00    +0.000 C 
ATOM     11  C   UNL     1       1.332  10.518  20.000  0.00  0.00    +0.000 C 
ATOM     12  C   UNL     1       0.707  10.431  21.383  0.00  0.00    +0.000 C 
ATOM     13  C   UNL     1       1.315   9.259  22.134  0.00  0.00    +0.000 C 
ATOM     14  C   UNL     1       1.161   7.957  21.344  0.00  0.00    +0.000 C 
ENDBRANCH   6   9
BRANCH   1  18
ATOM     15  C   UNL     1       6.891   4.534  15.988  0.00  0.00    +0.000 A 
ATOM     16  N   UNL     1       7.904   4.690  16.817  0.00  0.00    +0.000 NA
ATOM     17  N   UNL     1       7.397   4.506  18.084  0.00  0.00    +0.000 NA
ATOM     18  C   UNL     1       6.105   4.270  17.944  0.00  0.00    +0.000 A 
ATOM     19  O   UNL     1       5.724   4.211  16.626  0.00  0.00    +0.000 OA
BRANCH  15  20
ATOM     20  C   UNL     1       6.851   4.668  14.514  0.00  0.00    +0.000 C 
BRANCH  20  22
ATOM     21  C   UNL     1       8.113   5.516  12.713  0.00  0.00    +0.000 C 
ATOM     22  O   UNL     1       7.932   5.518  14.121  0.00  0.00    +0.000 OA
ENDBRANCH  20  22
ENDBRANCH  15  20
ENDBRANCH   1  18
TORSDOF 4
ENDMDL
MODEL 7
REMARK VINA RESULT:      -6.7      2.307      3.305
REMARK  Name = 
REMARK  5 active torsions:
REMARK  status: ('A' for Active; 'I' for Inactive)
REMARK    1  A    between atoms: C_1  and  O_2
REMARK    2  A    between atoms: O_2  and  C_3
REMARK    3  A    between atoms: C_3  and  C_4
REMARK    4  A    between atoms: C_7  and  C_8
REMARK    5  A    between atoms: C_13  and  N_14
REMARK                            x       y       z     vdW  Elec       q    Type
REMARK                         _______ _______ _______ _____ _____    ______ ____
ROOT
ATOM      1  C   UNL     1       5.355   5.920  15.214  0.00  0.00    +0.000 C 
ATOM      2  O   UNL     1       5.169   7.110  14.951  0.00  0.00    +0.000 OA
ATOM      3  N   UNL     1       5.046   5.419  16.502  0.00  0.00    +0.000 N 
ATOM      4  C   UNL     1       4.271   6.280  17.390  0.00  0.00    +0.000 C 
ATOM      5  C   UNL     1       4.622   6.064  18.854  0.00  0.00    +0.000 C 
ATOM      6  C   UNL     1       4.566   4.596  19.312  0.00  0.00    +0.000 C 
ATOM      7  C   UNL     1       5.384   3.741  18.330  0.00  0.00    +0.000 C 
ATOM      8  C   UNL     1       5.115   3.999  16.851  0.00  0.00    +0.000 C 
ENDROOT
BRANCH   6   9
ATOM      9  N   UNL     1       3.251   4.022  19.689  0.00  0.00    +0.000 NA
ATOM     10  C   UNL     1       3.392   2.685  20.291  0.00  0.00    +0.000 C 
ATOM     11  C   UNL     1       2.046   2.004  20.545  0.00  0.00    +0.000 C 
ATOM     12  C   UNL     1       1.149   2.887  21.398  0.00  0.00    +0.000 C 
ATOM     13  C   UNL     1       0.986   4.237  20.721  0.00  0.00    +0.000 C 
ATOM     14  C   UNL     1       2.345   4.885  20.446  0.00  0.00    +0.000 C 
ENDBRANCH   6   9
BRANCH   1  18
ATOM     15  C   UNL     1       6.001   3.563  12.692  0.00  0.00    +0.000 A 
ATOM     16  N   UNL     1       7.230   4.021  12.817  0.00  0.00    +0.000 NA
ATOM     17  N   UNL     1       7.193   4.954  13.830  0.00  0.00    +0.000 NA
ATOM     18  C   UNL     1       5.940   5.015  14.241  0.00  0.00    +0.000 A 
ATOM     19  O   UNL     1       5.134   4.106  13.600  0.00  0.00    +0.000 OA
BRANCH  15  20
ATOM     20  C   UNL     1       5.456   2.580  11.728  0.00  0.00    +0.000 C 
BRANCH  20  22
ATOM     21  C   UNL     1       6.213   0.409  11.209  0.00  0.00    +0.000 C 
ATOM     22  O   UNL     1       6.545   1.789  11.245  0.00  0.00    +0.000 OA
ENDBRANCH  20  22
ENDBRANCH  15  20
ENDBRANCH   1  18
TORSDOF 4
ENDMDL
MODEL 8
REMARK VINA RESULT:      -6.6      3.590      5.513
REMARK  Name = 
REMARK  5 active torsions:
REMARK  status: ('A' for Active; 'I' for Inactive)
REMARK    1  A    between atoms: C_1  and  O_2
REMARK    2  A    between atoms: O_2  and  C_3
REMARK    3  A    between atoms: C_3  and  C_4
REMARK    4  A    between atoms: C_7  and  C_8
REMARK    5  A    between atoms: C_13  and  N_14
REMARK                            x       y       z     vdW  Elec       q    Type
REMARK                         _______ _______ _______ _____ _____    ______ ____
ROOT
ATOM      1  C   UNL     1       7.374   5.711  18.181  0.00  0.00    +0.000 C 
ATOM      2  O   UNL     1       8.254   4.885  18.432  0.00  0.00    +0.000 OA
ATOM      3  N   UNL     1       6.037   5.290  17.985  0.00  0.00    +0.000 N 
ATOM      4  C   UNL     1       5.706   3.914  18.344  0.00  0.00    +0.000 C 
ATOM      5  C   UNL     1       4.608   3.336  17.464  0.00  0.00    +0.000 C 
ATOM      6  C   UNL     1       3.343   4.208  17.369  0.00  0.00    +0.000 C 
ATOM      7  C   UNL     1       3.759   5.643  17.005  0.00  0.00    +0.000 C 
ATOM      8  C   UNL     1       4.917   6.218  17.815  0.00  0.00    +0.000 C 
ENDROOT
BRANCH   6   9
ATOM      9  N   UNL     1       2.333   4.108  18.450  0.00  0.00    +0.000 NA
ATOM     10  C   UNL     1       1.884   2.720  18.651  0.00  0.00    +0.000 C 
ATOM     11  C   UNL     1       0.731   2.608  19.649  0.00  0.00    +0.000 C 
ATOM     12  C   UNL     1       1.104   3.249  20.976  0.00  0.00    +0.000 C 
ATOM     13  C   UNL     1       1.512   4.692  20.737  0.00  0.00    +0.000 C 
ATOM     14  C   UNL     1       2.644   4.784  19.710  0.00  0.00    +0.000 C 
ENDBRANCH   6   9
BRANCH   1  18
ATOM     15  C   UNL     1       8.597   8.992  18.456  0.00  0.00    +0.000 A 
ATOM     16  N   UNL     1       8.009   9.126  17.285  0.00  0.00    +0.000 NA
ATOM     17  N   UNL     1       7.406   7.917  17.015  0.00  0.00    +0.000 NA
ATOM     18  C   UNL     1       7.685   7.122  18.032  0.00  0.00    +0.000 A 
ATOM     19  O   UNL     1       8.390   7.763  19.020  0.00  0.00    +0.000 OA
BRANCH  15  20
ATOM     20  C   UNL     1       9.429   9.959  19.208  0.00  0.00    +0.000 C 
BRANCH  20  22
ATOM     21  C   UNL     1      10.666  11.568  18.010  0.00  0.00    +0.000 C 
ATOM     22  O   UNL     1       9.388  11.208  18.512  0.00  0.00    +0.000 OA
ENDBRANCH  20  22
ENDBRANCH  15  20
ENDBRANCH   1  18
TORSDOF 4
ENDMDL
MODEL 9
REMARK VINA RESULT:      -6.5      1.751      2.669
REMARK  Name = 
REMARK  5 active torsions:
REMARK  status: ('A' for Active; 'I' for Inactive)
REMARK    1  A    between atoms: C_1  and  O_2
REMARK    2  A    between atoms: O_2  and  C_3
REMARK    3  A    between atoms: C_3  and  C_4
REMARK    4  A    between atoms: C_7  and  C_8
REMARK    5  A    between atoms: C_13  and  N_14
REMARK                            x       y       z     vdW  Elec       q    Type
REMARK                         _______ _______ _______ _____ _____    ______ ____
ROOT
ATOM      1  C   UNL     1       6.618   4.780  14.872  0.00  0.00    +0.000 C 
ATOM      2  O   UNL     1       7.560   5.576  14.883  0.00  0.00    +0.000 OA
ATOM      3  N   UNL     1       5.889   4.524  16.058  0.00  0.00    +0.000 N 
ATOM      4  C   UNL     1       6.118   5.412  17.194  0.00  0.00    +0.000 C 
ATOM      5  C   UNL     1       5.953   4.699  18.527  0.00  0.00    +0.000 C 
ATOM      6  C   UNL     1       4.627   3.931  18.677  0.00  0.00    +0.000 C 
ATOM      7  C   UNL     1       4.436   3.029  17.447  0.00  0.00    +0.000 C 
ATOM      8  C   UNL     1       4.681   3.697  16.097  0.00  0.00    +0.000 C 
ENDROOT
BRANCH   6   9
ATOM      9  N   UNL     1       3.417   4.684  19.090  0.00  0.00    +0.000 NA
ATOM     10  C   UNL     1       2.687   3.993  20.167  0.00  0.00    +0.000 C 
ATOM     11  C   UNL     1       1.354   4.663  20.504  0.00  0.00    +0.000 C 
ATOM     12  C   UNL     1       1.561   6.129  20.849  0.00  0.00    +0.000 C 
ATOM     13  C   UNL     1       2.270   6.819  19.696  0.00  0.00    +0.000 C 
ATOM     14  C   UNL     1       3.584   6.113  19.354  0.00  0.00    +0.000 C 
ENDBRANCH   6   9
BRANCH   1  18
ATOM     15  C   UNL     1       5.048   3.376  12.061  0.00  0.00    +0.000 A 
ATOM     16  N   UNL     1       6.275   2.982  11.787  0.00  0.00    +0.000 NA
ATOM     17  N   UNL     1       7.061   3.408  12.835  0.00  0.00    +0.000 NA
ATOM     18  C   UNL     1       6.263   4.049  13.668  0.00  0.00    +0.000 A 
ATOM     19  O   UNL     1       4.950   4.014  13.268  0.00  0.00    +0.000 OA
BRANCH  15  20
ATOM     20  C   UNL     1       3.811   3.232  11.260  0.00  0.00    +0.000 C 
BRANCH  20  22
ATOM     21  C   UNL     1       2.659   4.269   9.486  0.00  0.00    +0.000 C 
ATOM     22  O   UNL     1       3.909   4.116  10.140  0.00  0.00    +0.000 OA
ENDBRANCH  20  22
ENDBRANCH  15  20
ENDBRANCH   1  18
TORSDOF 4
ENDMDL
