MODEL 1
REMARK VINA RESULT:      -8.6      0.000      0.000
REMARK  Name = 
REMARK  5 active torsions:
REMARK  status: ('A' for Active; 'I' for Inactive)
REMARK    1  A    between atoms: O_1  and  C_2
REMARK    2  A    between atoms: C_5  and  C_6
REMARK    3  A    between atoms: C_6  and  N_7
REMARK    4  A    between atoms: N_19  and  C_20
REMARK    5  A    between atoms: C_20  and  C_21
REMARK                            x       y       z     vdW  Elec       q    Type
REMARK                         _______ _______ _______ _____ _____    ______ ____
ROOT
ATOM      1  N   UNL     1      -2.036  11.504  18.508  0.00  0.00    +0.000 NA
ATOM      2  C   UNL     1      -1.465  12.869  18.479  0.00  0.00    +0.000 C 
ATOM      3  C   UNL     1      -0.067  13.178  18.951  0.00  0.00    +0.000 A 
ATOM      4  C   UNL     1       0.170  14.556  19.218  0.00  0.00    +0.000 A 
ATOM      5  C   UNL     1       1.441  15.060  19.503  0.00  0.00    +0.000 A 
ATOM      6  C   UNL     1       2.518  14.197  19.543  0.00  0.00    +0.000 A 
ATOM      7  C   UNL     1       2.312  12.850  19.272  0.00  0.00    +0.000 A 
ATOM      8  C   UNL     1       1.039  12.339  18.955  0.00  0.00    +0.000 A 
ATOM      9  O   UNL     1       1.130  11.048  18.562  0.00  0.00    +0.000 OA
ATOM     10  C   UNL     1       0.081  10.091  18.699  0.00  0.00    +0.000 C 
ATOM     11  C   UNL     1       0.713   8.811  18.095  0.00  0.00    +0.000 C 
ATOM     12  C   UNL     1       1.978   8.358  18.873  0.00  0.00    +0.000 C 
ATOM     13  N   UNL     1       1.859   8.260  20.341  0.00  0.00    +0.000 NA
ATOM     14  C   UNL     1       1.069   9.354  20.905  0.00  0.00    +0.000 C 
ATOM     15  C   UNL     1      -0.221   9.711  20.156  0.00  0.00    +0.000 C 
ATOM     16  C   UNL     1      -1.152  10.516  17.857  0.00  0.00    +0.000 C 
ENDROOT
BRANCH   1  17
ATOM     17  C   UNL     1      -3.338  11.621  17.791  0.00  0.00    +0.000 C 
BRANCH  17  21
ATOM     18  C   UNL     1      -6.839  11.432  20.317  0.00  0.00    +0.000 A 
ATOM     19  C   UNL     1      -6.819  10.728  19.120  0.00  0.00    +0.000 A 
ATOM     20  C   UNL     1      -5.704  10.810  18.278  0.00  0.00    +0.000 A 
ATOM     21  C   UNL     1      -4.600  11.601  18.625  0.00  0.00    +0.000 A 
ATOM     22  C   UNL     1      -4.646  12.320  19.840  0.00  0.00    +0.000 A 
ATOM     23  C   UNL     1      -5.752  12.233  20.670  0.00  0.00    +0.000 A 
BRANCH  18  24
ATOM     24  O   UNL     1      -7.899  11.363  21.182  0.00  0.00    +0.000 OA
ATOM     25  H   UNL     1      -7.663  11.884  21.979  0.00  0.00    +0.000 HD
ENDBRANCH  18  24
ENDBRANCH  17  21
ENDBRANCH   1  17
BRANCH  13  26
ATOM     26  C   UNL     1       1.574   6.896  20.778  0.00  0.00    +0.000 C 
BRANCH  26  27
ATOM     27  C   UNL     1       2.338   5.817  20.063  0.00  0.00    +0.000 A 
ATOM     28  C   UNL     1       3.618   6.045  19.570  0.00  0.00    +0.000 A 
ATOM     29  N   UNL     1       4.075   4.849  19.125  0.00  0.00    +0.000 N 
ATOM     30  C   UNL     1       3.007   4.067  18.795  0.00  0.00    +0.000 A 
ATOM     31  C   UNL     1       2.887   3.014  17.901  0.00  0.00    +0.000 A 
ATOM     32  N   UNL     1       1.800   2.225  17.976  0.00  0.00    +0.000 NA
ATOM     33  C   UNL     1       0.896   2.474  18.954  0.00  0.00    +0.000 A 
ATOM     34  C   UNL     1       0.926   3.566  19.828  0.00  0.00    +0.000 A 
ATOM     35  C   UNL     1       1.992   4.465  19.663  0.00  0.00    +0.000 A 
ATOM     36  H   UNL     1       5.011   4.496  19.286  0.00  0.00    +0.000 HD
ENDBRANCH  26  27
ENDBRANCH  13  26
TORSDOF 5
ENDMDL
MODEL 2
REMARK VINA RESULT:      -8.5      3.600      9.238
REMARK  Name = 
REMARK  5 active torsions:
REMARK  status: ('A' for Active; 'I' for Inactive)
REMARK    1  A    between atoms: O_1  and  C_2
REMARK    2  A    between atoms: C_5  and  C_6
REMARK    3  A    between atoms: C_6  and  N_7
REMARK    4  A    between atoms: N_19  and  C_20
REMARK    5  A    between atoms: C_20  and  C_21
REMARK                            x       y       z     vdW  Elec       q    Type
REMARK                         _______ _______ _______ _____ _____    ______ ____
ROOT
ATOM      1  N   UNL     1       1.611   9.562  18.731  0.00  0.00    +0.000 NA
ATOM      2  C   UNL     1       1.001   8.921  19.918  0.00  0.00    +0.000 C 
ATOM      3  C   UNL     1       0.413   9.710  21.059  0.00  0.00    +0.000 A 
ATOM      4  C   UNL     1       0.238   8.965  22.258  0.00  0.00    +0.000 A 
ATOM      5  C   UNL     1      -0.442   9.471  23.369  0.00  0.00    +0.000 A 
ATOM      6  C   UNL     1      -0.959  10.751  23.319  0.00  0.00    +0.000 A 
ATOM      7  C   UNL     1      -0.812  11.492  22.153  0.00  0.00    +0.000 A 
ATOM      8  C   UNL     1      -0.154  10.977  21.020  0.00  0.00    +0.000 A 
ATOM      9  O   UNL     1      -0.297  11.814  19.967  0.00  0.00    +0.000 OA
ATOM     10  C   UNL     1       0.632  11.914  18.888  0.00  0.00    +0.000 C 
ATOM     11  C   UNL     1      -0.018  12.993  17.985  0.00  0.00    +0.000 C 
ATOM     12  C   UNL     1      -0.167  14.356  18.713  0.00  0.00    +0.000 C 
ATOM     13  N   UNL     1       1.029  14.879  19.404  0.00  0.00    +0.000 NA
ATOM     14  C   UNL     1       1.779  13.824  20.083  0.00  0.00    +0.000 C 
ATOM     15  C   UNL     1       1.982  12.525  19.293  0.00  0.00    +0.000 C 
ATOM     16  C   UNL     1       0.717  10.567  18.121  0.00  0.00    +0.000 C 
ENDROOT
BRANCH   1  17
ATOM     17  C   UNL     1       1.884   8.439  17.790  0.00  0.00    +0.000 C 
BRANCH  17  21
ATOM     18  C   UNL     1       4.722   5.351  18.837  0.00  0.00    +0.000 A 
ATOM     19  C   UNL     1       3.580   5.524  19.609  0.00  0.00    +0.000 A 
ATOM     20  C   UNL     1       2.672   6.542  19.301  0.00  0.00    +0.000 A 
ATOM     21  C   UNL     1       2.900   7.402  18.216  0.00  0.00    +0.000 A 
ATOM     22  C   UNL     1       4.074   7.219  17.451  0.00  0.00    +0.000 A 
ATOM     23  C   UNL     1       4.968   6.206  17.762  0.00  0.00    +0.000 A 
BRANCH  18  24
ATOM     24  O   UNL     1       5.625   4.354  19.089  0.00  0.00    +0.000 OA
ATOM     25  H   UNL     1       6.207   4.279  18.304  0.00  0.00    +0.000 HD
ENDBRANCH  18  24
ENDBRANCH  17  21
ENDBRANCH   1  17
BRANCH  13  26
ATOM     26  C   UNL     1       1.762  15.837  18.581  0.00  0.00    +0.000 C 
BRANCH  26  27
ATOM     27  C   UNL     1       3.123  16.218  19.093  0.00  0.00    +0.000 A 
ATOM     28  C   UNL     1       3.291  17.276  19.978  0.00  0.00    +0.000 A 
ATOM     29  N   UNL     1       4.594  17.258  20.352  0.00  0.00    +0.000 N 
ATOM     30  C   UNL     1       5.325  16.660  19.368  0.00  0.00    +0.000 A 
ATOM     31  C   UNL     1       6.659  16.790  19.012  0.00  0.00    +0.000 A 
ATOM     32  N   UNL     1       7.199  15.872  18.190  0.00  0.00    +0.000 NA
ATOM     33  C   UNL     1       6.421  14.840  17.786  0.00  0.00    +0.000 A 
ATOM     34  C   UNL     1       5.054  14.702  18.048  0.00  0.00    +0.000 A 
ATOM     35  C   UNL     1       4.458  15.730  18.795  0.00  0.00    +0.000 A 
ATOM     36  H   UNL     1       4.920  17.393  21.302  0.00  0.00    +0.000 HD
ENDBRANCH  26  27
ENDBRANCH  13  26
TORSDOF 5
ENDMDL
MODEL 3
REMARK VINA RESULT:      -8.3      2.292      5.246
REMARK  Name = 
REMARK  5 active torsions:
REMARK  status: ('A' for Active; 'I' for Inactive)
REMARK    1  A    between atoms: O_1  and  C_2
REMARK    2  A    between atoms: C_5  and  C_6
REMARK    3  A    between atoms: C_6  and  N_7
REMARK    4  A    between atoms: N_19  and  C_20
REMARK    5  A    between atoms: C_20  and  C_21
REMARK                            x       y       z     vdW  Elec       q    Type
REMARK                         _______ _______ _______ _____ _____    ______ ____
ROOT
ATOM      1  N   UNL     1       0.745  12.705  19.565  0.00  0.00    +0.000 NA
ATOM      2  C   UNL     1      -0.685  12.859  19.215  0.00  0.00    +0.000 C 
ATOM      3  C   UNL     1      -1.497  11.750  18.596  0.00  0.00    +0.000 A 
ATOM      4  C   UNL     1      -2.703  12.181  17.978  0.00  0.00    +0.000 A 
ATOM      5  C   UNL     1      -3.665  11.289  17.498  0.00  0.00    +0.000 A 
ATOM      6  C   UNL     1      -3.444   9.930  17.611  0.00  0.00    +0.000 A 
ATOM      7  C   UNL     1      -2.279   9.487  18.224  0.00  0.00    +0.000 A 
ATOM      8  C   UNL     1      -1.318  10.380  18.736  0.00  0.00    +0.000 A 
ATOM      9  O   UNL     1      -0.374   9.710  19.435  0.00  0.00    +0.000 OA
ATOM     10  C   UNL     1       0.969  10.163  19.607  0.00  0.00    +0.000 C 
ATOM     11  C   UNL     1       1.593   9.040  20.474  0.00  0.00    +0.000 C 
ATOM     12  C   UNL     1       1.563   7.662  19.760  0.00  0.00    +0.000 C 
ATOM     13  N   UNL     1       2.068   7.617  18.373  0.00  0.00    +0.000 NA
ATOM     14  C   UNL     1       1.666   8.793  17.601  0.00  0.00    +0.000 C 
ATOM     15  C   UNL     1       1.797  10.144  18.313  0.00  0.00    +0.000 C 
ATOM     16  C   UNL     1       0.991  11.504  20.389  0.00  0.00    +0.000 C 
ENDROOT
BRANCH   1  17
ATOM     17  C   UNL     1       1.090  13.951  20.308  0.00  0.00    +0.000 C 
BRANCH  17  21
ATOM     18  C   UNL     1       1.578  17.469  17.844  0.00  0.00    +0.000 A 
ATOM     19  C   UNL     1       2.584  16.512  17.880  0.00  0.00    +0.000 A 
ATOM     20  C   UNL     1       2.452  15.386  18.700  0.00  0.00    +0.000 A 
ATOM     21  C   UNL     1       1.312  15.209  19.497  0.00  0.00    +0.000 A 
ATOM     22  C   UNL     1       0.306  16.200  19.457  0.00  0.00    +0.000 A 
ATOM     23  C   UNL     1       0.443  17.312  18.641  0.00  0.00    +0.000 A 
BRANCH  18  24
ATOM     24  O   UNL     1       1.655  18.573  17.039  0.00  0.00    +0.000 OA
ATOM     25  H   UNL     1       2.606  18.766  16.895  0.00  0.00    +0.000 HD
ENDBRANCH  18  24
ENDBRANCH  17  21
ENDBRANCH   1  17
BRANCH  13  26
ATOM     26  C   UNL     1       3.462   7.185  18.311  0.00  0.00    +0.000 C 
BRANCH  26  27
ATOM     27  C   UNL     1       3.672   5.720  18.052  0.00  0.00    +0.000 A 
ATOM     28  C   UNL     1       4.491   5.280  17.019  0.00  0.00    +0.000 A 
ATOM     29  N   UNL     1       4.584   3.935  17.150  0.00  0.00    +0.000 N 
ATOM     30  C   UNL     1       3.474   3.480  17.801  0.00  0.00    +0.000 A 
ATOM     31  C   UNL     1       2.845   2.244  17.782  0.00  0.00    +0.000 A 
ATOM     32  N   UNL     1       1.938   1.968  18.737  0.00  0.00    +0.000 NA
ATOM     33  C   UNL     1       1.716   2.898  19.696  0.00  0.00    +0.000 A 
ATOM     34  C   UNL     1       2.261   4.187  19.719  0.00  0.00    +0.000 A 
ATOM     35  C   UNL     1       3.106   4.523  18.649  0.00  0.00    +0.000 A 
ATOM     36  H   UNL     1       5.442   3.405  17.051  0.00  0.00    +0.000 HD
ENDBRANCH  26  27
ENDBRANCH  13  26
TORSDOF 5
ENDMDL
MODEL 4
REMARK VINA RESULT:      -8.3      1.776      2.291
REMARK  Name = 
REMARK  5 active torsions:
REMARK  status: ('A' for Active; 'I' for Inactive)
REMARK    1  A    between atoms: O_1  and  C_2
REMARK    2  A    between atoms: C_5  and  C_6
REMARK    3  A    between atoms: C_6  and  N_7
REMARK    4  A    between atoms: N_19  and  C_20
REMARK    5  A    between atoms: C_20  and  C_21
REMARK                            x       y       z     vdW  Elec       q    Type
REMARK                         _______ _______ _______ _____ _____    ______ ____
ROOT
ATOM      1  N   UNL     1      -2.118  12.450  20.829  0.00  0.00    +0.000 NA
ATOM      2  C   UNL     1      -1.365  13.710  21.018  0.00  0.00    +0.000 C 
ATOM      3  C   UNL     1       0.133  13.748  21.178  0.00  0.00    +0.000 A 
ATOM      4  C   UNL     1       0.633  14.959  21.733  0.00  0.00    +0.000 A 
ATOM      5  C   UNL     1       1.998  15.249  21.804  0.00  0.00    +0.000 A 
ATOM      6  C   UNL     1       2.911  14.325  21.333  0.00  0.00    +0.000 A 
ATOM      7  C   UNL     1       2.445  13.142  20.775  0.00  0.00    +0.000 A 
ATOM      8  C   UNL     1       1.070  12.856  20.673  0.00  0.00    +0.000 A 
ATOM      9  O   UNL     1       0.872  11.737  19.940  0.00  0.00    +0.000 OA
ATOM     10  C   UNL     1      -0.255  10.873  20.082  0.00  0.00    +0.000 C 
ATOM     11  C   UNL     1       0.021   9.782  19.016  0.00  0.00    +0.000 C 
ATOM     12  C   UNL     1       1.343   9.015  19.291  0.00  0.00    +0.000 C 
ATOM     13  N   UNL     1       1.541   8.496  20.659  0.00  0.00    +0.000 NA
ATOM     14  C   UNL     1       1.075   9.435  21.679  0.00  0.00    +0.000 C 
ATOM     15  C   UNL     1      -0.278  10.104  21.412  0.00  0.00    +0.000 C 
ATOM     16  C   UNL     1      -1.565  11.630  19.732  0.00  0.00    +0.000 C 
ENDROOT
BRANCH   1  17
ATOM     17  C   UNL     1      -3.513  12.883  20.530  0.00  0.00    +0.000 C 
BRANCH  17  21
ATOM     18  C   UNL     1      -6.419  13.018  23.726  0.00  0.00    +0.000 A 
ATOM     19  C   UNL     1      -5.064  13.061  24.029  0.00  0.00    +0.000 A 
ATOM     20  C   UNL     1      -4.114  12.983  23.005  0.00  0.00    +0.000 A 
ATOM     21  C   UNL     1      -4.511  12.857  21.666  0.00  0.00    +0.000 A 
ATOM     22  C   UNL     1      -5.894  12.802  21.379  0.00  0.00    +0.000 A 
ATOM     23  C   UNL     1      -6.829  12.881  22.400  0.00  0.00    +0.000 A 
BRANCH  18  24
ATOM     24  O   UNL     1      -7.382  13.114  24.694  0.00  0.00    +0.000 OA
ATOM     25  H   UNL     1      -7.094  13.805  25.328  0.00  0.00    +0.000 HD
ENDBRANCH  18  24
ENDBRANCH  17  21
ENDBRANCH   1  17
BRANCH  13  26
ATOM     26  C   UNL     1       1.155   7.092  20.775  0.00  0.00    +0.000 C 
BRANCH  26  27
ATOM     27  C   UNL     1       2.047   6.117  20.060  0.00  0.00    +0.000 A 
ATOM     28  C   UNL     1       3.250   6.522  19.493  0.00  0.00    +0.000 A 
ATOM     29  N   UNL     1       3.871   5.395  19.068  0.00  0.00    +0.000 N 
ATOM     30  C   UNL     1       2.927   4.440  18.822  0.00  0.00    +0.000 A 
ATOM     31  C   UNL     1       2.936   3.343  17.974  0.00  0.00    +0.000 A 
ATOM     32  N   UNL     1       1.993   2.397  18.135  0.00  0.00    +0.000 NA
ATOM     33  C   UNL     1       1.107   2.543  19.149  0.00  0.00    +0.000 A 
ATOM     34  C   UNL     1       1.003   3.663  19.981  0.00  0.00    +0.000 A 
ATOM     35  C   UNL     1       1.903   4.711  19.727  0.00  0.00    +0.000 A 
ATOM     36  H   UNL     1       4.858   5.201  19.191  0.00  0.00    +0.000 HD
ENDBRANCH  26  27
ENDBRANCH  13  26
TORSDOF 5
ENDMDL
MODEL 5
REMARK VINA RESULT:      -8.2      2.640      5.862
REMARK  Name = 
REMARK  5 active torsions:
REMARK  status: ('A' for Active; 'I' for Inactive)
REMARK    1  A    between atoms: O_1  and  C_2
REMARK    2  A    between atoms: C_5  and  C_6
REMARK    3  A    between atoms: C_6  and  N_7
REMARK    4  A    between atoms: N_19  and  C_20
REMARK    5  A    between atoms: C_20  and  C_21
REMARK                            x       y       z     vdW  Elec       q    Type
REMARK                         _______ _______ _______ _____ _____    ______ ____
ROOT
ATOM      1  N   UNL     1       1.291  12.293  19.708  0.00  0.00    +0.000 NA
ATOM      2  C   UNL     1      -0.025  12.598  19.104  0.00  0.00    +0.000 C 
ATOM      3  C   UNL     1      -0.905  11.539  18.490  0.00  0.00    +0.000 A 
ATOM      4  C   UNL     1      -1.917  12.045  17.628  0.00  0.00    +0.000 A 
ATOM      5  C   UNL     1      -2.929  11.240  17.099  0.00  0.00    +0.000 A 
ATOM      6  C   UNL     1      -2.954   9.894  17.408  0.00  0.00    +0.000 A 
ATOM      7  C   UNL     1      -1.983   9.381  18.259  0.00  0.00    +0.000 A 
ATOM      8  C   UNL     1      -0.978  10.191  18.819  0.00  0.00    +0.000 A 
ATOM      9  O   UNL     1      -0.272   9.501  19.744  0.00  0.00    +0.000 OA
ATOM     10  C   UNL     1       1.085   9.777  20.089  0.00  0.00    +0.000 C 
ATOM     11  C   UNL     1       1.378   8.713  21.176  0.00  0.00    +0.000 C 
ATOM     12  C   UNL     1       1.230   7.265  20.635  0.00  0.00    +0.000 C 
ATOM     13  N   UNL     1       1.925   6.950  19.370  0.00  0.00    +0.000 NA
ATOM     14  C   UNL     1       1.842   8.048  18.408  0.00  0.00    +0.000 C 
ATOM     15  C   UNL     1       2.084   9.456  18.967  0.00  0.00    +0.000 C 
ATOM     16  C   UNL     1       1.209  11.200  20.699  0.00  0.00    +0.000 C 
ENDROOT
BRANCH   1  17
ATOM     17  C   UNL     1       1.720  13.570  20.347  0.00  0.00    +0.000 C 
BRANCH  17  21
ATOM     18  C   UNL     1       2.672  16.784  17.618  0.00  0.00    +0.000 A 
ATOM     19  C   UNL     1       3.401  15.602  17.567  0.00  0.00    +0.000 A 
ATOM     20  C   UNL     1       3.124  14.568  18.468  0.00  0.00    +0.000 A 
ATOM     21  C   UNL     1       2.117  14.709  19.434  0.00  0.00    +0.000 A 
ATOM     22  C   UNL     1       1.396  15.923  19.479  0.00  0.00    +0.000 A 
ATOM     23  C   UNL     1       1.674  16.942  18.581  0.00  0.00    +0.000 A 
BRANCH  18  24
ATOM     24  O   UNL     1       2.893  17.811  16.741  0.00  0.00    +0.000 OA
ATOM     25  H   UNL     1       2.707  18.649  17.217  0.00  0.00    +0.000 HD
ENDBRANCH  18  24
ENDBRANCH  17  21
ENDBRANCH   1  17
BRANCH  13  26
ATOM     26  C   UNL     1       3.222   6.320  19.599  0.00  0.00    +0.000 C 
BRANCH  26  27
ATOM     27  C   UNL     1       3.780   5.552  18.434  0.00  0.00    +0.000 A 
ATOM     28  C   UNL     1       3.162   4.398  17.967  0.00  0.00    +0.000 A 
ATOM     29  N   UNL     1       3.819   4.043  16.836  0.00  0.00    +0.000 N 
ATOM     30  C   UNL     1       5.090   4.537  16.893  0.00  0.00    +0.000 A 
ATOM     31  C   UNL     1       6.264   4.109  16.293  0.00  0.00    +0.000 A 
ATOM     32  N   UNL     1       7.321   4.941  16.281  0.00  0.00    +0.000 NA
ATOM     33  C   UNL     1       7.170   6.175  16.819  0.00  0.00    +0.000 A 
ATOM     34  C   UNL     1       6.038   6.628  17.505  0.00  0.00    +0.000 A 
ATOM     35  C   UNL     1       4.982   5.712  17.635  0.00  0.00    +0.000 A 
ATOM     36  H   UNL     1       3.368   3.729  15.985  0.00  0.00    +0.000 HD
ENDBRANCH  26  27
ENDBRANCH  13  26
TORSDOF 5
ENDMDL
MODEL 6
REMARK VINA RESULT:      -8.2      2.304      5.907
REMARK  Name = 
REMARK  5 active torsions:
REMARK  status: ('A' for Active; 'I' for Inactive)
REMARK    1  A    between atoms: O_1  and  C_2
REMARK    2  A    between atoms: C_5  and  C_6
REMARK    3  A    between atoms: C_6  and  N_7
REMARK    4  A    between atoms: N_19  and  C_20
REMARK    5  A    between atoms: C_20  and  C_21
REMARK                            x       y       z     vdW  Elec       q    Type
REMARK                         _______ _______ _______ _____ _____    ______ ____
ROOT
ATOM      1  N   UNL     1       0.757  12.846  18.727  0.00  0.00    +0.000 NA
ATOM      2  C   UNL     1      -0.658  12.930  18.298  0.00  0.00    +0.000 C 
ATOM      3  C   UNL     1      -1.483  11.712  17.969  0.00  0.00    +0.000 A 
ATOM      4  C   UNL     1      -2.658  11.986  17.215  0.00  0.00    +0.000 A 
ATOM      5  C   UNL     1      -3.632  11.018  16.957  0.00  0.00    +0.000 A 
ATOM      6  C   UNL     1      -3.454   9.735  17.437  0.00  0.00    +0.000 A 
ATOM      7  C   UNL     1      -2.321   9.449  18.188  0.00  0.00    +0.000 A 
ATOM      8  C   UNL     1      -1.350  10.426  18.477  0.00  0.00    +0.000 A 
ATOM      9  O   UNL     1      -0.446   9.950  19.363  0.00  0.00    +0.000 OA
ATOM     10  C   UNL     1       0.904  10.404  19.456  0.00  0.00    +0.000 C 
ATOM     11  C   UNL     1       1.469   9.543  20.614  0.00  0.00    +0.000 C 
ATOM     12  C   UNL     1       1.419   8.024  20.294  0.00  0.00    +0.000 C 
ATOM     13  N   UNL     1       1.964   7.599  18.988  0.00  0.00    +0.000 NA
ATOM     14  C   UNL     1       1.619   8.532  17.916  0.00  0.00    +0.000 C 
ATOM     15  C   UNL     1       1.768  10.022  18.245  0.00  0.00    +0.000 C 
ATOM     16  C   UNL     1       0.942  11.906  19.850  0.00  0.00    +0.000 C 
ENDROOT
BRANCH   1  17
ATOM     17  C   UNL     1       1.116  14.238  19.121  0.00  0.00    +0.000 C 
BRANCH  17  21
ATOM     18  C   UNL     1       5.355  15.082  19.070  0.00  0.00    +0.000 A 
ATOM     19  C   UNL     1       4.695  14.956  20.286  0.00  0.00    +0.000 A 
ATOM     20  C   UNL     1       3.317  14.717  20.315  0.00  0.00    +0.000 A 
ATOM     21  C   UNL     1       2.584  14.606  19.124  0.00  0.00    +0.000 A 
ATOM     22  C   UNL     1       3.270  14.752  17.898  0.00  0.00    +0.000 A 
ATOM     23  C   UNL     1       4.636  14.986  17.878  0.00  0.00    +0.000 A 
BRANCH  18  24
ATOM     24  O   UNL     1       6.706  15.293  18.996  0.00  0.00    +0.000 OA
ATOM     25  H   UNL     1       6.844  16.236  18.762  0.00  0.00    +0.000 HD
ENDBRANCH  18  24
ENDBRANCH  17  21
ENDBRANCH   1  17
BRANCH  13  26
ATOM     26  C   UNL     1       3.345   7.138  19.094  0.00  0.00    +0.000 C 
BRANCH  26  27
ATOM     27  C   UNL     1       3.541   5.653  18.959  0.00  0.00    +0.000 A 
ATOM     28  C   UNL     1       4.655   5.129  18.313  0.00  0.00    +0.000 A 
ATOM     29  N   UNL     1       4.606   3.787  18.494  0.00  0.00    +0.000 N 
ATOM     30  C   UNL     1       3.307   3.419  18.695  0.00  0.00    +0.000 A 
ATOM     31  C   UNL     1       2.652   2.218  18.466  0.00  0.00    +0.000 A 
ATOM     32  N   UNL     1       1.441   2.030  19.021  0.00  0.00    +0.000 NA
ATOM     33  C   UNL     1       0.940   3.009  19.812  0.00  0.00    +0.000 A 
ATOM     34  C   UNL     1       1.519   4.267  20.011  0.00  0.00    +0.000 A 
ATOM     35  C   UNL     1       2.720   4.514  19.326  0.00  0.00    +0.000 A 
ATOM     36  H   UNL     1       5.404   3.210  18.731  0.00  0.00    +0.000 HD
ENDBRANCH  26  27
ENDBRANCH  13  26
TORSDOF 5
ENDMDL
MODEL 7
REMARK VINA RESULT:      -8.2      2.315      5.738
REMARK  Name = 
REMARK  5 active torsions:
REMARK  status: ('A' for Active; 'I' for Inactive)
REMARK    1  A    between atoms: O_1  and  C_2
REMARK    2  A    between atoms: C_5  and  C_6
REMARK    3  A    between atoms: C_6  and  N_7
REMARK    4  A    between atoms: N_19  and  C_20
REMARK    5  A    between atoms: C_20  and  C_21
REMARK                            x       y       z     vdW  Elec       q    Type
REMARK                         _______ _______ _______ _____ _____    ______ ____
ROOT
ATOM      1  N   UNL     1       0.685  12.789  19.396  0.00  0.00    +0.000 NA
ATOM      2  C   UNL     1      -0.748  12.870  19.033  0.00  0.00    +0.000 C 
ATOM      3  C   UNL     1      -1.508  11.705  18.454  0.00  0.00    +0.000 A 
ATOM      4  C   UNL     1      -2.727  12.062  17.811  0.00  0.00    +0.000 A 
ATOM      5  C   UNL     1      -3.648  11.113  17.362  0.00  0.00    +0.000 A 
ATOM      6  C   UNL     1      -3.372   9.769  17.529  0.00  0.00    +0.000 A 
ATOM      7  C   UNL     1      -2.194   9.399  18.166  0.00  0.00    +0.000 A 
ATOM      8  C   UNL     1      -1.275  10.350  18.648  0.00  0.00    +0.000 A 
ATOM      9  O   UNL     1      -0.309   9.748  19.378  0.00  0.00    +0.000 OA
ATOM     10  C   UNL     1       1.013  10.262  19.540  0.00  0.00    +0.000 C 
ATOM     11  C   UNL     1       1.676   9.201  20.455  0.00  0.00    +0.000 C 
ATOM     12  C   UNL     1       1.707   7.795  19.795  0.00  0.00    +0.000 C 
ATOM     13  N   UNL     1       2.225   7.718  18.414  0.00  0.00    +0.000 NA
ATOM     14  C   UNL     1       1.780   8.844  17.594  0.00  0.00    +0.000 C 
ATOM     15  C   UNL     1       1.850  10.227  18.253  0.00  0.00    +0.000 C 
ATOM     16  C   UNL     1       0.973  11.633  20.269  0.00  0.00    +0.000 C 
ENDROOT
BRANCH   1  17
ATOM     17  C   UNL     1       0.973  14.076  20.091  0.00  0.00    +0.000 C 
BRANCH  17  21
ATOM     18  C   UNL     1       4.335  16.477  18.820  0.00  0.00    +0.000 A 
ATOM     19  C   UNL     1       3.719  15.625  17.913  0.00  0.00    +0.000 A 
ATOM     20  C   UNL     1       2.652  14.818  18.322  0.00  0.00    +0.000 A 
ATOM     21  C   UNL     1       2.193  14.853  19.647  0.00  0.00    +0.000 A 
ATOM     22  C   UNL     1       2.842  15.715  20.558  0.00  0.00    +0.000 A 
ATOM     23  C   UNL     1       3.898  16.513  20.144  0.00  0.00    +0.000 A 
BRANCH  18  24
ATOM     24  O   UNL     1       5.367  17.300  18.457  0.00  0.00    +0.000 OA
ATOM     25  H   UNL     1       4.977  18.079  18.005  0.00  0.00    +0.000 HD
ENDBRANCH  18  24
ENDBRANCH  17  21
ENDBRANCH   1  17
BRANCH  13  26
ATOM     26  C   UNL     1       3.635   7.342  18.377  0.00  0.00    +0.000 C 
BRANCH  26  27
ATOM     27  C   UNL     1       3.924   5.893  18.658  0.00  0.00    +0.000 A 
ATOM     28  C   UNL     1       5.206   5.463  18.983  0.00  0.00    +0.000 A 
ATOM     29  N   UNL     1       5.096   4.155  19.317  0.00  0.00    +0.000 N 
ATOM     30  C   UNL     1       4.000   3.632  18.693  0.00  0.00    +0.000 A 
ATOM     31  C   UNL     1       3.701   2.335  18.306  0.00  0.00    +0.000 A 
ATOM     32  N   UNL     1       2.432   2.040  17.971  0.00  0.00    +0.000 NA
ATOM     33  C   UNL     1       1.500   3.018  18.070  0.00  0.00    +0.000 A 
ATOM     34  C   UNL     1       1.760   4.358  18.376  0.00  0.00    +0.000 A 
ATOM     35  C   UNL     1       3.105   4.696  18.597  0.00  0.00    +0.000 A 
ATOM     36  H   UNL     1       5.561   3.722  20.107  0.00  0.00    +0.000 HD
ENDBRANCH  26  27
ENDBRANCH  13  26
TORSDOF 5
ENDMDL
MODEL 8
REMARK VINA RESULT:      -8.1      5.073      8.313
REMARK  Name = 
REMARK  5 active torsions:
REMARK  status: ('A' for Active; 'I' for Inactive)
REMARK    1  A    between atoms: O_1  and  C_2
REMARK    2  A    between atoms: C_5  and  C_6
REMARK    3  A    between atoms: C_6  and  N_7
REMARK    4  A    between atoms: N_19  and  C_20
REMARK    5  A    between atoms: C_20  and  C_21
REMARK                            x       y       z     vdW  Elec       q    Type
REMARK                         _______ _______ _______ _____ _____    ______ ____
ROOT
ATOM      1  N   UNL     1       0.749  13.455  19.328  0.00  0.00    +0.000 NA
ATOM      2  C   UNL     1      -0.171  14.519  18.868  0.00  0.00    +0.000 C 
ATOM      3  C   UNL     1       0.283  15.933  18.607  0.00  0.00    +0.000 A 
ATOM      4  C   UNL     1      -0.771  16.888  18.560  0.00  0.00    +0.000 A 
ATOM      5  C   UNL     1      -0.570  18.213  18.167  0.00  0.00    +0.000 A 
ATOM      6  C   UNL     1       0.701  18.631  17.820  0.00  0.00    +0.000 A 
ATOM      7  C   UNL     1       1.742  17.712  17.846  0.00  0.00    +0.000 A 
ATOM      8  C   UNL     1       1.542  16.367  18.212  0.00  0.00    +0.000 A 
ATOM      9  O   UNL     1       2.661  15.642  17.988  0.00  0.00    +0.000 OA
ATOM     10  C   UNL     1       3.012  14.461  18.709  0.00  0.00    +0.000 C 
ATOM     11  C   UNL     1       4.353  14.052  18.050  0.00  0.00    +0.000 C 
ATOM     12  C   UNL     1       5.445  15.143  18.215  0.00  0.00    +0.000 C 
ATOM     13  N   UNL     1       5.653  15.680  19.575  0.00  0.00    +0.000 NA
ATOM     14  C   UNL     1       4.393  15.864  20.294  0.00  0.00    +0.000 C 
ATOM     15  C   UNL     1       3.376  14.722  20.178  0.00  0.00    +0.000 C 
ATOM     16  C   UNL     1       1.951  13.352  18.476  0.00  0.00    +0.000 C 
ENDROOT
BRANCH   1  17
ATOM     17  C   UNL     1      -0.061  12.205  19.276  0.00  0.00    +0.000 C 
BRANCH  17  21
ATOM     18  C   UNL     1      -0.073   9.913  22.940  0.00  0.00    +0.000 A 
ATOM     19  C   UNL     1       0.768   9.538  21.899  0.00  0.00    +0.000 A 
ATOM     20  C   UNL     1       0.755  10.252  20.696  0.00  0.00    +0.000 A 
ATOM     21  C   UNL     1      -0.103  11.347  20.521  0.00  0.00    +0.000 A 
ATOM     22  C   UNL     1      -0.961  11.704  21.586  0.00  0.00    +0.000 A 
ATOM     23  C   UNL     1      -0.941  10.993  22.776  0.00  0.00    +0.000 A 
BRANCH  18  24
ATOM     24  O   UNL     1      -0.076   9.257  24.142  0.00  0.00    +0.000 OA
ATOM     25  H   UNL     1      -0.035   9.937  24.848  0.00  0.00    +0.000 HD
ENDBRANCH  18  24
ENDBRANCH  17  21
ENDBRANCH   1  17
BRANCH  13  26
ATOM     26  C   UNL     1       6.758  15.018  20.263  0.00  0.00    +0.000 C 
BRANCH  26  27
ATOM     27  C   UNL     1       8.111  15.200  19.634  0.00  0.00    +0.000 A 
ATOM     28  C   UNL     1       8.691  16.459  19.524  0.00  0.00    +0.000 A 
ATOM     29  N   UNL     1       9.948  16.260  19.058  0.00  0.00    +0.000 N 
ATOM     30  C   UNL     1       9.978  15.086  18.362  0.00  0.00    +0.000 A 
ATOM     31  C   UNL     1      10.804  14.654  17.336  0.00  0.00    +0.000 A 
ATOM     32  N   UNL     1      10.810  13.345  17.022  0.00  0.00    +0.000 NA
ATOM     33  C   UNL     1      10.038  12.508  17.756  0.00  0.00    +0.000 A 
ATOM     34  C   UNL     1       9.130  12.900  18.746  0.00  0.00    +0.000 A 
ATOM     35  C   UNL     1       9.026  14.280  18.982  0.00  0.00    +0.000 A 
ATOM     36  H   UNL     1      10.772  16.736  19.407  0.00  0.00    +0.000 HD
ENDBRANCH  26  27
ENDBRANCH  13  26
TORSDOF 5
ENDMDL
MODEL 9
REMARK VINA RESULT:      -8.1      2.312      5.724
REMARK  Name = 
REMARK  5 active torsions:
REMARK  status: ('A' for Active; 'I' for Inactive)
REMARK    1  A    between atoms: O_1  and  C_2
REMARK    2  A    between atoms: C_5  and  C_6
REMARK    3  A    between atoms: C_6  and  N_7
REMARK    4  A    between atoms: N_19  and  C_20
REMARK    5  A    between atoms: C_20  and  C_21
REMARK                            x       y       z     vdW  Elec       q    Type
REMARK                         _______ _______ _______ _____ _____    ______ ____
ROOT
ATOM      1  N   UNL     1       0.707  12.631  19.834  0.00  0.00    +0.000 NA
ATOM      2  C   UNL     1      -0.711  12.805  19.448  0.00  0.00    +0.000 C 
ATOM      3  C   UNL     1      -1.500  11.733  18.740  0.00  0.00    +0.000 A 
ATOM      4  C   UNL     1      -2.686  12.200  18.108  0.00  0.00    +0.000 A 
ATOM      5  C   UNL     1      -3.631  11.337  17.546  0.00  0.00    +0.000 A 
ATOM      6  C   UNL     1      -3.410   9.974  17.587  0.00  0.00    +0.000 A 
ATOM      7  C   UNL     1      -2.265   9.495  18.212  0.00  0.00    +0.000 A 
ATOM      8  C   UNL     1      -1.323  10.357  18.805  0.00  0.00    +0.000 A 
ATOM      9  O   UNL     1      -0.401   9.649  19.495  0.00  0.00    +0.000 OA
ATOM     10  C   UNL     1       0.935  10.091  19.737  0.00  0.00    +0.000 C 
ATOM     11  C   UNL     1       1.532   8.920  20.557  0.00  0.00    +0.000 C 
ATOM     12  C   UNL     1       1.528   7.585  19.764  0.00  0.00    +0.000 C 
ATOM     13  N   UNL     1       2.079   7.621  18.394  0.00  0.00    +0.000 NA
ATOM     14  C   UNL     1       1.700   8.839  17.678  0.00  0.00    +0.000 C 
ATOM     15  C   UNL     1       1.804  10.147  18.472  0.00  0.00    +0.000 C 
ATOM     16  C   UNL     1       0.928  11.385  20.595  0.00  0.00    +0.000 C 
ENDROOT
BRANCH   1  17
ATOM     17  C   UNL     1       1.026  13.832  20.659  0.00  0.00    +0.000 C 
BRANCH  17  21
ATOM     18  C   UNL     1       4.060  16.496  19.116  0.00  0.00    +0.000 A 
ATOM     19  C   UNL     1       3.459  16.774  20.337  0.00  0.00    +0.000 A 
ATOM     20  C   UNL     1       2.451  15.938  20.830  0.00  0.00    +0.000 A 
ATOM     21  C   UNL     1       2.032  14.815  20.102  0.00  0.00    +0.000 A 
ATOM     22  C   UNL     1       2.646  14.556  18.856  0.00  0.00    +0.000 A 
ATOM     23  C   UNL     1       3.645  15.388  18.376  0.00  0.00    +0.000 A 
BRANCH  18  24
ATOM     24  O   UNL     1       5.065  17.273  18.608  0.00  0.00    +0.000 OA
ATOM     25  H   UNL     1       5.267  16.942  17.707  0.00  0.00    +0.000 HD
ENDBRANCH  18  24
ENDBRANCH  17  21
ENDBRANCH   1  17
BRANCH  13  26
ATOM     26  C   UNL     1       3.474   7.194  18.353  0.00  0.00    +0.000 C 
BRANCH  26  27
ATOM     27  C   UNL     1       3.694   5.736  18.057  0.00  0.00    +0.000 A 
ATOM     28  C   UNL     1       4.415   5.328  16.940  0.00  0.00    +0.000 A 
ATOM     29  N   UNL     1       4.554   3.984  17.046  0.00  0.00    +0.000 N 
ATOM     30  C   UNL     1       3.529   3.494  17.802  0.00  0.00    +0.000 A 
ATOM     31  C   UNL     1       2.933   2.243  17.833  0.00  0.00    +0.000 A 
ATOM     32  N   UNL     1       2.135   1.935  18.872  0.00  0.00    +0.000 NA
ATOM     33  C   UNL     1       1.990   2.850  19.859  0.00  0.00    +0.000 A 
ATOM     34  C   UNL     1       2.501   4.152  19.841  0.00  0.00    +0.000 A 
ATOM     35  C   UNL     1       3.223   4.520  18.695  0.00  0.00    +0.000 A 
ATOM     36  H   UNL     1       5.411   3.479  16.854  0.00  0.00    +0.000 HD
ENDBRANCH  26  27
ENDBRANCH  13  26
TORSDOF 5
ENDMDL
