MODEL 1
REMARK VINA RESULT:      -7.3      0.000      0.000
REMARK  Name = 
REMARK  13 active torsions:
REMARK  status: ('A' for Active; 'I' for Inactive)
REMARK    1  A    between atoms: N_1  and  C_2
REMARK    2  A    between atoms: N_10  and  C_11
REMARK    3  A    between atoms: C_11  and  C_12
REMARK    4  A    between atoms: C_12  and  O_13
REMARK    5  A    between atoms: O_13  and  P_14
REMARK    6  A    between atoms: P_14  and  O_16
REMARK    7  A    between atoms: P_14  and  O_17
REMARK    8  A    between atoms: O_17  and  P_18
REMARK    9  A    between atoms: P_18  and  O_20
REMARK   10  A    between atoms: P_18  and  O_21
REMARK   11  A    between atoms: O_21  and  P_22
REMARK   12  A    between atoms: P_22  and  O_24
REMARK   13  A    between atoms: P_22  and  O_25
REMARK                            x       y       z     vdW  Elec       q    Type
REMARK                         _______ _______ _______ _____ _____    ______ ____
ROOT
ATOM      1  P   UNL     1       4.254   3.958  18.503  0.00  0.00    +0.000 P 
ATOM      2  O   UNL     1       4.145   2.527  19.031  0.00  0.00    +0.000 OA
ENDROOT
BRANCH   1   3
ATOM      3  O   UNL     1       4.157   3.782  16.883  0.00  0.00    +0.000 OA
ATOM      4  H   UNL     1       5.052   3.965  16.525  0.00  0.00    +0.000 HD
ENDBRANCH   1   3
BRANCH   1   5
ATOM      5  O   UNL     1       2.535   4.130  18.600  0.00  0.00    +0.000 OA
BRANCH   5   6
ATOM      6  C   UNL     1       2.207   5.235  19.449  0.00  0.00    +0.000 C 
BRANCH   6   7
ATOM      7  C   UNL     1       3.205   6.375  19.308  0.00  0.00    +0.000 C 
BRANCH   7  16
ATOM      8  C   UNL     1       0.399  10.324  19.166  0.00  0.00    +0.000 A 
ATOM      9  N   UNL     1       0.040  10.265  20.470  0.00  0.00    +0.000 NA
ATOM     10  C   UNL     1       0.538   9.260  21.228  0.00  0.00    +0.000 A 
ATOM     11  N   UNL     1       1.379   8.265  20.861  0.00  0.00    +0.000 NA
ATOM     12  C   UNL     1       1.727   8.391  19.570  0.00  0.00    +0.000 A 
ATOM     13  C   UNL     1       1.301   9.363  18.678  0.00  0.00    +0.000 A 
ATOM     14  N   UNL     1       1.884   9.173  17.439  0.00  0.00    +0.000 NA
ATOM     15  C   UNL     1       2.632   8.100  17.579  0.00  0.00    +0.000 A 
ATOM     16  N   UNL     1       2.562   7.586  18.845  0.00  0.00    +0.000 N 
BRANCH   8  17
ATOM     17  N   UNL     1      -0.136  11.335  18.378  0.00  0.00    +0.000 N 
ATOM     18  H   UNL     1      -1.119  11.192  18.186  0.00  0.00    +0.000 HD
ATOM     19  H   UNL     1       0.163  12.263  18.655  0.00  0.00    +0.000 HD
ENDBRANCH   8  17
ENDBRANCH   7  16
ENDBRANCH   6   7
ENDBRANCH   5   6
ENDBRANCH   1   5
BRANCH   1  20
ATOM     20  O   UNL     1       5.973   3.786  18.405  0.00  0.00    +0.000 OA
BRANCH  20  21
ATOM     21  P   UNL     1       7.193   5.063  18.028  0.00  0.00    +0.000 P 
ATOM     22  O   UNL     1       7.417   5.900  19.246  0.00  0.00    +0.000 OA
BRANCH  21  23
ATOM     23  O   UNL     1       8.438   4.048  17.820  0.00  0.00    +0.000 OA
ATOM     24  H   UNL     1       8.420   3.567  16.973  0.00  0.00    +0.000 HD
ENDBRANCH  21  23
BRANCH  21  25
ATOM     25  O   UNL     1       7.572   6.113  16.405  0.00  0.00    +0.000 OA
BRANCH  25  26
ATOM     26  P   UNL     1       6.737   5.016  15.362  0.00  0.00    +0.000 P 
ATOM     27  O   UNL     1       5.578   5.986  15.159  0.00  0.00    +0.000 OA
BRANCH  26  28
ATOM     28  O   UNL     1       7.764   5.395  14.156  0.00  0.00    +0.000 OA
ATOM     29  H   UNL     1       7.841   6.368  14.119  0.00  0.00    +0.000 HD
ENDBRANCH  26  28
BRANCH  26  30
ATOM     30  O   UNL     1       5.902   3.918  14.317  0.00  0.00    +0.000 OA
ATOM     31  H   UNL     1       5.869   4.391  13.461  0.00  0.00    +0.000 HD
ENDBRANCH  26  30
ENDBRANCH  25  26
ENDBRANCH  21  25
ENDBRANCH  20  21
ENDBRANCH   1  20
TORSDOF 13
ENDMDL
MODEL 2
REMARK VINA RESULT:      -7.2      3.061      5.116
REMARK  Name = 
REMARK  13 active torsions:
REMARK  status: ('A' for Active; 'I' for Inactive)
REMARK    1  A    between atoms: N_1  and  C_2
REMARK    2  A    between atoms: N_10  and  C_11
REMARK    3  A    between atoms: C_11  and  C_12
REMARK    4  A    between atoms: C_12  and  O_13
REMARK    5  A    between atoms: O_13  and  P_14
REMARK    6  A    between atoms: P_14  and  O_16
REMARK    7  A    between atoms: P_14  and  O_17
REMARK    8  A    between atoms: O_17  and  P_18
REMARK    9  A    between atoms: P_18  and  O_20
REMARK   10  A    between atoms: P_18  and  O_21
REMARK   11  A    between atoms: O_21  and  P_22
REMARK   12  A    between atoms: P_22  and  O_24
REMARK   13  A    between atoms: P_22  and  O_25
REMARK                            x       y       z     vdW  Elec       q    Type
REMARK                         _______ _______ _______ _____ _____    ______ ____
ROOT
ATOM      1  P   UNL     1       2.231   6.167  19.737  0.00  0.00    +0.000 P 
ATOM      2  O   UNL     1       3.745   5.965  19.655  0.00  0.00    +0.000 OA
ENDROOT
BRANCH   1   3
ATOM      3  O   UNL     1       2.059   7.366  20.830  0.00  0.00    +0.000 OA
ATOM      4  H   UNL     1       2.144   8.211  20.338  0.00  0.00    +0.000 HD
ENDBRANCH   1   3
BRANCH   1   5
ATOM      5  O   UNL     1       2.312   7.328  18.456  0.00  0.00    +0.000 OA
BRANCH   5   6
ATOM      6  C   UNL     1       1.926   8.616  18.947  0.00  0.00    +0.000 C 
BRANCH   6   7
ATOM      7  C   UNL     1       1.177   9.422  17.896  0.00  0.00    +0.000 C 
BRANCH   7  16
ATOM      8  C   UNL     1      -3.062  11.657  18.624  0.00  0.00    +0.000 A 
ATOM      9  N   UNL     1      -3.704  11.031  17.610  0.00  0.00    +0.000 NA
ATOM     10  C   UNL     1      -3.015  10.131  16.872  0.00  0.00    +0.000 A 
ATOM     11  N   UNL     1      -1.725   9.743  17.004  0.00  0.00    +0.000 NA
ATOM     12  C   UNL     1      -1.146  10.369  18.042  0.00  0.00    +0.000 A 
ATOM     13  C   UNL     1      -1.725  11.309  18.882  0.00  0.00    +0.000 A 
ATOM     14  N   UNL     1      -0.821  11.721  19.844  0.00  0.00    +0.000 NA
ATOM     15  C   UNL     1       0.282  11.055  19.577  0.00  0.00    +0.000 A 
ATOM     16  N   UNL     1       0.138  10.234  18.493  0.00  0.00    +0.000 N 
BRANCH   8  17
ATOM     17  N   UNL     1      -3.757  12.607  19.362  0.00  0.00    +0.000 N 
ATOM     18  H   UNL     1      -3.150  13.136  19.974  0.00  0.00    +0.000 HD
ATOM     19  H   UNL     1      -4.443  13.117  18.817  0.00  0.00    +0.000 HD
ENDBRANCH   8  17
ENDBRANCH   7  16
ENDBRANCH   6   7
ENDBRANCH   5   6
ENDBRANCH   1   5
BRANCH   1  20
ATOM     20  O   UNL     1       2.150   5.007  21.018  0.00  0.00    +0.000 OA
BRANCH  20  21
ATOM     21  P   UNL     1       1.911   3.222  20.882  0.00  0.00    +0.000 P 
ATOM     22  O   UNL     1       1.833   2.633  22.253  0.00  0.00    +0.000 OA
BRANCH  21  23
ATOM     23  O   UNL     1       0.430   3.301  20.230  0.00  0.00    +0.000 OA
ATOM     24  H   UNL     1       0.097   4.208  20.114  0.00  0.00    +0.000 HD
ENDBRANCH  21  23
BRANCH  21  25
ATOM     25  O   UNL     1       2.575   1.878  19.604  0.00  0.00    +0.000 OA
BRANCH  25  26
ATOM     26  P   UNL     1       4.083   2.689  19.359  0.00  0.00    +0.000 P 
ATOM     27  O   UNL     1       4.833   1.703  20.248  0.00  0.00    +0.000 OA
BRANCH  26  28
ATOM     28  O   UNL     1       4.191   2.021  17.877  0.00  0.00    +0.000 OA
ATOM     29  H   UNL     1       3.414   2.308  17.359  0.00  0.00    +0.000 HD
ENDBRANCH  26  28
BRANCH  26  30
ATOM     30  O   UNL     1       5.591   3.500  19.112  0.00  0.00    +0.000 OA
ATOM     31  H   UNL     1       5.376   4.442  19.270  0.00  0.00    +0.000 HD
ENDBRANCH  26  30
ENDBRANCH  25  26
ENDBRANCH  21  25
ENDBRANCH  20  21
ENDBRANCH   1  20
TORSDOF 13
ENDMDL
MODEL 3
REMARK VINA RESULT:      -7.0      2.167      4.231
REMARK  Name = 
REMARK  13 active torsions:
REMARK  status: ('A' for Active; 'I' for Inactive)
REMARK    1  A    between atoms: N_1  and  C_2
REMARK    2  A    between atoms: N_10  and  C_11
REMARK    3  A    between atoms: C_11  and  C_12
REMARK    4  A    between atoms: C_12  and  O_13
REMARK    5  A    between atoms: O_13  and  P_14
REMARK    6  A    between atoms: P_14  and  O_16
REMARK    7  A    between atoms: P_14  and  O_17
REMARK    8  A    between atoms: O_17  and  P_18
REMARK    9  A    between atoms: P_18  and  O_20
REMARK   10  A    between atoms: P_18  and  O_21
REMARK   11  A    between atoms: O_21  and  P_22
REMARK   12  A    between atoms: P_22  and  O_24
REMARK   13  A    between atoms: P_22  and  O_25
REMARK                            x       y       z     vdW  Elec       q    Type
REMARK                         _______ _______ _______ _____ _____    ______ ____
ROOT
ATOM      1  P   UNL     1       4.562   5.073  18.868  0.00  0.00    +0.000 P 
ATOM      2  O   UNL     1       5.026   3.855  18.068  0.00  0.00    +0.000 OA
ENDROOT
BRANCH   1   3
ATOM      3  O   UNL     1       5.902   5.540  19.675  0.00  0.00    +0.000 OA
ATOM      4  H   UNL     1       6.643   4.998  19.329  0.00  0.00    +0.000 HD
ENDBRANCH   1   3
BRANCH   1   5
ATOM      5  O   UNL     1       4.983   6.107  17.546  0.00  0.00    +0.000 OA
BRANCH   5   6
ATOM      6  C   UNL     1       4.107   7.240  17.521  0.00  0.00    +0.000 C 
BRANCH   6   7
ATOM      7  C   UNL     1       2.826   6.984  18.301  0.00  0.00    +0.000 C 
BRANCH   7  16
ATOM      8  C   UNL     1       0.310  10.424  20.609  0.00  0.00    +0.000 A 
ATOM      9  N   UNL     1       0.405   9.846  21.829  0.00  0.00    +0.000 NA
ATOM     10  C   UNL     1       1.082   8.679  21.936  0.00  0.00    +0.000 A 
ATOM     11  N   UNL     1       1.708   7.976  20.963  0.00  0.00    +0.000 NA
ATOM     12  C   UNL     1       1.611   8.610  19.783  0.00  0.00    +0.000 A 
ATOM     13  C   UNL     1       0.953   9.804  19.525  0.00  0.00    +0.000 A 
ATOM     14  N   UNL     1       1.080  10.149  18.192  0.00  0.00    +0.000 NA
ATOM     15  C   UNL     1       1.784   9.174  17.657  0.00  0.00    +0.000 A 
ATOM     16  N   UNL     1       2.119   8.218  18.575  0.00  0.00    +0.000 N 
BRANCH   8  17
ATOM     17  N   UNL     1      -0.413  11.604  20.491  0.00  0.00    +0.000 N 
ATOM     18  H   UNL     1      -0.909  11.664  19.612  0.00  0.00    +0.000 HD
ATOM     19  H   UNL     1      -0.914  11.856  21.336  0.00  0.00    +0.000 HD
ENDBRANCH   8  17
ENDBRANCH   7  16
ENDBRANCH   6   7
ENDBRANCH   5   6
ENDBRANCH   1   5
BRANCH   1  20
ATOM     20  O   UNL     1       4.143   4.040  20.191  0.00  0.00    +0.000 OA
BRANCH  20  21
ATOM     21  P   UNL     1       2.499   3.725  20.872  0.00  0.00    +0.000 P 
ATOM     22  O   UNL     1       2.630   2.860  22.083  0.00  0.00    +0.000 OA
BRANCH  21  23
ATOM     23  O   UNL     1       2.208   5.256  21.316  0.00  0.00    +0.000 OA
ATOM     24  H   UNL     1       1.262   5.469  21.407  0.00  0.00    +0.000 HD
ENDBRANCH  21  23
BRANCH  21  25
ATOM     25  O   UNL     1       0.734   3.463  20.038  0.00  0.00    +0.000 OA
BRANCH  25  26
ATOM     26  P   UNL     1       1.379   2.628  18.667  0.00  0.00    +0.000 P 
ATOM     27  O   UNL     1       0.089   1.843  18.456  0.00  0.00    +0.000 OA
BRANCH  26  28
ATOM     28  O   UNL     1       1.161   3.965  17.762  0.00  0.00    +0.000 OA
ATOM     29  H   UNL     1       1.031   3.685  16.835  0.00  0.00    +0.000 HD
ENDBRANCH  26  28
BRANCH  26  30
ATOM     30  O   UNL     1       2.024   1.794  17.295  0.00  0.00    +0.000 OA
ATOM     31  H   UNL     1       1.453   2.087  16.557  0.00  0.00    +0.000 HD
ENDBRANCH  26  30
ENDBRANCH  25  26
ENDBRANCH  21  25
ENDBRANCH  20  21
ENDBRANCH   1  20
TORSDOF 13
ENDMDL
MODEL 4
REMARK VINA RESULT:      -7.0      2.790      4.547
REMARK  Name = 
REMARK  13 active torsions:
REMARK  status: ('A' for Active; 'I' for Inactive)
REMARK    1  A    between atoms: N_1  and  C_2
REMARK    2  A    between atoms: N_10  and  C_11
REMARK    3  A    between atoms: C_11  and  C_12
REMARK    4  A    between atoms: C_12  and  O_13
REMARK    5  A    between atoms: O_13  and  P_14
REMARK    6  A    between atoms: P_14  and  O_16
REMARK    7  A    between atoms: P_14  and  O_17
REMARK    8  A    between atoms: O_17  and  P_18
REMARK    9  A    between atoms: P_18  and  O_20
REMARK   10  A    between atoms: P_18  and  O_21
REMARK   11  A    between atoms: O_21  and  P_22
REMARK   12  A    between atoms: P_22  and  O_24
REMARK   13  A    between atoms: P_22  and  O_25
REMARK                            x       y       z     vdW  Elec       q    Type
REMARK                         _______ _______ _______ _____ _____    ______ ____
ROOT
ATOM      1  P   UNL     1       2.458   6.375  18.356  0.00  0.00    +0.000 P 
ATOM      2  O   UNL     1       3.394   5.383  17.663  0.00  0.00    +0.000 OA
ENDROOT
BRANCH   1   3
ATOM      3  O   UNL     1       3.077   6.507  19.860  0.00  0.00    +0.000 OA
ATOM      4  H   UNL     1       3.970   6.901  19.764  0.00  0.00    +0.000 HD
ENDBRANCH   1   3
BRANCH   1   5
ATOM      5  O   UNL     1       3.446   7.690  17.819  0.00  0.00    +0.000 OA
BRANCH   5   6
ATOM      6  C   UNL     1       2.707   8.914  17.897  0.00  0.00    +0.000 C 
BRANCH   6   7
ATOM      7  C   UNL     1       1.214   8.666  18.051  0.00  0.00    +0.000 C 
BRANCH   7  16
ATOM      8  C   UNL     1      -0.252  10.843  22.125  0.00  0.00    +0.000 A 
ATOM      9  N   UNL     1       0.435  10.023  22.955  0.00  0.00    +0.000 NA
ATOM     10  C   UNL     1       1.180   9.035  22.408  0.00  0.00    +0.000 A 
ATOM     11  N   UNL     1       1.351   8.733  21.100  0.00  0.00    +0.000 NA
ATOM     12  C   UNL     1       0.675   9.595  20.323  0.00  0.00    +0.000 A 
ATOM     13  C   UNL     1      -0.124  10.650  20.739  0.00  0.00    +0.000 A 
ATOM     14  N   UNL     1      -0.647  11.322  19.650  0.00  0.00    +0.000 NA
ATOM     15  C   UNL     1      -0.184  10.675  18.601  0.00  0.00    +0.000 A 
ATOM     16  N   UNL     1       0.609   9.620  18.957  0.00  0.00    +0.000 N 
BRANCH   8  17
ATOM     17  N   UNL     1      -1.045  11.837  22.685  0.00  0.00    +0.000 N 
ATOM     18  H   UNL     1      -1.395  12.484  21.991  0.00  0.00    +0.000 HD
ATOM     19  H   UNL     1      -1.696  11.490  23.380  0.00  0.00    +0.000 HD
ENDBRANCH   8  17
ENDBRANCH   7  16
ENDBRANCH   6   7
ENDBRANCH   5   6
ENDBRANCH   1   5
BRANCH   1  20
ATOM     20  O   UNL     1       1.470   5.061  18.893  0.00  0.00    +0.000 OA
BRANCH  20  21
ATOM     21  P   UNL     1       1.852   3.835  20.164  0.00  0.00    +0.000 P 
ATOM     22  O   UNL     1       2.139   4.538  21.450  0.00  0.00    +0.000 OA
BRANCH  21  23
ATOM     23  O   UNL     1       0.372   3.178  20.212  0.00  0.00    +0.000 OA
ATOM     24  H   UNL     1      -0.064   3.119  19.344  0.00  0.00    +0.000 HD
ENDBRANCH  21  23
BRANCH  21  25
ATOM     25  O   UNL     1       2.791   2.104  20.112  0.00  0.00    +0.000 OA
BRANCH  25  26
ATOM     26  P   UNL     1       4.242   2.781  19.458  0.00  0.00    +0.000 P 
ATOM     27  O   UNL     1       5.119   2.040  20.461  0.00  0.00    +0.000 OA
BRANCH  26  28
ATOM     28  O   UNL     1       4.147   1.748  18.202  0.00  0.00    +0.000 OA
ATOM     29  H   UNL     1       4.553   0.902  18.474  0.00  0.00    +0.000 HD
ENDBRANCH  26  28
BRANCH  26  30
ATOM     30  O   UNL     1       5.693   3.458  18.802  0.00  0.00    +0.000 OA
ATOM     31  H   UNL     1       6.260   3.597  19.588  0.00  0.00    +0.000 HD
ENDBRANCH  26  30
ENDBRANCH  25  26
ENDBRANCH  21  25
ENDBRANCH  20  21
ENDBRANCH   1  20
TORSDOF 13
ENDMDL
MODEL 5
REMARK VINA RESULT:      -6.9      2.112      4.812
REMARK  Name = 
REMARK  13 active torsions:
REMARK  status: ('A' for Active; 'I' for Inactive)
REMARK    1  A    between atoms: N_1  and  C_2
REMARK    2  A    between atoms: N_10  and  C_11
REMARK    3  A    between atoms: C_11  and  C_12
REMARK    4  A    between atoms: C_12  and  O_13
REMARK    5  A    between atoms: O_13  and  P_14
REMARK    6  A    between atoms: P_14  and  O_16
REMARK    7  A    between atoms: P_14  and  O_17
REMARK    8  A    between atoms: O_17  and  P_18
REMARK    9  A    between atoms: P_18  and  O_20
REMARK   10  A    between atoms: P_18  and  O_21
REMARK   11  A    between atoms: O_21  and  P_22
REMARK   12  A    between atoms: P_22  and  O_24
REMARK   13  A    between atoms: P_22  and  O_25
REMARK                            x       y       z     vdW  Elec       q    Type
REMARK                         _______ _______ _______ _____ _____    ______ ____
ROOT
ATOM      1  P   UNL     1       4.152   5.598  17.797  0.00  0.00    +0.000 P 
ATOM      2  O   UNL     1       5.234   5.615  16.716  0.00  0.00    +0.000 OA
ENDROOT
BRANCH   1   3
ATOM      3  O   UNL     1       4.986   5.808  19.183  0.00  0.00    +0.000 OA
ATOM      4  H   UNL     1       5.487   6.647  19.087  0.00  0.00    +0.000 HD
ENDBRANCH   1   3
BRANCH   1   5
ATOM      5  O   UNL     1       3.960   7.310  17.637  0.00  0.00    +0.000 OA
BRANCH   5   6
ATOM      6  C   UNL     1       2.580   7.624  17.423  0.00  0.00    +0.000 C 
BRANCH   6   7
ATOM      7  C   UNL     1       2.207   8.976  18.011  0.00  0.00    +0.000 C 
BRANCH   7  16
ATOM      8  C   UNL     1      -0.304   9.944  22.042  0.00  0.00    +0.000 A 
ATOM      9  N   UNL     1      -0.841  11.097  21.577  0.00  0.00    +0.000 NA
ATOM     10  C   UNL     1      -0.522  11.493  20.323  0.00  0.00    +0.000 A 
ATOM     11  N   UNL     1       0.286  10.881  19.426  0.00  0.00    +0.000 NA
ATOM     12  C   UNL     1       0.764   9.730  19.926  0.00  0.00    +0.000 A 
ATOM     13  C   UNL     1       0.524   9.200  21.185  0.00  0.00    +0.000 A 
ATOM     14  N   UNL     1       1.179   7.992  21.335  0.00  0.00    +0.000 NA
ATOM     15  C   UNL     1       1.812   7.808  20.196  0.00  0.00    +0.000 A 
ATOM     16  N   UNL     1       1.601   8.835  19.319  0.00  0.00    +0.000 N 
BRANCH   8  17
ATOM     17  N   UNL     1      -0.603   9.552  23.341  0.00  0.00    +0.000 N 
ATOM     18  H   UNL     1      -0.019   8.789  23.655  0.00  0.00    +0.000 HD
ATOM     19  H   UNL     1      -0.747  10.331  23.974  0.00  0.00    +0.000 HD
ENDBRANCH   8  17
ENDBRANCH   7  16
ENDBRANCH   6   7
ENDBRANCH   5   6
ENDBRANCH   1   5
BRANCH   1  20
ATOM     20  O   UNL     1       4.344   3.886  17.957  0.00  0.00    +0.000 OA
BRANCH  20  21
ATOM     21  P   UNL     1       3.056   2.647  18.219  0.00  0.00    +0.000 P 
ATOM     22  O   UNL     1       2.133   2.647  17.044  0.00  0.00    +0.000 OA
BRANCH  21  23
ATOM     23  O   UNL     1       4.043   1.364  18.146  0.00  0.00    +0.000 OA
ATOM     24  H   UNL     1       4.341   1.144  17.246  0.00  0.00    +0.000 HD
ENDBRANCH  21  23
BRANCH  21  25
ATOM     25  O   UNL     1       2.107   2.025  19.829  0.00  0.00    +0.000 OA
BRANCH  25  26
ATOM     26  P   UNL     1       2.304   3.527  20.664  0.00  0.00    +0.000 P 
ATOM     27  O   UNL     1       0.800   3.775  20.710  0.00  0.00    +0.000 OA
BRANCH  26  28
ATOM     28  O   UNL     1       2.595   2.710  22.043  0.00  0.00    +0.000 OA
ATOM     29  H   UNL     1       2.409   3.308  22.794  0.00  0.00    +0.000 HD
ENDBRANCH  26  28
BRANCH  26  30
ATOM     30  O   UNL     1       2.502   5.028  21.501  0.00  0.00    +0.000 OA
ATOM     31  H   UNL     1       2.545   5.690  20.782  0.00  0.00    +0.000 HD
ENDBRANCH  26  30
ENDBRANCH  25  26
ENDBRANCH  21  25
ENDBRANCH  20  21
ENDBRANCH   1  20
TORSDOF 13
ENDMDL
MODEL 6
REMARK VINA RESULT:      -6.8      1.845      3.500
REMARK  Name = 
REMARK  13 active torsions:
REMARK  status: ('A' for Active; 'I' for Inactive)
REMARK    1  A    between atoms: N_1  and  C_2
REMARK    2  A    between atoms: N_10  and  C_11
REMARK    3  A    between atoms: C_11  and  C_12
REMARK    4  A    between atoms: C_12  and  O_13
REMARK    5  A    between atoms: O_13  and  P_14
REMARK    6  A    between atoms: P_14  and  O_16
REMARK    7  A    between atoms: P_14  and  O_17
REMARK    8  A    between atoms: O_17  and  P_18
REMARK    9  A    between atoms: P_18  and  O_20
REMARK   10  A    between atoms: P_18  and  O_21
REMARK   11  A    between atoms: O_21  and  P_22
REMARK   12  A    between atoms: P_22  and  O_24
REMARK   13  A    between atoms: P_22  and  O_25
REMARK                            x       y       z     vdW  Elec       q    Type
REMARK                         _______ _______ _______ _____ _____    ______ ____
ROOT
ATOM      1  P   UNL     1       2.140   4.638  20.463  0.00  0.00    +0.000 P 
ATOM      2  O   UNL     1       0.752   4.105  20.108  0.00  0.00    +0.000 OA
ENDROOT
BRANCH   1   3
ATOM      3  O   UNL     1       2.572   5.504  19.149  0.00  0.00    +0.000 OA
ATOM      4  H   UNL     1       3.414   5.120  18.823  0.00  0.00    +0.000 HD
ENDBRANCH   1   3
BRANCH   1   5
ATOM      5  O   UNL     1       1.423   6.046  21.170  0.00  0.00    +0.000 OA
BRANCH   5   6
ATOM      6  C   UNL     1       1.903   7.219  20.504  0.00  0.00    +0.000 C 
BRANCH   6   7
ATOM      7  C   UNL     1       1.268   8.486  21.059  0.00  0.00    +0.000 C 
BRANCH   7  16
ATOM      8  C   UNL     1      -1.017  12.002  18.628  0.00  0.00    +0.000 A 
ATOM      9  N   UNL     1      -1.661  12.498  19.710  0.00  0.00    +0.000 NA
ATOM     10  C   UNL     1      -1.451  11.908  20.909  0.00  0.00    +0.000 A 
ATOM     11  N   UNL     1      -0.656  10.852  21.201  0.00  0.00    +0.000 NA
ATOM     12  C   UNL     1      -0.017  10.422  20.101  0.00  0.00    +0.000 A 
ATOM     13  C   UNL     1      -0.132  10.926  18.814  0.00  0.00    +0.000 A 
ATOM     14  N   UNL     1       0.690  10.231  17.946  0.00  0.00    +0.000 NA
ATOM     15  C   UNL     1       1.274   9.319  18.693  0.00  0.00    +0.000 A 
ATOM     16  N   UNL     1       0.872   9.388  19.998  0.00  0.00    +0.000 N 
BRANCH   8  17
ATOM     17  N   UNL     1      -1.257  12.584  17.390  0.00  0.00    +0.000 N 
ATOM     18  H   UNL     1      -1.347  11.897  16.654  0.00  0.00    +0.000 HD
ATOM     19  H   UNL     1      -1.937  13.336  17.423  0.00  0.00    +0.000 HD
ENDBRANCH   8  17
ENDBRANCH   7  16
ENDBRANCH   6   7
ENDBRANCH   5   6
ENDBRANCH   1   5
BRANCH   1  20
ATOM     20  O   UNL     1       2.858   3.232  19.757  0.00  0.00    +0.000 OA
BRANCH  20  21
ATOM     21  P   UNL     1       3.254   2.946  18.017  0.00  0.00    +0.000 P 
ATOM     22  O   UNL     1       3.638   1.514  17.833  0.00  0.00    +0.000 OA
BRANCH  21  23
ATOM     23  O   UNL     1       1.751   3.191  17.462  0.00  0.00    +0.000 OA
ATOM     24  H   UNL     1       1.272   2.373  17.243  0.00  0.00    +0.000 HD
ENDBRANCH  21  23
BRANCH  21  25
ATOM     25  O   UNL     1       4.114   4.062  16.642  0.00  0.00    +0.000 OA
BRANCH  25  26
ATOM     26  P   UNL     1       5.605   4.185  17.510  0.00  0.00    +0.000 P 
ATOM     27  O   UNL     1       6.433   4.098  16.233  0.00  0.00    +0.000 OA
BRANCH  26  28
ATOM     28  O   UNL     1       5.356   5.784  17.693  0.00  0.00    +0.000 OA
ATOM     29  H   UNL     1       4.802   6.091  16.949  0.00  0.00    +0.000 HD
ENDBRANCH  26  28
BRANCH  26  30
ATOM     30  O   UNL     1       7.095   4.309  18.380  0.00  0.00    +0.000 OA
ATOM     31  H   UNL     1       7.756   3.932  17.763  0.00  0.00    +0.000 HD
ENDBRANCH  26  30
ENDBRANCH  25  26
ENDBRANCH  21  25
ENDBRANCH  20  21
ENDBRANCH   1  20
TORSDOF 13
ENDMDL
MODEL 7
REMARK VINA RESULT:      -6.7      1.453      3.130
REMARK  Name = 
REMARK  13 active torsions:
REMARK  status: ('A' for Active; 'I' for Inactive)
REMARK    1  A    between atoms: N_1  and  C_2
REMARK    2  A    between atoms: N_10  and  C_11
REMARK    3  A    between atoms: C_11  and  C_12
REMARK    4  A    between atoms: C_12  and  O_13
REMARK    5  A    between atoms: O_13  and  P_14
REMARK    6  A    between atoms: P_14  and  O_16
REMARK    7  A    between atoms: P_14  and  O_17
REMARK    8  A    between atoms: O_17  and  P_18
REMARK    9  A    between atoms: P_18  and  O_20
REMARK   10  A    between atoms: P_18  and  O_21
REMARK   11  A    between atoms: O_21  and  P_22
REMARK   12  A    between atoms: P_22  and  O_24
REMARK   13  A    between atoms: P_22  and  O_25
REMARK                            x       y       z     vdW  Elec       q    Type
REMARK                         _______ _______ _______ _____ _____    ______ ____
ROOT
ATOM      1  P   UNL     1       3.089   3.772  19.083  0.00  0.00    +0.000 P 
ATOM      2  O   UNL     1       3.164   2.257  18.883  0.00  0.00    +0.000 OA
ENDROOT
BRANCH   1   3
ATOM      3  O   UNL     1       2.745   4.342  17.593  0.00  0.00    +0.000 OA
ATOM      4  H   UNL     1       2.910   3.607  16.964  0.00  0.00    +0.000 HD
ENDBRANCH   1   3
BRANCH   1   5
ATOM      5  O   UNL     1       1.400   3.645  19.438  0.00  0.00    +0.000 OA
BRANCH   5   6
ATOM      6  C   UNL     1       1.030   4.649  20.390  0.00  0.00    +0.000 C 
BRANCH   6   7
ATOM      7  C   UNL     1       2.141   5.665  20.604  0.00  0.00    +0.000 C 
BRANCH   7  16
ATOM      8  C   UNL     1       1.275  10.152  18.988  0.00  0.00    +0.000 A 
ATOM      9  N   UNL     1       1.826   9.950  17.768  0.00  0.00    +0.000 NA
ATOM     10  C   UNL     1       2.341   8.730  17.490  0.00  0.00    +0.000 A 
ATOM     11  N   UNL     1       2.386   7.633  18.283  0.00  0.00    +0.000 NA
ATOM     12  C   UNL     1       1.798   7.879  19.465  0.00  0.00    +0.000 A 
ATOM     13  C   UNL     1       1.230   9.073  19.887  0.00  0.00    +0.000 A 
ATOM     14  N   UNL     1       0.713   8.940  21.162  0.00  0.00    +0.000 NA
ATOM     15  C   UNL     1       0.979   7.698  21.505  0.00  0.00    +0.000 A 
ATOM     16  N   UNL     1       1.641   7.022  20.519  0.00  0.00    +0.000 N 
BRANCH   8  17
ATOM     17  N   UNL     1       0.776  11.413  19.288  0.00  0.00    +0.000 N 
ATOM     18  H   UNL     1       1.507  12.111  19.346  0.00  0.00    +0.000 HD
ATOM     19  H   UNL     1      -0.063  11.648  18.770  0.00  0.00    +0.000 HD
ENDBRANCH   8  17
ENDBRANCH   7  16
ENDBRANCH   6   7
ENDBRANCH   5   6
ENDBRANCH   1   5
BRANCH   1  20
ATOM     20  O   UNL     1       4.777   3.899  18.727  0.00  0.00    +0.000 OA
BRANCH  20  21
ATOM     21  P   UNL     1       5.562   4.844  17.403  0.00  0.00    +0.000 P 
ATOM     22  O   UNL     1       5.230   4.215  16.090  0.00  0.00    +0.000 OA
BRANCH  21  23
ATOM     23  O   UNL     1       4.678   6.186  17.611  0.00  0.00    +0.000 OA
ATOM     24  H   UNL     1       5.191   7.011  17.556  0.00  0.00    +0.000 HD
ENDBRANCH  21  23
BRANCH  21  25
ATOM     25  O   UNL     1       7.279   5.803  17.282  0.00  0.00    +0.000 OA
BRANCH  25  26
ATOM     26  P   UNL     1       7.612   5.655  18.972  0.00  0.00    +0.000 P 
ATOM     27  O   UNL     1       8.640   4.553  18.741  0.00  0.00    +0.000 OA
BRANCH  26  28
ATOM     28  O   UNL     1       8.498   7.020  18.907  0.00  0.00    +0.000 OA
ATOM     29  H   UNL     1       9.184   6.903  18.222  0.00  0.00    +0.000 HD
ENDBRANCH  26  28
BRANCH  26  30
ATOM     30  O   UNL     1       7.945   5.509  20.664  0.00  0.00    +0.000 OA
ATOM     31  H   UNL     1       8.190   4.568  20.771  0.00  0.00    +0.000 HD
ENDBRANCH  26  30
ENDBRANCH  25  26
ENDBRANCH  21  25
ENDBRANCH  20  21
ENDBRANCH   1  20
TORSDOF 13
ENDMDL
MODEL 8
REMARK VINA RESULT:      -6.7      5.043      7.454
REMARK  Name = 
REMARK  13 active torsions:
REMARK  status: ('A' for Active; 'I' for Inactive)
REMARK    1  A    between atoms: N_1  and  C_2
REMARK    2  A    between atoms: N_10  and  C_11
REMARK    3  A    between atoms: C_11  and  C_12
REMARK    4  A    between atoms: C_12  and  O_13
REMARK    5  A    between atoms: O_13  and  P_14
REMARK    6  A    between atoms: P_14  and  O_16
REMARK    7  A    between atoms: P_14  and  O_17
REMARK    8  A    between atoms: O_17  and  P_18
REMARK    9  A    between atoms: P_18  and  O_20
REMARK   10  A    between atoms: P_18  and  O_21
REMARK   11  A    between atoms: O_21  and  P_22
REMARK   12  A    between atoms: P_22  and  O_24
REMARK   13  A    between atoms: P_22  and  O_25
REMARK                            x       y       z     vdW  Elec       q    Type
REMARK                         _______ _______ _______ _____ _____    ______ ____
ROOT
ATOM      1  P   UNL     1       3.279   6.061  18.143  0.00  0.00    +0.000 P 
ATOM      2  O   UNL     1       3.241   4.790  17.293  0.00  0.00    +0.000 OA
ENDROOT
BRANCH   1   3
ATOM      3  O   UNL     1       4.281   5.676  19.372  0.00  0.00    +0.000 OA
ATOM      4  H   UNL     1       4.307   4.696  19.419  0.00  0.00    +0.000 HD
ENDBRANCH   1   3
BRANCH   1   5
ATOM      5  O   UNL     1       4.619   6.645  17.217  0.00  0.00    +0.000 OA
BRANCH   5   6
ATOM      6  C   UNL     1       5.846   6.221  17.821  0.00  0.00    +0.000 C 
BRANCH   6   7
ATOM      7  C   UNL     1       6.945   6.018  16.789  0.00  0.00    +0.000 C 
BRANCH   7  16
ATOM      8  C   UNL     1       6.523   3.534  12.648  0.00  0.00    +0.000 A 
ATOM      9  N   UNL     1       7.363   4.329  11.944  0.00  0.00    +0.000 NA
ATOM     10  C   UNL     1       7.935   5.379  12.577  0.00  0.00    +0.000 A 
ATOM     11  N   UNL     1       7.789   5.768  13.866  0.00  0.00    +0.000 NA
ATOM     12  C   UNL     1       6.974   4.928  14.524  0.00  0.00    +0.000 A 
ATOM     13  C   UNL     1       6.321   3.818  14.010  0.00  0.00    +0.000 A 
ATOM     14  N   UNL     1       5.577   3.193  14.994  0.00  0.00    +0.000 NA
ATOM     15  C   UNL     1       5.766   3.923  16.073  0.00  0.00    +0.000 A 
ATOM     16  N   UNL     1       6.593   4.986  15.837  0.00  0.00    +0.000 N 
BRANCH   8  17
ATOM     17  N   UNL     1       5.908   2.476  11.992  0.00  0.00    +0.000 N 
ATOM     18  H   UNL     1       5.158   2.783  11.387  0.00  0.00    +0.000 HD
ATOM     19  H   UNL     1       6.562   1.793  11.626  0.00  0.00    +0.000 HD
ENDBRANCH   8  17
ENDBRANCH   7  16
ENDBRANCH   6   7
ENDBRANCH   5   6
ENDBRANCH   1   5
BRANCH   1  20
ATOM     20  O   UNL     1       1.940   5.477  19.070  0.00  0.00    +0.000 OA
BRANCH  20  21
ATOM     21  P   UNL     1       1.941   4.167  20.313  0.00  0.00    +0.000 P 
ATOM     22  O   UNL     1       2.247   4.762  21.649  0.00  0.00    +0.000 OA
BRANCH  21  23
ATOM     23  O   UNL     1       0.359   3.834  20.206  0.00  0.00    +0.000 OA
ATOM     24  H   UNL     1      -0.100   4.321  19.499  0.00  0.00    +0.000 HD
ENDBRANCH  21  23
BRANCH  21  25
ATOM     25  O   UNL     1       2.504   2.280  20.266  0.00  0.00    +0.000 OA
BRANCH  25  26
ATOM     26  P   UNL     1       4.122   2.655  19.784  0.00  0.00    +0.000 P 
ATOM     27  O   UNL     1       4.720   1.904  20.968  0.00  0.00    +0.000 OA
BRANCH  26  28
ATOM     28  O   UNL     1       4.029   1.518  18.621  0.00  0.00    +0.000 OA
ATOM     29  H   UNL     1       3.429   1.847  17.924  0.00  0.00    +0.000 HD
ENDBRANCH  26  28
BRANCH  26  30
ATOM     30  O   UNL     1       5.740   3.030  19.300  0.00  0.00    +0.000 OA
ATOM     31  H   UNL     1       6.286   2.703  20.043  0.00  0.00    +0.000 HD
ENDBRANCH  26  30
ENDBRANCH  25  26
ENDBRANCH  21  25
ENDBRANCH  20  21
ENDBRANCH   1  20
TORSDOF 13
ENDMDL
MODEL 9
REMARK VINA RESULT:      -6.7      3.064      4.848
REMARK  Name = 
REMARK  13 active torsions:
REMARK  status: ('A' for Active; 'I' for Inactive)
REMARK    1  A    between atoms: N_1  and  C_2
REMARK    2  A    between atoms: N_10  and  C_11
REMARK    3  A    between atoms: C_11  and  C_12
REMARK    4  A    between atoms: C_12  and  O_13
REMARK    5  A    between atoms: O_13  and  P_14
REMARK    6  A    between atoms: P_14  and  O_16
REMARK    7  A    between atoms: P_14  and  O_17
REMARK    8  A    between atoms: O_17  and  P_18
REMARK    9  A    between atoms: P_18  and  O_20
REMARK   10  A    between atoms: P_18  and  O_21
REMARK   11  A    between atoms: O_21  and  P_22
REMARK   12  A    between atoms: P_22  and  O_24
REMARK   13  A    between atoms: P_22  and  O_25
REMARK                            x       y       z     vdW  Elec       q    Type
REMARK                         _______ _______ _______ _____ _____    ______ ____
ROOT
ATOM      1  P   UNL     1       2.211   6.108  19.753  0.00  0.00    +0.000 P 
ATOM      2  O   UNL     1       3.732   5.963  19.684  0.00  0.00    +0.000 OA
ENDROOT
BRANCH   1   3
ATOM      3  O   UNL     1       1.984   7.295  20.849  0.00  0.00    +0.000 OA
ATOM      4  H   UNL     1       2.522   8.060  20.553  0.00  0.00    +0.000 HD
ENDBRANCH   1   3
BRANCH   1   5
ATOM      5  O   UNL     1       2.260   7.277  18.478  0.00  0.00    +0.000 OA
BRANCH   5   6
ATOM      6  C   UNL     1       1.935   8.572  18.997  0.00  0.00    +0.000 C 
BRANCH   6   7
ATOM      7  C   UNL     1       1.471   9.521  17.902  0.00  0.00    +0.000 C 
BRANCH   7  16
ATOM      8  C   UNL     1      -1.743  12.334  20.194  0.00  0.00    +0.000 A 
ATOM      9  N   UNL     1      -0.826  12.963  20.965  0.00  0.00    +0.000 NA
ATOM     10  C   UNL     1       0.476  12.621  20.823  0.00  0.00    +0.000 A 
ATOM     11  N   UNL     1       1.020  11.706  19.987  0.00  0.00    +0.000 NA
ATOM     12  C   UNL     1       0.072  11.137  19.225  0.00  0.00    +0.000 A 
ATOM     13  C   UNL     1      -1.292  11.387  19.259  0.00  0.00    +0.000 A 
ATOM     14  N   UNL     1      -1.949  10.617  18.317  0.00  0.00    +0.000 NA
ATOM     15  C   UNL     1      -1.003   9.908  17.742  0.00  0.00    +0.000 A 
ATOM     16  N   UNL     1       0.232  10.179  18.262  0.00  0.00    +0.000 N 
BRANCH   8  17
ATOM     17  N   UNL     1      -3.083  12.660  20.362  0.00  0.00    +0.000 N 
ATOM     18  H   UNL     1      -3.208  13.510  20.896  0.00  0.00    +0.000 HD
ATOM     19  H   UNL     1      -3.634  12.544  19.518  0.00  0.00    +0.000 HD
ENDBRANCH   8  17
ENDBRANCH   7  16
ENDBRANCH   6   7
ENDBRANCH   5   6
ENDBRANCH   1   5
BRANCH   1  20
ATOM     20  O   UNL     1       2.161   4.940  21.027  0.00  0.00    +0.000 OA
BRANCH  20  21
ATOM     21  P   UNL     1       1.928   3.154  20.884  0.00  0.00    +0.000 P 
ATOM     22  O   UNL     1       1.814   2.565  22.253  0.00  0.00    +0.000 OA
BRANCH  21  23
ATOM     23  O   UNL     1       0.464   3.232  20.194  0.00  0.00    +0.000 OA
ATOM     24  H   UNL     1      -0.267   2.980  20.785  0.00  0.00    +0.000 HD
ENDBRANCH  21  23
BRANCH  21  25
ATOM     25  O   UNL     1       2.626   1.812  19.623  0.00  0.00    +0.000 OA
BRANCH  25  26
ATOM     26  P   UNL     1       4.119   2.650  19.380  0.00  0.00    +0.000 P 
ATOM     27  O   UNL     1       4.910   1.602  20.155  0.00  0.00    +0.000 OA
BRANCH  26  28
ATOM     28  O   UNL     1       4.166   2.102  17.846  0.00  0.00    +0.000 OA
ATOM     29  H   UNL     1       5.101   2.057  17.569  0.00  0.00    +0.000 HD
ENDBRANCH  26  28
BRANCH  26  30
ATOM     30  O   UNL     1       5.612   3.488  19.134  0.00  0.00    +0.000 OA
ATOM     31  H   UNL     1       6.107   3.328  19.963  0.00  0.00    +0.000 HD
ENDBRANCH  26  30
ENDBRANCH  25  26
ENDBRANCH  21  25
ENDBRANCH  20  21
ENDBRANCH   1  20
TORSDOF 13
ENDMDL
