MODEL 1
REMARK VINA RESULT:      -8.1      0.000      0.000
REMARK  Name = 
REMARK  8 active torsions:
REMARK  status: ('A' for Active; 'I' for Inactive)
REMARK    1  A    between atoms: C_2  and  C_3
REMARK    2  A    between atoms: C_3  and  S_4
REMARK    3  A    between atoms: S_4  and  C_5
REMARK    4  A    between atoms: C_7  and  S_8
REMARK    5  A    between atoms: S_8  and  C_9
REMARK    6  A    between atoms: N_13  and  C_14
REMARK    7  A    between atoms: C_15  and  C_16
REMARK    8  A    between atoms: C_18  and  C_19
REMARK                            x       y       z     vdW  Elec       q    Type
REMARK                         _______ _______ _______ _____ _____    ______ ____
ROOT
ATOM      1  C   UNL     1       2.386   5.243  20.460  0.00  0.00    +0.000 A 
ATOM      2  N   UNL     1       3.165   5.233  19.375  0.00  0.00    +0.000 NA
ATOM      3  C   UNL     1       3.224   6.377  18.651  0.00  0.00    +0.000 A 
ATOM      4  C   UNL     1       2.498   7.518  18.979  0.00  0.00    +0.000 A 
ATOM      5  C   UNL     1       1.736   7.449  20.141  0.00  0.00    +0.000 A 
ATOM      6  N   UNL     1       1.684   6.306  20.875  0.00  0.00    +0.000 NA
ENDROOT
BRANCH   5   7
ATOM      7  C   UNL     1       0.929   8.561  20.727  0.00  0.00    +0.000 A 
ATOM      8  C   UNL     1       0.940   8.778  22.123  0.00  0.00    +0.000 A 
ATOM      9  C   UNL     1       0.190   9.799  22.719  0.00  0.00    +0.000 A 
ATOM     10  C   UNL     1      -0.564  10.642  21.914  0.00  0.00    +0.000 A 
ATOM     11  O   UNL     1      -1.321  11.648  22.542  0.00  0.00    +0.000 OA
ATOM     12  C   UNL     1      -2.118  12.511  21.800  0.00  0.00    +0.000 A 
ATOM     13  O   UNL     1      -2.841  13.351  22.323  0.00  0.00    +0.000 OA
ATOM     14  C   UNL     1      -2.047  12.391  20.333  0.00  0.00    +0.000 A 
ATOM     15  C   UNL     1      -1.335  11.435  19.729  0.00  0.00    +0.000 A 
ATOM     16  C   UNL     1      -0.588  10.483  20.536  0.00  0.00    +0.000 A 
ATOM     17  C   UNL     1       0.124   9.424  19.957  0.00  0.00    +0.000 A 
ENDBRANCH   5   7
BRANCH   4  18
ATOM     18  C   UNL     1       2.536   8.680  18.149  0.00  0.00    +0.000 C 
ATOM     19  N   UNL     1       2.619   9.638  17.505  0.00  0.00    +0.000 NA
ENDBRANCH   4  18
BRANCH   1  20
ATOM     20  S   UNL     1       2.182   3.737  21.365  0.00  0.00    +0.000 S 
BRANCH  20  21
ATOM     21  C   UNL     1       1.012   2.901  20.259  0.00  0.00    +0.000 C 
BRANCH  21  23
ATOM     22  C   UNL     1       2.210   2.019  18.037  0.00  0.00    +0.000 C 
ATOM     23  C   UNL     1       1.675   2.413  19.039  0.00  0.00    +0.000 C 
ENDBRANCH  21  23
ENDBRANCH  20  21
ENDBRANCH   1  20
BRANCH   3  24
ATOM     24  S   UNL     1       4.249   6.227  17.182  0.00  0.00    +0.000 S 
BRANCH  24  25
ATOM     25  C   UNL     1       5.689   5.565  17.870  0.00  0.00    +0.000 A 
ATOM     26  N   UNL     1       6.158   5.753  19.083  0.00  0.00    +0.000 NA
ATOM     27  N   UNL     1       7.361   5.093  19.131  0.00  0.00    +0.000 NA
ATOM     28  N   UNL     1       7.618   4.488  17.979  0.00  0.00    +0.000 NA
ATOM     29  N   UNL     1       6.566   4.769  17.189  0.00  0.00    +0.000 N 
ATOM     30  C   UNL     1       6.476   4.195  15.876  0.00  0.00    +0.000 C 
ENDBRANCH  24  25
ENDBRANCH   3  24
TORSDOF 7
ENDMDL
MODEL 2
REMARK VINA RESULT:      -8.0      2.361      3.873
REMARK  Name = 
REMARK  8 active torsions:
REMARK  status: ('A' for Active; 'I' for Inactive)
REMARK    1  A    between atoms: C_2  and  C_3
REMARK    2  A    between atoms: C_3  and  S_4
REMARK    3  A    between atoms: S_4  and  C_5
REMARK    4  A    between atoms: C_7  and  S_8
REMARK    5  A    between atoms: S_8  and  C_9
REMARK    6  A    between atoms: N_13  and  C_14
REMARK    7  A    between atoms: C_15  and  C_16
REMARK    8  A    between atoms: C_18  and  C_19
REMARK                            x       y       z     vdW  Elec       q    Type
REMARK                         _______ _______ _______ _____ _____    ______ ____
ROOT
ATOM      1  C   UNL     1       3.470   3.529  17.710  0.00  0.00    +0.000 A 
ATOM      2  N   UNL     1       4.687   3.449  17.165  0.00  0.00    +0.000 NA
ATOM      3  C   UNL     1       5.360   4.612  16.990  0.00  0.00    +0.000 A 
ATOM      4  C   UNL     1       4.826   5.852  17.327  0.00  0.00    +0.000 A 
ATOM      5  C   UNL     1       3.566   5.840  17.917  0.00  0.00    +0.000 A 
ATOM      6  N   UNL     1       2.893   4.673  18.102  0.00  0.00    +0.000 NA
ENDROOT
BRANCH   5   7
ATOM      7  C   UNL     1       2.821   7.033  18.418  0.00  0.00    +0.000 A 
ATOM      8  C   UNL     1       2.553   8.113  17.548  0.00  0.00    +0.000 A 
ATOM      9  C   UNL     1       1.870   9.257  17.976  0.00  0.00    +0.000 A 
ATOM     10  C   UNL     1       1.416   9.322  19.287  0.00  0.00    +0.000 A 
ATOM     11  O   UNL     1       0.748  10.492  19.694  0.00  0.00    +0.000 OA
ATOM     12  C   UNL     1       0.288  10.635  20.997  0.00  0.00    +0.000 A 
ATOM     13  O   UNL     1      -0.235  11.669  21.400  0.00  0.00    +0.000 OA
ATOM     14  C   UNL     1       0.438   9.473  21.891  0.00  0.00    +0.000 A 
ATOM     15  C   UNL     1       1.076   8.361  21.514  0.00  0.00    +0.000 A 
ATOM     16  C   UNL     1       1.634   8.277  20.173  0.00  0.00    +0.000 A 
ATOM     17  C   UNL     1       2.365   7.161  19.746  0.00  0.00    +0.000 A 
ENDBRANCH   5   7
BRANCH   4  18
ATOM     18  C   UNL     1       5.542   7.059  17.062  0.00  0.00    +0.000 C 
ATOM     19  N   UNL     1       6.150   8.009  16.799  0.00  0.00    +0.000 NA
ENDBRANCH   4  18
BRANCH   1  20
ATOM     20  S   UNL     1       2.506   2.052  17.843  0.00  0.00    +0.000 S 
BRANCH  20  21
ATOM     21  C   UNL     1       1.059   2.736  18.697  0.00  0.00    +0.000 C 
BRANCH  21  23
ATOM     22  C   UNL     1       1.400   2.763  21.349  0.00  0.00    +0.000 C 
ATOM     23  C   UNL     1       1.250   2.755  20.156  0.00  0.00    +0.000 C 
ENDBRANCH  21  23
ENDBRANCH  20  21
ENDBRANCH   1  20
BRANCH   3  24
ATOM     24  S   UNL     1       6.955   4.389  16.193  0.00  0.00    +0.000 S 
BRANCH  24  25
ATOM     25  C   UNL     1       6.456   4.140  14.557  0.00  0.00    +0.000 A 
ATOM     26  N   UNL     1       5.419   3.455  14.130  0.00  0.00    +0.000 NA
ATOM     27  N   UNL     1       5.490   3.476  12.759  0.00  0.00    +0.000 NA
ATOM     28  N   UNL     1       6.534   4.182  12.347  0.00  0.00    +0.000 NA
ATOM     29  N   UNL     1       7.136   4.613  13.470  0.00  0.00    +0.000 N 
ATOM     30  C   UNL     1       8.272   5.488  13.390  0.00  0.00    +0.000 C 
ENDBRANCH  24  25
ENDBRANCH   3  24
TORSDOF 7
ENDMDL
MODEL 3
REMARK VINA RESULT:      -7.8      5.037      8.882
REMARK  Name = 
REMARK  8 active torsions:
REMARK  status: ('A' for Active; 'I' for Inactive)
REMARK    1  A    between atoms: C_2  and  C_3
REMARK    2  A    between atoms: C_3  and  S_4
REMARK    3  A    between atoms: S_4  and  C_5
REMARK    4  A    between atoms: C_7  and  S_8
REMARK    5  A    between atoms: S_8  and  C_9
REMARK    6  A    between atoms: N_13  and  C_14
REMARK    7  A    between atoms: C_15  and  C_16
REMARK    8  A    between atoms: C_18  and  C_19
REMARK                            x       y       z     vdW  Elec       q    Type
REMARK                         _______ _______ _______ _____ _____    ______ ____
ROOT
ATOM      1  C   UNL     1      -1.371  11.048  18.648  0.00  0.00    +0.000 A 
ATOM      2  N   UNL     1      -1.618  11.569  19.853  0.00  0.00    +0.000 NA
ATOM      3  C   UNL     1      -0.836  11.148  20.876  0.00  0.00    +0.000 A 
ATOM      4  C   UNL     1       0.169  10.198  20.719  0.00  0.00    +0.000 A 
ATOM      5  C   UNL     1       0.377   9.731  19.425  0.00  0.00    +0.000 A 
ATOM      6  N   UNL     1      -0.401  10.160  18.395  0.00  0.00    +0.000 NA
ENDROOT
BRANCH   5   7
ATOM      7  C   UNL     1       1.432   8.764  19.001  0.00  0.00    +0.000 A 
ATOM      8  C   UNL     1       2.236   9.048  17.874  0.00  0.00    +0.000 A 
ATOM      9  C   UNL     1       3.230   8.167  17.432  0.00  0.00    +0.000 A 
ATOM     10  C   UNL     1       3.453   6.991  18.137  0.00  0.00    +0.000 A 
ATOM     11  O   UNL     1       4.446   6.116  17.659  0.00  0.00    +0.000 OA
ATOM     12  C   UNL     1       4.705   4.911  18.300  0.00  0.00    +0.000 A 
ATOM     13  O   UNL     1       5.514   4.098  17.869  0.00  0.00    +0.000 OA
ATOM     14  C   UNL     1       3.972   4.649  19.552  0.00  0.00    +0.000 A 
ATOM     15  C   UNL     1       3.024   5.472  20.010  0.00  0.00    +0.000 A 
ATOM     16  C   UNL     1       2.704   6.679  19.263  0.00  0.00    +0.000 A 
ATOM     17  C   UNL     1       1.678   7.544  19.664  0.00  0.00    +0.000 A 
ENDBRANCH   5   7
BRANCH   4  18
ATOM     18  C   UNL     1       0.924   9.732  21.838  0.00  0.00    +0.000 C 
ATOM     19  N   UNL     1       1.482   9.343  22.775  0.00  0.00    +0.000 NA
ENDBRANCH   4  18
BRANCH   1  20
ATOM     20  S   UNL     1      -2.445  11.474  17.309  0.00  0.00    +0.000 S 
BRANCH  20  21
ATOM     21  C   UNL     1      -2.566   9.846  16.517  0.00  0.00    +0.000 C 
BRANCH  21  23
ATOM     22  C   UNL     1      -3.380  10.035  13.977  0.00  0.00    +0.000 C 
ATOM     23  C   UNL     1      -3.012   9.955  15.119  0.00  0.00    +0.000 C 
ENDBRANCH  21  23
ENDBRANCH  20  21
ENDBRANCH   1  20
BRANCH   3  24
ATOM     24  S   UNL     1      -1.300  11.866  22.457  0.00  0.00    +0.000 S 
BRANCH  24  25
ATOM     25  C   UNL     1      -0.328  13.295  22.451  0.00  0.00    +0.000 A 
ATOM     26  N   UNL     1       0.811  13.487  21.824  0.00  0.00    +0.000 NA
ATOM     27  N   UNL     1       1.238  14.740  22.190  0.00  0.00    +0.000 NA
ATOM     28  N   UNL     1       0.368  15.320  23.005  0.00  0.00    +0.000 NA
ATOM     29  N   UNL     1      -0.623  14.424  23.161  0.00  0.00    +0.000 N 
ATOM     30  C   UNL     1      -1.788  14.762  23.930  0.00  0.00    +0.000 C 
ENDBRANCH  24  25
ENDBRANCH   3  24
TORSDOF 7
ENDMDL
MODEL 4
REMARK VINA RESULT:      -7.8      5.256      8.896
REMARK  Name = 
REMARK  8 active torsions:
REMARK  status: ('A' for Active; 'I' for Inactive)
REMARK    1  A    between atoms: C_2  and  C_3
REMARK    2  A    between atoms: C_3  and  S_4
REMARK    3  A    between atoms: S_4  and  C_5
REMARK    4  A    between atoms: C_7  and  S_8
REMARK    5  A    between atoms: S_8  and  C_9
REMARK    6  A    between atoms: N_13  and  C_14
REMARK    7  A    between atoms: C_15  and  C_16
REMARK    8  A    between atoms: C_18  and  C_19
REMARK                            x       y       z     vdW  Elec       q    Type
REMARK                         _______ _______ _______ _____ _____    ______ ____
ROOT
ATOM      1  C   UNL     1      -1.437  11.196  19.036  0.00  0.00    +0.000 A 
ATOM      2  N   UNL     1      -1.756  11.853  20.154  0.00  0.00    +0.000 NA
ATOM      3  C   UNL     1      -1.170  11.433  21.302  0.00  0.00    +0.000 A 
ATOM      4  C   UNL     1      -0.294  10.354  21.352  0.00  0.00    +0.000 A 
ATOM      5  C   UNL     1       0.005   9.747  20.137  0.00  0.00    +0.000 A 
ATOM      6  N   UNL     1      -0.574  10.173  18.983  0.00  0.00    +0.000 NA
ENDROOT
BRANCH   5   7
ATOM      7  C   UNL     1       0.963   8.620  19.932  0.00  0.00    +0.000 A 
ATOM      8  C   UNL     1       0.988   7.543  20.847  0.00  0.00    +0.000 A 
ATOM      9  C   UNL     1       1.876   6.470  20.703  0.00  0.00    +0.000 A 
ATOM     10  C   UNL     1       2.738   6.448  19.614  0.00  0.00    +0.000 A 
ATOM     11  O   UNL     1       3.631   5.366  19.505  0.00  0.00    +0.000 OA
ATOM     12  C   UNL     1       4.538   5.291  18.455  0.00  0.00    +0.000 A 
ATOM     13  O   UNL     1       5.374   4.398  18.371  0.00  0.00    +0.000 OA
ATOM     14  C   UNL     1       4.445   6.332  17.416  0.00  0.00    +0.000 A 
ATOM     15  C   UNL     1       3.603   7.365  17.515  0.00  0.00    +0.000 A 
ATOM     16  C   UNL     1       2.733   7.470  18.676  0.00  0.00    +0.000 A 
ATOM     17  C   UNL     1       1.878   8.564  18.860  0.00  0.00    +0.000 A 
ENDBRANCH   5   7
BRANCH   4  18
ATOM     18  C   UNL     1       0.248   9.901  22.594  0.00  0.00    +0.000 C 
ATOM     19  N   UNL     1       0.643   9.568  23.630  0.00  0.00    +0.000 NA
ENDBRANCH   4  18
BRANCH   1  20
ATOM     20  S   UNL     1      -2.270  11.629  17.537  0.00  0.00    +0.000 S 
BRANCH  20  21
ATOM     21  C   UNL     1      -2.372   9.980  16.787  0.00  0.00    +0.000 C 
BRANCH  21  23
ATOM     22  C   UNL     1      -3.313  10.094  14.287  0.00  0.00    +0.000 C 
ATOM     23  C   UNL     1      -2.895  10.042  15.413  0.00  0.00    +0.000 C 
ENDBRANCH  21  23
ENDBRANCH  20  21
ENDBRANCH   1  20
BRANCH   3  24
ATOM     24  S   UNL     1      -1.722  12.347  22.748  0.00  0.00    +0.000 S 
BRANCH  24  25
ATOM     25  C   UNL     1      -0.613  13.673  22.724  0.00  0.00    +0.000 A 
ATOM     26  N   UNL     1       0.488  13.783  22.015  0.00  0.00    +0.000 NA
ATOM     27  N   UNL     1       1.067  14.968  22.399  0.00  0.00    +0.000 NA
ATOM     28  N   UNL     1       0.326  15.588  23.307  0.00  0.00    +0.000 NA
ATOM     29  N   UNL     1      -0.736  14.787  23.505  0.00  0.00    +0.000 N 
ATOM     30  C   UNL     1      -1.798  15.198  24.380  0.00  0.00    +0.000 C 
ENDBRANCH  24  25
ENDBRANCH   3  24
TORSDOF 7
ENDMDL
MODEL 5
REMARK VINA RESULT:      -7.7      2.247      4.523
REMARK  Name = 
REMARK  8 active torsions:
REMARK  status: ('A' for Active; 'I' for Inactive)
REMARK    1  A    between atoms: C_2  and  C_3
REMARK    2  A    between atoms: C_3  and  S_4
REMARK    3  A    between atoms: S_4  and  C_5
REMARK    4  A    between atoms: C_7  and  S_8
REMARK    5  A    between atoms: S_8  and  C_9
REMARK    6  A    between atoms: N_13  and  C_14
REMARK    7  A    between atoms: C_15  and  C_16
REMARK    8  A    between atoms: C_18  and  C_19
REMARK                            x       y       z     vdW  Elec       q    Type
REMARK                         _______ _______ _______ _____ _____    ______ ____
ROOT
ATOM      1  C   UNL     1       4.593   5.630  16.927  0.00  0.00    +0.000 A 
ATOM      2  N   UNL     1       4.248   4.354  17.127  0.00  0.00    +0.000 NA
ATOM      3  C   UNL     1       3.178   4.125  17.926  0.00  0.00    +0.000 A 
ATOM      4  C   UNL     1       2.465   5.147  18.547  0.00  0.00    +0.000 A 
ATOM      5  C   UNL     1       2.874   6.445  18.259  0.00  0.00    +0.000 A 
ATOM      6  N   UNL     1       3.942   6.677  17.450  0.00  0.00    +0.000 NA
ENDROOT
BRANCH   5   7
ATOM      7  C   UNL     1       2.228   7.697  18.753  0.00  0.00    +0.000 A 
ATOM      8  C   UNL     1       2.030   8.782  17.870  0.00  0.00    +0.000 A 
ATOM      9  C   UNL     1       1.440   9.980  18.290  0.00  0.00    +0.000 A 
ATOM     10  C   UNL     1       1.009  10.097  19.605  0.00  0.00    +0.000 A 
ATOM     11  O   UNL     1       0.435  11.319  20.002  0.00  0.00    +0.000 OA
ATOM     12  C   UNL     1       0.005  11.514  21.309  0.00  0.00    +0.000 A 
ATOM     13  O   UNL     1      -0.434  12.589  21.703  0.00  0.00    +0.000 OA
ATOM     14  C   UNL     1       0.080  10.355  22.218  0.00  0.00    +0.000 A 
ATOM     15  C   UNL     1       0.627   9.194  21.849  0.00  0.00    +0.000 A 
ATOM     16  C   UNL     1       1.160   9.050  20.503  0.00  0.00    +0.000 A 
ATOM     17  C   UNL     1       1.800   7.877  20.084  0.00  0.00    +0.000 A 
ENDBRANCH   5   7
BRANCH   4  18
ATOM     18  C   UNL     1       1.385   4.857  19.436  0.00  0.00    +0.000 C 
ATOM     19  N   UNL     1       0.524   4.561  20.151  0.00  0.00    +0.000 NA
ENDBRANCH   4  18
BRANCH   1  20
ATOM     20  S   UNL     1       6.056   5.971  15.995  0.00  0.00    +0.000 S 
BRANCH  20  21
ATOM     21  C   UNL     1       6.535   4.269  15.589  0.00  0.00    +0.000 C 
BRANCH  21  23
ATOM     22  C   UNL     1       6.033   3.678  13.030  0.00  0.00    +0.000 C 
ATOM     23  C   UNL     1       6.259   3.950  14.180  0.00  0.00    +0.000 C 
ENDBRANCH  21  23
ENDBRANCH  20  21
ENDBRANCH   1  20
BRANCH   3  24
ATOM     24  S   UNL     1       2.847   2.376  18.174  0.00  0.00    +0.000 S 
BRANCH  24  25
ATOM     25  C   UNL     1       3.753   2.086  19.617  0.00  0.00    +0.000 A 
ATOM     26  N   UNL     1       5.045   1.871  19.723  0.00  0.00    +0.000 NA
ATOM     27  N   UNL     1       5.277   1.611  21.051  0.00  0.00    +0.000 NA
ATOM     28  N   UNL     1       4.156   1.689  21.755  0.00  0.00    +0.000 NA
ATOM     29  N   UNL     1       3.199   2.000  20.863  0.00  0.00    +0.000 N 
ATOM     30  C   UNL     1       1.854   2.245  21.303  0.00  0.00    +0.000 C 
ENDBRANCH  24  25
ENDBRANCH   3  24
TORSDOF 7
ENDMDL
MODEL 6
REMARK VINA RESULT:      -7.6      2.262      4.563
REMARK  Name = 
REMARK  8 active torsions:
REMARK  status: ('A' for Active; 'I' for Inactive)
REMARK    1  A    between atoms: C_2  and  C_3
REMARK    2  A    between atoms: C_3  and  S_4
REMARK    3  A    between atoms: S_4  and  C_5
REMARK    4  A    between atoms: C_7  and  S_8
REMARK    5  A    between atoms: S_8  and  C_9
REMARK    6  A    between atoms: N_13  and  C_14
REMARK    7  A    between atoms: C_15  and  C_16
REMARK    8  A    between atoms: C_18  and  C_19
REMARK                            x       y       z     vdW  Elec       q    Type
REMARK                         _______ _______ _______ _____ _____    ______ ____
ROOT
ATOM      1  C   UNL     1       4.652   5.700  16.951  0.00  0.00    +0.000 A 
ATOM      2  N   UNL     1       4.316   4.420  17.129  0.00  0.00    +0.000 NA
ATOM      3  C   UNL     1       3.234   4.171  17.906  0.00  0.00    +0.000 A 
ATOM      4  C   UNL     1       2.501   5.178  18.527  0.00  0.00    +0.000 A 
ATOM      5  C   UNL     1       2.904   6.483  18.263  0.00  0.00    +0.000 A 
ATOM      6  N   UNL     1       3.983   6.736  17.476  0.00  0.00    +0.000 NA
ENDROOT
BRANCH   5   7
ATOM      7  C   UNL     1       2.237   7.723  18.760  0.00  0.00    +0.000 A 
ATOM      8  C   UNL     1       2.013   8.805  17.879  0.00  0.00    +0.000 A 
ATOM      9  C   UNL     1       1.403   9.992  18.302  0.00  0.00    +0.000 A 
ATOM     10  C   UNL     1       0.979  10.100  19.620  0.00  0.00    +0.000 A 
ATOM     11  O   UNL     1       0.386  11.311  20.022  0.00  0.00    +0.000 OA
ATOM     12  C   UNL     1      -0.040  11.499  21.331  0.00  0.00    +0.000 A 
ATOM     13  O   UNL     1      -0.496  12.565  21.728  0.00  0.00    +0.000 OA
ATOM     14  C   UNL     1       0.062  10.342  22.239  0.00  0.00    +0.000 A 
ATOM     15  C   UNL     1       0.629   9.191  21.867  0.00  0.00    +0.000 A 
ATOM     16  C   UNL     1       1.156   9.057  20.517  0.00  0.00    +0.000 A 
ATOM     17  C   UNL     1       1.815   7.895  20.095  0.00  0.00    +0.000 A 
ENDBRANCH   5   7
BRANCH   4  18
ATOM     18  C   UNL     1       1.409   4.867  19.394  0.00  0.00    +0.000 C 
ATOM     19  N   UNL     1       0.565   4.606  20.142  0.00  0.00    +0.000 NA
ENDBRANCH   4  18
BRANCH   1  20
ATOM     20  S   UNL     1       6.128   6.067  16.048  0.00  0.00    +0.000 S 
BRANCH  20  21
ATOM     21  C   UNL     1       6.956   7.115  17.276  0.00  0.00    +0.000 C 
BRANCH  21  23
ATOM     22  C   UNL     1       7.912   5.682  19.321  0.00  0.00    +0.000 C 
ATOM     23  C   UNL     1       7.479   6.322  18.400  0.00  0.00    +0.000 C 
ENDBRANCH  21  23
ENDBRANCH  20  21
ENDBRANCH   1  20
BRANCH   3  24
ATOM     24  S   UNL     1       2.915   2.416  18.126  0.00  0.00    +0.000 S 
BRANCH  24  25
ATOM     25  C   UNL     1       3.782   2.120  19.592  0.00  0.00    +0.000 A 
ATOM     26  N   UNL     1       5.074   1.924  19.733  0.00  0.00    +0.000 NA
ATOM     27  N   UNL     1       5.272   1.650  21.064  0.00  0.00    +0.000 NA
ATOM     28  N   UNL     1       4.129   1.701  21.736  0.00  0.00    +0.000 NA
ATOM     29  N   UNL     1       3.194   2.009  20.819  0.00  0.00    +0.000 N 
ATOM     30  C   UNL     1       1.833   2.228  21.223  0.00  0.00    +0.000 C 
ENDBRANCH  24  25
ENDBRANCH   3  24
TORSDOF 7
ENDMDL
MODEL 7
REMARK VINA RESULT:      -7.6      2.118      3.465
REMARK  Name = 
REMARK  8 active torsions:
REMARK  status: ('A' for Active; 'I' for Inactive)
REMARK    1  A    between atoms: C_2  and  C_3
REMARK    2  A    between atoms: C_3  and  S_4
REMARK    3  A    between atoms: S_4  and  C_5
REMARK    4  A    between atoms: C_7  and  S_8
REMARK    5  A    between atoms: S_8  and  C_9
REMARK    6  A    between atoms: N_13  and  C_14
REMARK    7  A    between atoms: C_15  and  C_16
REMARK    8  A    between atoms: C_18  and  C_19
REMARK                            x       y       z     vdW  Elec       q    Type
REMARK                         _______ _______ _______ _____ _____    ______ ____
ROOT
ATOM      1  C   UNL     1       3.415   3.689  18.095  0.00  0.00    +0.000 A 
ATOM      2  N   UNL     1       4.717   3.555  17.827  0.00  0.00    +0.000 NA
ATOM      3  C   UNL     1       5.451   4.693  17.765  0.00  0.00    +0.000 A 
ATOM      4  C   UNL     1       4.901   5.959  17.942  0.00  0.00    +0.000 A 
ATOM      5  C   UNL     1       3.544   6.002  18.247  0.00  0.00    +0.000 A 
ATOM      6  N   UNL     1       2.808   4.862  18.319  0.00  0.00    +0.000 NA
ENDROOT
BRANCH   5   7
ATOM      7  C   UNL     1       2.751   7.233  18.541  0.00  0.00    +0.000 A 
ATOM      8  C   UNL     1       2.587   8.219  17.543  0.00  0.00    +0.000 A 
ATOM      9  C   UNL     1       1.862   9.395  17.777  0.00  0.00    +0.000 A 
ATOM     10  C   UNL     1       1.263   9.585  19.015  0.00  0.00    +0.000 A 
ATOM     11  O   UNL     1       0.557  10.783  19.226  0.00  0.00    +0.000 OA
ATOM     12  C   UNL     1      -0.047  11.051  20.448  0.00  0.00    +0.000 A 
ATOM     13  O   UNL     1      -0.609  12.114  20.685  0.00  0.00    +0.000 OA
ATOM     14  C   UNL     1      -0.002   9.983  21.464  0.00  0.00    +0.000 A 
ATOM     15  C   UNL     1       0.671   8.845  21.273  0.00  0.00    +0.000 A 
ATOM     16  C   UNL     1       1.377   8.634  20.019  0.00  0.00    +0.000 A 
ATOM     17  C   UNL     1       2.149   7.487  19.790  0.00  0.00    +0.000 A 
ENDBRANCH   5   7
BRANCH   4  18
ATOM     18  C   UNL     1       5.698   7.135  17.801  0.00  0.00    +0.000 C 
ATOM     19  N   UNL     1       6.294   8.120  17.669  0.00  0.00    +0.000 NA
ENDBRANCH   4  18
BRANCH   1  20
ATOM     20  S   UNL     1       2.396   2.245  18.062  0.00  0.00    +0.000 S 
BRANCH  20  21
ATOM     21  C   UNL     1       1.017   2.851  19.074  0.00  0.00    +0.000 C 
BRANCH  21  23
ATOM     22  C   UNL     1       1.585   2.720  21.683  0.00  0.00    +0.000 C 
ATOM     23  C   UNL     1       1.328   2.784  20.510  0.00  0.00    +0.000 C 
ENDBRANCH  21  23
ENDBRANCH  20  21
ENDBRANCH   1  20
BRANCH   3  24
ATOM     24  S   UNL     1       7.172   4.397  17.336  0.00  0.00    +0.000 S 
BRANCH  24  25
ATOM     25  C   UNL     1       7.126   4.696  15.634  0.00  0.00    +0.000 A 
ATOM     26  N   UNL     1       7.767   5.630  14.967  0.00  0.00    +0.000 NA
ATOM     27  N   UNL     1       7.347   5.519  13.664  0.00  0.00    +0.000 NA
ATOM     28  N   UNL     1       6.486   4.521  13.524  0.00  0.00    +0.000 NA
ATOM     29  N   UNL     1       6.354   3.992  14.755  0.00  0.00    +0.000 N 
ATOM     30  C   UNL     1       5.546   2.822  14.955  0.00  0.00    +0.000 C 
ENDBRANCH  24  25
ENDBRANCH   3  24
TORSDOF 7
ENDMDL
MODEL 8
REMARK VINA RESULT:      -7.6      1.967      3.385
REMARK  Name = 
REMARK  8 active torsions:
REMARK  status: ('A' for Active; 'I' for Inactive)
REMARK    1  A    between atoms: C_2  and  C_3
REMARK    2  A    between atoms: C_3  and  S_4
REMARK    3  A    between atoms: S_4  and  C_5
REMARK    4  A    between atoms: C_7  and  S_8
REMARK    5  A    between atoms: S_8  and  C_9
REMARK    6  A    between atoms: N_13  and  C_14
REMARK    7  A    between atoms: C_15  and  C_16
REMARK    8  A    between atoms: C_18  and  C_19
REMARK                            x       y       z     vdW  Elec       q    Type
REMARK                         _______ _______ _______ _____ _____    ______ ____
ROOT
ATOM      1  C   UNL     1       4.372   3.759  19.580  0.00  0.00    +0.000 A 
ATOM      2  N   UNL     1       5.581   3.707  19.015  0.00  0.00    +0.000 NA
ATOM      3  C   UNL     1       5.996   4.812  18.350  0.00  0.00    +0.000 A 
ATOM      4  C   UNL     1       5.213   5.955  18.220  0.00  0.00    +0.000 A 
ATOM      5  C   UNL     1       3.981   5.933  18.865  0.00  0.00    +0.000 A 
ATOM      6  N   UNL     1       3.567   4.829  19.541  0.00  0.00    +0.000 NA
ENDROOT
BRANCH   5   7
ATOM      7  C   UNL     1       3.001   7.059  18.921  0.00  0.00    +0.000 A 
ATOM      8  C   UNL     1       2.756   7.837  17.768  0.00  0.00    +0.000 A 
ATOM      9  C   UNL     1       1.856   8.910  17.776  0.00  0.00    +0.000 A 
ATOM     10  C   UNL     1       1.161   9.200  18.943  0.00  0.00    +0.000 A 
ATOM     11  O   UNL     1       0.277  10.294  18.925  0.00  0.00    +0.000 OA
ATOM     12  C   UNL     1      -0.432  10.657  20.064  0.00  0.00    +0.000 A 
ATOM     13  O   UNL     1      -1.157  11.645  20.100  0.00  0.00    +0.000 OA
ATOM     14  C   UNL     1      -0.295   9.784  21.244  0.00  0.00    +0.000 A 
ATOM     15  C   UNL     1       0.546   8.746  21.270  0.00  0.00    +0.000 A 
ATOM     16  C   UNL     1       1.351   8.449  20.094  0.00  0.00    +0.000 A 
ATOM     17  C   UNL     1       2.293   7.413  20.088  0.00  0.00    +0.000 A 
ENDBRANCH   5   7
BRANCH   4  18
ATOM     18  C   UNL     1       5.662   7.072  17.451  0.00  0.00    +0.000 C 
ATOM     19  N   UNL     1       6.082   7.950  16.823  0.00  0.00    +0.000 NA
ENDBRANCH   4  18
BRANCH   1  20
ATOM     20  S   UNL     1       3.738   2.299  20.352  0.00  0.00    +0.000 S 
BRANCH  20  21
ATOM     21  C   UNL     1       2.807   1.622  18.949  0.00  0.00    +0.000 C 
BRANCH  21  23
ATOM     22  C   UNL     1       0.367   2.699  18.763  0.00  0.00    +0.000 C 
ATOM     23  C   UNL     1       1.464   2.215  18.852  0.00  0.00    +0.000 C 
ENDBRANCH  21  23
ENDBRANCH  20  21
ENDBRANCH   1  20
BRANCH   3  24
ATOM     24  S   UNL     1       7.606   4.604  17.578  0.00  0.00    +0.000 S 
BRANCH  24  25
ATOM     25  C   UNL     1       7.164   4.659  15.908  0.00  0.00    +0.000 A 
ATOM     26  N   UNL     1       7.682   5.416  14.966  0.00  0.00    +0.000 NA
ATOM     27  N   UNL     1       6.948   5.164  13.833  0.00  0.00    +0.000 NA
ATOM     28  N   UNL     1       6.013   4.252  14.064  0.00  0.00    +0.000 NA
ATOM     29  N   UNL     1       6.153   3.922  15.360  0.00  0.00    +0.000 N 
ATOM     30  C   UNL     1       5.341   2.885  15.932  0.00  0.00    +0.000 C 
ENDBRANCH  24  25
ENDBRANCH   3  24
TORSDOF 7
ENDMDL
MODEL 9
REMARK VINA RESULT:      -7.6      1.090      1.720
REMARK  Name = 
REMARK  8 active torsions:
REMARK  status: ('A' for Active; 'I' for Inactive)
REMARK    1  A    between atoms: C_2  and  C_3
REMARK    2  A    between atoms: C_3  and  S_4
REMARK    3  A    between atoms: S_4  and  C_5
REMARK    4  A    between atoms: C_7  and  S_8
REMARK    5  A    between atoms: S_8  and  C_9
REMARK    6  A    between atoms: N_13  and  C_14
REMARK    7  A    between atoms: C_15  and  C_16
REMARK    8  A    between atoms: C_18  and  C_19
REMARK                            x       y       z     vdW  Elec       q    Type
REMARK                         _______ _______ _______ _____ _____    ______ ____
ROOT
ATOM      1  C   UNL     1       2.567   4.940  20.533  0.00  0.00    +0.000 A 
ATOM      2  N   UNL     1       3.444   4.757  19.542  0.00  0.00    +0.000 NA
ATOM      3  C   UNL     1       3.611   5.782  18.671  0.00  0.00    +0.000 A 
ATOM      4  C   UNL     1       2.897   6.973  18.760  0.00  0.00    +0.000 A 
ATOM      5  C   UNL     1       2.027   7.089  19.839  0.00  0.00    +0.000 A 
ATOM      6  N   UNL     1       1.866   6.066  20.720  0.00  0.00    +0.000 NA
ENDROOT
BRANCH   5   7
ATOM      7  C   UNL     1       1.207   8.290  20.178  0.00  0.00    +0.000 A 
ATOM      8  C   UNL     1       0.893   9.235  19.175  0.00  0.00    +0.000 A 
ATOM      9  C   UNL     1       0.138  10.381  19.448  0.00  0.00    +0.000 A 
ATOM     10  C   UNL     1      -0.342  10.584  20.735  0.00  0.00    +0.000 A 
ATOM     11  O   UNL     1      -1.083  11.754  20.983  0.00  0.00    +0.000 OA
ATOM     12  C   UNL     1      -1.573  12.033  22.253  0.00  0.00    +0.000 A 
ATOM     13  O   UNL     1      -2.162  13.076  22.516  0.00  0.00    +0.000 OA
ATOM     14  C   UNL     1      -1.373  11.003  23.288  0.00  0.00    +0.000 A 
ATOM     15  C   UNL     1      -0.666   9.892  23.062  0.00  0.00    +0.000 A 
ATOM     16  C   UNL     1      -0.080   9.673  21.748  0.00  0.00    +0.000 A 
ATOM     17  C   UNL     1       0.721   8.557  21.475  0.00  0.00    +0.000 A 
ENDBRANCH   5   7
BRANCH   4  18
ATOM     18  C   UNL     1       3.053   8.001  17.781  0.00  0.00    +0.000 C 
ATOM     19  N   UNL     1       3.209   8.868  17.029  0.00  0.00    +0.000 NA
ENDBRANCH   4  18
BRANCH   1  20
ATOM     20  S   UNL     1       2.226   3.586  21.618  0.00  0.00    +0.000 S 
BRANCH  20  21
ATOM     21  C   UNL     1       0.885   2.804  20.679  0.00  0.00    +0.000 C 
BRANCH  21  23
ATOM     22  C   UNL     1       1.685   2.117  18.222  0.00  0.00    +0.000 C 
ATOM     23  C   UNL     1       1.322   2.421  19.328  0.00  0.00    +0.000 C 
ENDBRANCH  21  23
ENDBRANCH  20  21
ENDBRANCH   1  20
BRANCH   3  24
ATOM     24  S   UNL     1       4.765   5.399  17.347  0.00  0.00    +0.000 S 
BRANCH  24  25
ATOM     25  C   UNL     1       6.265   5.498  18.200  0.00  0.00    +0.000 A 
ATOM     26  N   UNL     1       6.766   4.625  19.045  0.00  0.00    +0.000 NA
ATOM     27  N   UNL     1       7.927   5.183  19.521  0.00  0.00    +0.000 NA
ATOM     28  N   UNL     1       8.152   6.365  18.962  0.00  0.00    +0.000 NA
ATOM     29  N   UNL     1       7.120   6.561  18.122  0.00  0.00    +0.000 N 
ATOM     30  C   UNL     1       7.086   7.724  17.280  0.00  0.00    +0.000 C 
ENDBRANCH  24  25
ENDBRANCH   3  24
TORSDOF 7
ENDMDL
