MODEL 1
REMARK VINA RESULT:      -7.5      0.000      0.000
REMARK  Name = 
REMARK  8 active torsions:
REMARK  status: ('A' for Active; 'I' for Inactive)
REMARK    1  A    between atoms: C_1  and  C_2
REMARK    2  A    between atoms: C_7  and  C_8
REMARK    3  A    between atoms: C_7  and  C_9
REMARK    4  A    between atoms: C_14  and  C_15
REMARK    5  A    between atoms: C_16  and  C_17
REMARK    6  A    between atoms: C_17  and  C_18
REMARK    7  A    between atoms: C_18  and  O_19
REMARK    8  A    between atoms: C_18  and  C_20
REMARK                            x       y       z     vdW  Elec       q    Type
REMARK                         _______ _______ _______ _____ _____    ______ ____
ROOT
ATOM      1  C   UNL     1       7.312   6.563  16.775  0.00  0.00    +0.000 C 
ATOM      2  C   UNL     1       6.397   5.267  16.726  0.00  0.00    +0.000 C 
ATOM      3  C   UNL     1       6.263   4.129  17.463  0.00  0.00    +0.000 C 
ATOM      4  C   UNL     1       4.778   3.814  17.938  0.00  0.00    +0.000 C 
ATOM      5  O   UNL     1       4.549   2.744  18.488  0.00  0.00    +0.000 OA
ATOM      6  C   UNL     1       3.666   4.850  17.607  0.00  0.00    +0.000 C 
ATOM      7  C   UNL     1       2.434   5.008  18.612  0.00  0.00    +0.000 C 
ATOM      8  C   UNL     1       2.782   4.791  20.108  0.00  0.00    +0.000 C 
ATOM      9  C   UNL     1       1.304   3.971  18.309  0.00  0.00    +0.000 C 
ATOM     10  C   UNL     1       1.724   6.387  18.403  0.00  0.00    +0.000 C 
ATOM     11  C   UNL     1       2.687   7.554  18.269  0.00  0.00    +0.000 C 
ATOM     12 CL   UNL     1       1.823   9.110  18.211  0.00  0.00    +0.000 Cl
ATOM     13  C   UNL     1       3.560   7.350  17.000  0.00  0.00    +0.000 C 
ATOM     14  C   UNL     1       4.503   6.148  17.198  0.00  0.00    +0.000 C 
ATOM     15  C   UNL     1       5.301   6.579  18.609  0.00  0.00    +0.000 C 
ATOM     16  C   UNL     1       5.340   5.531  15.739  0.00  0.00    +0.000 C 
ENDROOT
BRANCH  16  17
ATOM     17  C   UNL     1       6.589   5.302  14.548  0.00  0.00    +0.000 C 
BRANCH  17  18
ATOM     18  C   UNL     1       6.794   3.832  13.713  0.00  0.00    +0.000 C 
BRANCH  18  19
ATOM     19  C   UNL     1       6.660   3.663  12.174  0.00  0.00    +0.000 C 
ATOM     20  C   UNL     1       7.431   2.550  11.476  0.00  0.00    +0.000 C 
ATOM     21  C   UNL     1       6.416   1.475  11.154  0.00  0.00    +0.000 C 
ATOM     22  O   UNL     1       6.664   0.371  10.711  0.00  0.00    +0.000 OA
ATOM     23  N   UNL     1       5.175   1.937  11.463  0.00  0.00    +0.000 N 
ATOM     24  C   UNL     1       5.213   3.225  11.880  0.00  0.00    +0.000 C 
ATOM     25  O   UNL     1       4.224   3.920  12.078  0.00  0.00    +0.000 OA
ATOM     26  H   UNL     1       4.335   1.437  11.236  0.00  0.00    +0.000 HD
ENDBRANCH  18  19
BRANCH  18  27
ATOM     27  O   UNL     1       5.884   2.889  14.315  0.00  0.00    +0.000 OA
ATOM     28  H   UNL     1       6.419   2.188  14.753  0.00  0.00    +0.000 HD
ENDBRANCH  18  27
ENDBRANCH  17  18
ENDBRANCH  16  17
TORSDOF 4
ENDMDL
MODEL 2
REMARK VINA RESULT:      -7.5     10.110     12.460
REMARK  Name = 
REMARK  8 active torsions:
REMARK  status: ('A' for Active; 'I' for Inactive)
REMARK    1  A    between atoms: C_1  and  C_2
REMARK    2  A    between atoms: C_7  and  C_8
REMARK    3  A    between atoms: C_7  and  C_9
REMARK    4  A    between atoms: C_14  and  C_15
REMARK    5  A    between atoms: C_16  and  C_17
REMARK    6  A    between atoms: C_17  and  C_18
REMARK    7  A    between atoms: C_18  and  O_19
REMARK    8  A    between atoms: C_18  and  C_20
REMARK                            x       y       z     vdW  Elec       q    Type
REMARK                         _______ _______ _______ _____ _____    ______ ____
ROOT
ATOM      1  C   UNL     1       0.468  12.431  21.233  0.00  0.00    +0.000 C 
ATOM      2  C   UNL     1      -1.008  11.999  21.628  0.00  0.00    +0.000 C 
ATOM      3  C   UNL     1      -1.623  11.495  22.733  0.00  0.00    +0.000 C 
ATOM      4  C   UNL     1      -2.914  12.296  23.202  0.00  0.00    +0.000 C 
ATOM      5  O   UNL     1      -3.601  11.834  24.103  0.00  0.00    +0.000 OA
ATOM      6  C   UNL     1      -3.290  13.597  22.433  0.00  0.00    +0.000 C 
ATOM      7  C   UNL     1      -4.016  14.779  23.225  0.00  0.00    +0.000 C 
ATOM      8  C   UNL     1      -3.589  14.928  24.709  0.00  0.00    +0.000 C 
ATOM      9  C   UNL     1      -5.565  14.576  23.272  0.00  0.00    +0.000 C 
ATOM     10  C   UNL     1      -3.852  16.136  22.462  0.00  0.00    +0.000 C 
ATOM     11  C   UNL     1      -2.443  16.381  21.952  0.00  0.00    +0.000 C 
ATOM     12 CL   UNL     1      -2.277  18.011  21.252  0.00  0.00    +0.000 Cl
ATOM     13  C   UNL     1      -2.080  15.285  20.912  0.00  0.00    +0.000 C 
ATOM     14  C   UNL     1      -1.958  13.918  21.612  0.00  0.00    +0.000 C 
ATOM     15  C   UNL     1      -0.818  14.250  22.797  0.00  0.00    +0.000 C 
ATOM     16  C   UNL     1      -1.890  12.475  20.552  0.00  0.00    +0.000 C 
ENDROOT
BRANCH  16  17
ATOM     17  C   UNL     1      -1.224  11.166  19.617  0.00  0.00    +0.000 C 
BRANCH  17  18
ATOM     18  C   UNL     1      -1.668  10.882  17.998  0.00  0.00    +0.000 C 
BRANCH  18  19
ATOM     19  C   UNL     1      -3.048  10.331  17.543  0.00  0.00    +0.000 C 
ATOM     20  C   UNL     1      -4.321  10.951  18.105  0.00  0.00    +0.000 C 
ATOM     21  C   UNL     1      -4.891  11.813  17.001  0.00  0.00    +0.000 C 
ATOM     22  O   UNL     1      -5.833  12.573  17.105  0.00  0.00    +0.000 OA
ATOM     23  N   UNL     1      -4.159  11.619  15.871  0.00  0.00    +0.000 N 
ATOM     24  C   UNL     1      -3.211  10.668  16.049  0.00  0.00    +0.000 C 
ATOM     25  O   UNL     1      -2.519  10.202  15.152  0.00  0.00    +0.000 OA
ATOM     26  H   UNL     1      -4.416  12.007  14.981  0.00  0.00    +0.000 HD
ENDBRANCH  18  19
BRANCH  18  27
ATOM     27  O   UNL     1      -0.668  10.002  17.447  0.00  0.00    +0.000 OA
ATOM     28  H   UNL     1       0.123  10.544  17.221  0.00  0.00    +0.000 HD
ENDBRANCH  18  27
ENDBRANCH  17  18
ENDBRANCH  16  17
TORSDOF 4
ENDMDL
MODEL 3
REMARK VINA RESULT:      -7.3      5.779      8.786
REMARK  Name = 
REMARK  8 active torsions:
REMARK  status: ('A' for Active; 'I' for Inactive)
REMARK    1  A    between atoms: C_1  and  C_2
REMARK    2  A    between atoms: C_7  and  C_8
REMARK    3  A    between atoms: C_7  and  C_9
REMARK    4  A    between atoms: C_14  and  C_15
REMARK    5  A    between atoms: C_16  and  C_17
REMARK    6  A    between atoms: C_17  and  C_18
REMARK    7  A    between atoms: C_18  and  O_19
REMARK    8  A    between atoms: C_18  and  C_20
REMARK                            x       y       z     vdW  Elec       q    Type
REMARK                         _______ _______ _______ _____ _____    ______ ____
ROOT
ATOM      1  C   UNL     1       1.848  10.385  18.288  0.00  0.00    +0.000 C 
ATOM      2  C   UNL     1       1.305  10.663  19.753  0.00  0.00    +0.000 C 
ATOM      3  C   UNL     1       1.428  11.658  20.675  0.00  0.00    +0.000 C 
ATOM      4  C   UNL     1       0.051  12.207  21.251  0.00  0.00    +0.000 C 
ATOM      5  O   UNL     1       0.075  13.005  22.180  0.00  0.00    +0.000 OA
ATOM      6  C   UNL     1      -1.271  11.640  20.658  0.00  0.00    +0.000 C 
ATOM      7  C   UNL     1      -2.558  12.584  20.598  0.00  0.00    +0.000 C 
ATOM      8  C   UNL     1      -2.254  14.085  20.351  0.00  0.00    +0.000 C 
ATOM      9  C   UNL     1      -3.360  12.553  21.939  0.00  0.00    +0.000 C 
ATOM     10  C   UNL     1      -3.588  12.047  19.549  0.00  0.00    +0.000 C 
ATOM     11  C   UNL     1      -2.955  11.624  18.235  0.00  0.00    +0.000 C 
ATOM     12 CL   UNL     1      -4.188  11.191  17.025  0.00  0.00    +0.000 Cl
ATOM     13  C   UNL     1      -1.986  10.437  18.497  0.00  0.00    +0.000 C 
ATOM     14  C   UNL     1      -0.777  10.918  19.321  0.00  0.00    +0.000 C 
ATOM     15  C   UNL     1      -0.202  12.174  18.369  0.00  0.00    +0.000 C 
ATOM     16  C   UNL     1       0.275   9.649  20.023  0.00  0.00    +0.000 C 
ENDROOT
BRANCH  16  17
ATOM     17  C   UNL     1       1.608   8.542  20.190  0.00  0.00    +0.000 C 
BRANCH  17  18
ATOM     18  C   UNL     1       1.547   6.944  19.604  0.00  0.00    +0.000 C 
BRANCH  18  19
ATOM     19  C   UNL     1       1.962   5.687  20.418  0.00  0.00    +0.000 C 
ATOM     20  C   UNL     1       1.036   4.477  20.447  0.00  0.00    +0.000 C 
ATOM     21  C   UNL     1       1.664   3.448  19.534  0.00  0.00    +0.000 C 
ATOM     22  O   UNL     1       1.160   2.396  19.192  0.00  0.00    +0.000 OA
ATOM     23  N   UNL     1       2.883   3.900  19.134  0.00  0.00    +0.000 N 
ATOM     24  C   UNL     1       3.196   5.076  19.729  0.00  0.00    +0.000 C 
ATOM     25  O   UNL     1       4.291   5.622  19.655  0.00  0.00    +0.000 OA
ATOM     26  H   UNL     1       3.528   3.339  18.608  0.00  0.00    +0.000 HD
ENDBRANCH  18  19
BRANCH  18  27
ATOM     27  O   UNL     1       2.319   6.925  18.387  0.00  0.00    +0.000 OA
ATOM     28  H   UNL     1       2.632   7.842  18.210  0.00  0.00    +0.000 HD
ENDBRANCH  18  27
ENDBRANCH  17  18
ENDBRANCH  16  17
TORSDOF 4
ENDMDL
MODEL 4
REMARK VINA RESULT:      -7.3      9.905     12.552
REMARK  Name = 
REMARK  8 active torsions:
REMARK  status: ('A' for Active; 'I' for Inactive)
REMARK    1  A    between atoms: C_1  and  C_2
REMARK    2  A    between atoms: C_7  and  C_8
REMARK    3  A    between atoms: C_7  and  C_9
REMARK    4  A    between atoms: C_14  and  C_15
REMARK    5  A    between atoms: C_16  and  C_17
REMARK    6  A    between atoms: C_17  and  C_18
REMARK    7  A    between atoms: C_18  and  O_19
REMARK    8  A    between atoms: C_18  and  C_20
REMARK                            x       y       z     vdW  Elec       q    Type
REMARK                         _______ _______ _______ _____ _____    ______ ____
ROOT
ATOM      1  C   UNL     1       8.000  16.947  20.170  0.00  0.00    +0.000 C 
ATOM      2  C   UNL     1       8.125  15.767  19.116  0.00  0.00    +0.000 C 
ATOM      3  C   UNL     1       9.044  15.362  18.197  0.00  0.00    +0.000 C 
ATOM      4  C   UNL     1       9.468  13.833  18.305  0.00  0.00    +0.000 C 
ATOM      5  O   UNL     1      10.185  13.356  17.435  0.00  0.00    +0.000 OA
ATOM      6  C   UNL     1       8.882  12.990  19.474  0.00  0.00    +0.000 C 
ATOM      7  C   UNL     1       9.757  11.800  20.082  0.00  0.00    +0.000 C 
ATOM      8  C   UNL     1      11.288  12.052  20.085  0.00  0.00    +0.000 C 
ATOM      9  C   UNL     1       9.570  10.475  19.275  0.00  0.00    +0.000 C 
ATOM     10  C   UNL     1       9.255  11.423  21.517  0.00  0.00    +0.000 C 
ATOM     11  C   UNL     1       8.978  12.626  22.401  0.00  0.00    +0.000 C 
ATOM     12 CL   UNL     1       8.582  12.135  24.067  0.00  0.00    +0.000 Cl
ATOM     13  C   UNL     1       7.828  13.463  21.775  0.00  0.00    +0.000 C 
ATOM     14  C   UNL     1       8.303  14.108  20.459  0.00  0.00    +0.000 C 
ATOM     15  C   UNL     1       9.663  14.946  20.969  0.00  0.00    +0.000 C 
ATOM     16  C   UNL     1       7.038  14.821  19.409  0.00  0.00    +0.000 C 
ENDROOT
BRANCH  16  17
ATOM     17  C   UNL     1       5.994  16.016  18.693  0.00  0.00    +0.000 C 
BRANCH  17  18
ATOM     18  C   UNL     1       4.360  16.185  19.139  0.00  0.00    +0.000 C 
BRANCH  18  19
ATOM     19  C   UNL     1       3.158  15.633  18.322  0.00  0.00    +0.000 C 
ATOM     20  C   UNL     1       2.034  14.904  19.048  0.00  0.00    +0.000 C 
ATOM     21  C   UNL     1       0.874  15.873  19.103  0.00  0.00    +0.000 C 
ATOM     22  O   UNL     1      -0.162  15.710  19.716  0.00  0.00    +0.000 OA
ATOM     23  N   UNL     1       1.188  16.976  18.371  0.00  0.00    +0.000 N 
ATOM     24  C   UNL     1       2.388  16.841  17.757  0.00  0.00    +0.000 C 
ATOM     25  O   UNL     1       2.835  17.623  16.927  0.00  0.00    +0.000 OA
ATOM     26  H   UNL     1       0.529  17.708  18.177  0.00  0.00    +0.000 HD
ENDBRANCH  18  19
BRANCH  18  27
ATOM     27  O   UNL     1       4.127  17.597  19.315  0.00  0.00    +0.000 OA
ATOM     28  H   UNL     1       3.370  17.855  18.740  0.00  0.00    +0.000 HD
ENDBRANCH  18  27
ENDBRANCH  17  18
ENDBRANCH  16  17
TORSDOF 4
ENDMDL
MODEL 5
REMARK VINA RESULT:      -7.2      9.502     11.217
REMARK  Name = 
REMARK  8 active torsions:
REMARK  status: ('A' for Active; 'I' for Inactive)
REMARK    1  A    between atoms: C_1  and  C_2
REMARK    2  A    between atoms: C_7  and  C_8
REMARK    3  A    between atoms: C_7  and  C_9
REMARK    4  A    between atoms: C_14  and  C_15
REMARK    5  A    between atoms: C_16  and  C_17
REMARK    6  A    between atoms: C_17  and  C_18
REMARK    7  A    between atoms: C_18  and  O_19
REMARK    8  A    between atoms: C_18  and  C_20
REMARK                            x       y       z     vdW  Elec       q    Type
REMARK                         _______ _______ _______ _____ _____    ______ ____
ROOT
ATOM      1  C   UNL     1       0.794  10.764  20.608  0.00  0.00    +0.000 C 
ATOM      2  C   UNL     1      -0.310  11.819  20.174  0.00  0.00    +0.000 C 
ATOM      3  C   UNL     1      -1.138  12.694  20.809  0.00  0.00    +0.000 C 
ATOM      4  C   UNL     1      -1.077  14.187  20.264  0.00  0.00    +0.000 C 
ATOM      5  O   UNL     1      -1.884  15.003  20.688  0.00  0.00    +0.000 OA
ATOM      6  C   UNL     1      -0.040  14.520  19.152  0.00  0.00    +0.000 C 
ATOM      7  C   UNL     1       0.591  15.986  19.100  0.00  0.00    +0.000 C 
ATOM      8  C   UNL     1       0.791  16.660  20.483  0.00  0.00    +0.000 C 
ATOM      9  C   UNL     1      -0.314  16.977  18.299  0.00  0.00    +0.000 C 
ATOM     10  C   UNL     1       1.929  15.982  18.287  0.00  0.00    +0.000 C 
ATOM     11  C   UNL     1       2.848  14.824  18.633  0.00  0.00    +0.000 C 
ATOM     12 CL   UNL     1       4.421  14.971  17.811  0.00  0.00    +0.000 Cl
ATOM     13  C   UNL     1       2.145  13.488  18.263  0.00  0.00    +0.000 C 
ATOM     14  C   UNL     1       0.937  13.256  19.191  0.00  0.00    +0.000 C 
ATOM     15  C   UNL     1       1.656  13.344  20.704  0.00  0.00    +0.000 C 
ATOM     16  C   UNL     1      -0.208  11.963  18.714  0.00  0.00    +0.000 C 
ENDROOT
BRANCH  16  17
ATOM     17  C   UNL     1      -0.966  10.397  18.648  0.00  0.00    +0.000 C 
BRANCH  17  18
ATOM     18  C   UNL     1      -1.963   9.921  17.353  0.00  0.00    +0.000 C 
BRANCH  18  19
ATOM     19  C   UNL     1      -2.430  10.859  16.204  0.00  0.00    +0.000 C 
ATOM     20  C   UNL     1      -2.559  10.301  14.792  0.00  0.00    +0.000 C 
ATOM     21  C   UNL     1      -4.041  10.128  14.545  0.00  0.00    +0.000 C 
ATOM     22  O   UNL     1      -4.544   9.587  13.580  0.00  0.00    +0.000 OA
ATOM     23  N   UNL     1      -4.727  10.658  15.593  0.00  0.00    +0.000 N 
ATOM     24  C   UNL     1      -3.894  11.244  16.487  0.00  0.00    +0.000 C 
ATOM     25  O   UNL     1      -4.263  11.918  17.441  0.00  0.00    +0.000 OA
ATOM     26  H   UNL     1      -5.726  10.751  15.601  0.00  0.00    +0.000 HD
ENDBRANCH  18  19
BRANCH  18  27
ATOM     27  O   UNL     1      -3.155   9.359  17.939  0.00  0.00    +0.000 OA
ATOM     28  H   UNL     1      -3.916   9.583  17.356  0.00  0.00    +0.000 HD
ENDBRANCH  18  27
ENDBRANCH  17  18
ENDBRANCH  16  17
TORSDOF 4
ENDMDL
MODEL 6
REMARK VINA RESULT:      -7.1      9.677     12.305
REMARK  Name = 
REMARK  8 active torsions:
REMARK  status: ('A' for Active; 'I' for Inactive)
REMARK    1  A    between atoms: C_1  and  C_2
REMARK    2  A    between atoms: C_7  and  C_8
REMARK    3  A    between atoms: C_7  and  C_9
REMARK    4  A    between atoms: C_14  and  C_15
REMARK    5  A    between atoms: C_16  and  C_17
REMARK    6  A    between atoms: C_17  and  C_18
REMARK    7  A    between atoms: C_18  and  O_19
REMARK    8  A    between atoms: C_18  and  C_20
REMARK                            x       y       z     vdW  Elec       q    Type
REMARK                         _______ _______ _______ _____ _____    ______ ____
ROOT
ATOM      1  C   UNL     1       8.356  17.028  20.100  0.00  0.00    +0.000 C 
ATOM      2  C   UNL     1       8.408  15.831  19.058  0.00  0.00    +0.000 C 
ATOM      3  C   UNL     1       9.313  15.341  18.166  0.00  0.00    +0.000 C 
ATOM      4  C   UNL     1       9.602  13.783  18.297  0.00  0.00    +0.000 C 
ATOM      5  O   UNL     1      10.299  13.239  17.450  0.00  0.00    +0.000 OA
ATOM      6  C   UNL     1       8.915  13.004  19.455  0.00  0.00    +0.000 C 
ATOM      7  C   UNL     1       9.669  11.749  20.095  0.00  0.00    +0.000 C 
ATOM      8  C   UNL     1      11.215  11.870  20.138  0.00  0.00    +0.000 C 
ATOM      9  C   UNL     1       9.392  10.437  19.293  0.00  0.00    +0.000 C 
ATOM     10  C   UNL     1       9.098  11.429  21.518  0.00  0.00    +0.000 C 
ATOM     11  C   UNL     1       8.901  12.660  22.386  0.00  0.00    +0.000 C 
ATOM     12 CL   UNL     1       8.421  12.219  24.043  0.00  0.00    +0.000 Cl
ATOM     13  C   UNL     1       7.844  13.586  21.723  0.00  0.00    +0.000 C 
ATOM     14  C   UNL     1       8.407  14.175  20.416  0.00  0.00    +0.000 C 
ATOM     15  C   UNL     1       9.820  14.899  20.957  0.00  0.00    +0.000 C 
ATOM     16  C   UNL     1       7.236  14.984  19.327  0.00  0.00    +0.000 C 
ENDROOT
BRANCH  16  17
ATOM     17  C   UNL     1       6.318  16.257  18.574  0.00  0.00    +0.000 C 
BRANCH  17  18
ATOM     18  C   UNL     1       4.646  16.125  18.280  0.00  0.00    +0.000 C 
BRANCH  18  19
ATOM     19  C   UNL     1       3.546  16.207  19.374  0.00  0.00    +0.000 C 
ATOM     20  C   UNL     1       2.311  17.064  19.128  0.00  0.00    +0.000 C 
ATOM     21  C   UNL     1       1.188  16.100  18.814  0.00  0.00    +0.000 C 
ATOM     22  O   UNL     1       0.074  16.403  18.434  0.00  0.00    +0.000 OA
ATOM     23  N   UNL     1       1.634  14.830  19.003  0.00  0.00    +0.000 N 
ATOM     24  C   UNL     1       2.899  14.813  19.486  0.00  0.00    +0.000 C 
ATOM     25  O   UNL     1       3.480  13.808  19.879  0.00  0.00    +0.000 OA
ATOM     26  H   UNL     1       1.032  14.027  18.957  0.00  0.00    +0.000 HD
ENDBRANCH  18  19
BRANCH  18  27
ATOM     27  O   UNL     1       4.450  14.875  17.587  0.00  0.00    +0.000 OA
ATOM     28  H   UNL     1       5.326  14.573  17.252  0.00  0.00    +0.000 HD
ENDBRANCH  18  27
ENDBRANCH  17  18
ENDBRANCH  16  17
TORSDOF 4
ENDMDL
MODEL 7
REMARK VINA RESULT:      -7.0     11.810     14.976
REMARK  Name = 
REMARK  8 active torsions:
REMARK  status: ('A' for Active; 'I' for Inactive)
REMARK    1  A    between atoms: C_1  and  C_2
REMARK    2  A    between atoms: C_7  and  C_8
REMARK    3  A    between atoms: C_7  and  C_9
REMARK    4  A    between atoms: C_14  and  C_15
REMARK    5  A    between atoms: C_16  and  C_17
REMARK    6  A    between atoms: C_17  and  C_18
REMARK    7  A    between atoms: C_18  and  O_19
REMARK    8  A    between atoms: C_18  and  C_20
REMARK                            x       y       z     vdW  Elec       q    Type
REMARK                         _______ _______ _______ _____ _____    ______ ____
ROOT
ATOM      1  C   UNL     1      -3.524  12.377  23.969  0.00  0.00    +0.000 C 
ATOM      2  C   UNL     1      -2.644  13.625  23.535  0.00  0.00    +0.000 C 
ATOM      3  C   UNL     1      -1.391  14.086  23.802  0.00  0.00    +0.000 C 
ATOM      4  C   UNL     1      -0.515  14.420  22.518  0.00  0.00    +0.000 C 
ATOM      5  O   UNL     1       0.571  14.964  22.669  0.00  0.00    +0.000 OA
ATOM      6  C   UNL     1      -1.118  14.110  21.117  0.00  0.00    +0.000 C 
ATOM      7  C   UNL     1      -0.136  13.704  19.925  0.00  0.00    +0.000 C 
ATOM      8  C   UNL     1       1.111  12.888  20.358  0.00  0.00    +0.000 C 
ATOM      9  C   UNL     1       0.441  14.961  19.198  0.00  0.00    +0.000 C 
ATOM     10  C   UNL     1      -0.919  12.959  18.793  0.00  0.00    +0.000 C 
ATOM     11  C   UNL     1      -1.883  11.906  19.312  0.00  0.00    +0.000 C 
ATOM     12 CL   UNL     1      -2.611  10.975  17.979  0.00  0.00    +0.000 Cl
ATOM     13  C   UNL     1      -2.975  12.597  20.175  0.00  0.00    +0.000 C 
ATOM     14  C   UNL     1      -2.350  13.153  21.467  0.00  0.00    +0.000 C 
ATOM     15  C   UNL     1      -1.629  11.781  22.108  0.00  0.00    +0.000 C 
ATOM     16  C   UNL     1      -3.356  14.281  22.429  0.00  0.00    +0.000 C 
ENDROOT
BRANCH  16  17
ATOM     17  C   UNL     1      -4.452  14.849  23.656  0.00  0.00    +0.000 C 
BRANCH  17  18
ATOM     18  C   UNL     1      -6.021  15.404  23.293  0.00  0.00    +0.000 C 
BRANCH  18  19
ATOM     19  C   UNL     1      -7.128  14.548  22.618  0.00  0.00    +0.000 C 
ATOM     20  C   UNL     1      -6.816  13.813  21.320  0.00  0.00    +0.000 C 
ATOM     21  C   UNL     1      -6.650  12.357  21.693  0.00  0.00    +0.000 C 
ATOM     22  O   UNL     1      -6.268  11.471  20.953  0.00  0.00    +0.000 OA
ATOM     23  N   UNL     1      -6.977  12.199  23.003  0.00  0.00    +0.000 N 
ATOM     24  C   UNL     1      -7.423  13.356  23.548  0.00  0.00    +0.000 C 
ATOM     25  O   UNL     1      -7.916  13.452  24.665  0.00  0.00    +0.000 OA
ATOM     26  H   UNL     1      -7.043  11.300  23.445  0.00  0.00    +0.000 HD
ENDBRANCH  18  19
BRANCH  18  27
ATOM     27  O   UNL     1      -5.859  16.587  22.484  0.00  0.00    +0.000 OA
ATOM     28  H   UNL     1      -5.204  17.172  22.928  0.00  0.00    +0.000 HD
ENDBRANCH  18  27
ENDBRANCH  17  18
ENDBRANCH  16  17
TORSDOF 4
ENDMDL
MODEL 8
REMARK VINA RESULT:      -7.0     10.600     13.789
REMARK  Name = 
REMARK  8 active torsions:
REMARK  status: ('A' for Active; 'I' for Inactive)
REMARK    1  A    between atoms: C_1  and  C_2
REMARK    2  A    between atoms: C_7  and  C_8
REMARK    3  A    between atoms: C_7  and  C_9
REMARK    4  A    between atoms: C_14  and  C_15
REMARK    5  A    between atoms: C_16  and  C_17
REMARK    6  A    between atoms: C_17  and  C_18
REMARK    7  A    between atoms: C_18  and  O_19
REMARK    8  A    between atoms: C_18  and  C_20
REMARK                            x       y       z     vdW  Elec       q    Type
REMARK                         _______ _______ _______ _____ _____    ______ ____
ROOT
ATOM      1  C   UNL     1      -2.352  16.108  23.326  0.00  0.00    +0.000 C 
ATOM      2  C   UNL     1      -2.787  14.582  23.259  0.00  0.00    +0.000 C 
ATOM      3  C   UNL     1      -3.134  13.617  24.155  0.00  0.00    +0.000 C 
ATOM      4  C   UNL     1      -4.507  12.879  23.844  0.00  0.00    +0.000 C 
ATOM      5  O   UNL     1      -4.824  11.911  24.522  0.00  0.00    +0.000 OA
ATOM      6  C   UNL     1      -5.349  13.376  22.633  0.00  0.00    +0.000 C 
ATOM      7  C   UNL     1      -6.940  13.254  22.697  0.00  0.00    +0.000 C 
ATOM      8  C   UNL     1      -7.552  13.437  24.111  0.00  0.00    +0.000 C 
ATOM      9  C   UNL     1      -7.431  11.847  22.227  0.00  0.00    +0.000 C 
ATOM     10  C   UNL     1      -7.610  14.231  21.672  0.00  0.00    +0.000 C 
ATOM     11  C   UNL     1      -7.002  15.622  21.671  0.00  0.00    +0.000 C 
ATOM     12 CL   UNL     1      -7.916  16.732  20.619  0.00  0.00    +0.000 Cl
ATOM     13  C   UNL     1      -5.516  15.528  21.229  0.00  0.00    +0.000 C 
ATOM     14  C   UNL     1      -4.693  14.796  22.306  0.00  0.00    +0.000 C 
ATOM     15  C   UNL     1      -5.025  15.720  23.666  0.00  0.00    +0.000 C 
ATOM     16  C   UNL     1      -3.042  14.277  21.843  0.00  0.00    +0.000 C 
ENDROOT
BRANCH  16  17
ATOM     17  C   UNL     1      -1.309  14.306  21.670  0.00  0.00    +0.000 C 
BRANCH  17  18
ATOM     18  C   UNL     1      -0.431  12.982  21.060  0.00  0.00    +0.000 C 
BRANCH  18  19
ATOM     19  C   UNL     1      -0.959  11.521  21.002  0.00  0.00    +0.000 C 
ATOM     20  C   UNL     1      -0.518  10.613  19.861  0.00  0.00    +0.000 C 
ATOM     21  C   UNL     1       0.501   9.664  20.450  0.00  0.00    +0.000 C 
ATOM     22  O   UNL     1       1.181   8.872  19.828  0.00  0.00    +0.000 OA
ATOM     23  N   UNL     1       0.554   9.857  21.795  0.00  0.00    +0.000 N 
ATOM     24  C   UNL     1      -0.364  10.765  22.204  0.00  0.00    +0.000 C 
ATOM     25  O   UNL     1      -0.623  11.011  23.377  0.00  0.00    +0.000 OA
ATOM     26  H   UNL     1       1.084   9.267  22.411  0.00  0.00    +0.000 HD
ENDBRANCH  18  19
BRANCH  18  27
ATOM     27  O   UNL     1       0.812  12.944  21.790  0.00  0.00    +0.000 OA
ATOM     28  H   UNL     1       0.872  13.764  22.332  0.00  0.00    +0.000 HD
ENDBRANCH  18  27
ENDBRANCH  17  18
ENDBRANCH  16  17
TORSDOF 4
ENDMDL
MODEL 9
REMARK VINA RESULT:      -7.0      4.641      7.903
REMARK  Name = 
REMARK  8 active torsions:
REMARK  status: ('A' for Active; 'I' for Inactive)
REMARK    1  A    between atoms: C_1  and  C_2
REMARK    2  A    between atoms: C_7  and  C_8
REMARK    3  A    between atoms: C_7  and  C_9
REMARK    4  A    between atoms: C_14  and  C_15
REMARK    5  A    between atoms: C_16  and  C_17
REMARK    6  A    between atoms: C_17  and  C_18
REMARK    7  A    between atoms: C_18  and  O_19
REMARK    8  A    between atoms: C_18  and  C_20
REMARK                            x       y       z     vdW  Elec       q    Type
REMARK                         _______ _______ _______ _____ _____    ______ ____
ROOT
ATOM      1  C   UNL     1       2.392   3.024  18.446  0.00  0.00    +0.000 C 
ATOM      2  C   UNL     1       3.307   4.228  18.930  0.00  0.00    +0.000 C 
ATOM      3  C   UNL     1       4.320   4.396  19.825  0.00  0.00    +0.000 C 
ATOM      4  C   UNL     1       5.622   5.093  19.235  0.00  0.00    +0.000 C 
ATOM      5  O   UNL     1       6.525   5.402  20.002  0.00  0.00    +0.000 OA
ATOM      6  C   UNL     1       5.654   5.423  17.715  0.00  0.00    +0.000 C 
ATOM      7  C   UNL     1       7.054   5.393  16.947  0.00  0.00    +0.000 C 
ATOM      8  C   UNL     1       8.059   4.331  17.465  0.00  0.00    +0.000 C 
ATOM      9  C   UNL     1       7.810   6.755  17.072  0.00  0.00    +0.000 C 
ATOM     10  C   UNL     1       6.834   5.242  15.404  0.00  0.00    +0.000 C 
ATOM     11  C   UNL     1       5.799   4.195  15.036  0.00  0.00    +0.000 C 
ATOM     12 CL   UNL     1       5.721   3.945  13.274  0.00  0.00    +0.000 Cl
ATOM     13  C   UNL     1       4.417   4.624  15.603  0.00  0.00    +0.000 C 
ATOM     14  C   UNL     1       4.437   4.559  17.141  0.00  0.00    +0.000 C 
ATOM     15  C   UNL     1       4.906   2.971  17.403  0.00  0.00    +0.000 C 
ATOM     16  C   UNL     1       3.071   5.341  17.998  0.00  0.00    +0.000 C 
ENDROOT
BRANCH  16  17
ATOM     17  C   UNL     1       1.544   5.517  18.817  0.00  0.00    +0.000 C 
BRANCH  17  18
ATOM     18  C   UNL     1       1.277   6.711  20.001  0.00  0.00    +0.000 C 
BRANCH  18  19
ATOM     19  C   UNL     1       1.795   8.174  19.915  0.00  0.00    +0.000 C 
ATOM     20  C   UNL     1       1.459   9.014  18.689  0.00  0.00    +0.000 C 
ATOM     21  C   UNL     1       0.378   9.978  19.125  0.00  0.00    +0.000 C 
ATOM     22  O   UNL     1      -0.244  10.726  18.398  0.00  0.00    +0.000 OA
ATOM     23  N   UNL     1       0.197   9.856  20.467  0.00  0.00    +0.000 N 
ATOM     24  C   UNL     1       1.079   8.984  21.011  0.00  0.00    +0.000 C 
ATOM     25  O   UNL     1       1.225   8.805  22.215  0.00  0.00    +0.000 OA
ATOM     26  H   UNL     1      -0.396  10.470  20.995  0.00  0.00    +0.000 HD
ENDBRANCH  18  19
BRANCH  18  27
ATOM     27  O   UNL     1       1.767   6.171  21.245  0.00  0.00    +0.000 OA
ATOM     28  H   UNL     1       1.467   6.763  21.973  0.00  0.00    +0.000 HD
ENDBRANCH  18  27
ENDBRANCH  17  18
ENDBRANCH  16  17
TORSDOF 4
ENDMDL
