MODEL 1
REMARK VINA RESULT:      -7.1      0.000      0.000
REMARK  Name = 
REMARK  4 active torsions:
REMARK  status: ('A' for Active; 'I' for Inactive)
REMARK    1  A    between atoms: C_1  and  C_2
REMARK    2  A    between atoms: C_2  and  C_3
REMARK    3  A    between atoms: C_6  and  C_7
REMARK    4  A    between atoms: C_7  and  N_8
REMARK                            x       y       z     vdW  Elec       q    Type
REMARK                         _______ _______ _______ _____ _____    ______ ____
ROOT
ATOM      1  N   UNL     1       8.694   8.899  18.911  0.00  0.00    +0.000 N 
ATOM      2  C   UNL     1       9.167  10.220  19.000  0.00  0.00    +0.000 A 
ATOM      3  C   UNL     1       9.923  10.547  20.131  0.00  0.00    +0.000 A 
ATOM      4  C   UNL     1      10.444  11.834  20.295  0.00  0.00    +0.000 A 
ATOM      5  C   UNL     1      10.178  12.761  19.281  0.00  0.00    +0.000 A 
ATOM      6  C   UNL     1      10.513  14.117  19.022  0.00  0.00    +0.000 A 
ATOM      7  C   UNL     1       9.932  14.468  17.821  0.00  0.00    +0.000 A 
ATOM      8  N   UNL     1       9.247  13.377  17.351  0.00  0.00    +0.000 N 
ATOM      9  C   UNL     1       9.394  12.329  18.219  0.00  0.00    +0.000 A 
ATOM     10  N   UNL     1       8.864  11.109  18.032  0.00  0.00    +0.000 NA
ATOM     11  H   UNL     1       9.483   8.260  18.990  0.00  0.00    +0.000 HD
ATOM     12  H   UNL     1       8.719  13.320  16.494  0.00  0.00    +0.000 HD
ENDROOT
BRANCH   1  13
ATOM     13  C   UNL     1       7.936   8.608  17.689  0.00  0.00    +0.000 C 
BRANCH  13  17
ATOM     14  C   UNL     1       7.198   5.201  16.533  0.00  0.00    +0.000 A 
ATOM     15  C   UNL     1       7.373   4.755  17.829  0.00  0.00    +0.000 A 
ATOM     16  S   UNL     1       7.733   6.070  18.865  0.00  0.00    +0.000 S 
ATOM     17  C   UNL     1       7.639   7.137  17.519  0.00  0.00    +0.000 A 
ATOM     18  N   UNL     1       7.352   6.568  16.365  0.00  0.00    +0.000 NA
BRANCH  14  20
ATOM     19  C   UNL     1       5.556   4.740  14.713  0.00  0.00    +0.000 C 
ATOM     20  C   UNL     1       6.891   4.365  15.335  0.00  0.00    +0.000 C 
ENDBRANCH  14  20
ENDBRANCH  13  17
ENDBRANCH   1  13
TORSDOF 3
ENDMDL
MODEL 2
REMARK VINA RESULT:      -6.9      4.077      8.813
REMARK  Name = 
REMARK  4 active torsions:
REMARK  status: ('A' for Active; 'I' for Inactive)
REMARK    1  A    between atoms: C_1  and  C_2
REMARK    2  A    between atoms: C_2  and  C_3
REMARK    3  A    between atoms: C_6  and  C_7
REMARK    4  A    between atoms: C_7  and  N_8
REMARK                            x       y       z     vdW  Elec       q    Type
REMARK                         _______ _______ _______ _____ _____    ______ ____
ROOT
ATOM      1  N   UNL     1       5.119   3.984  16.484  0.00  0.00    +0.000 N 
ATOM      2  C   UNL     1       4.156   3.613  17.440  0.00  0.00    +0.000 A 
ATOM      3  C   UNL     1       4.071   2.253  17.759  0.00  0.00    +0.000 A 
ATOM      4  C   UNL     1       3.152   1.799  18.709  0.00  0.00    +0.000 A 
ATOM      5  C   UNL     1       2.338   2.761  19.317  0.00  0.00    +0.000 A 
ATOM      6  C   UNL     1       1.325   2.761  20.314  0.00  0.00    +0.000 A 
ATOM      7  C   UNL     1       0.900   4.063  20.476  0.00  0.00    +0.000 A 
ATOM      8  N   UNL     1       1.610   4.848  19.604  0.00  0.00    +0.000 N 
ATOM      9  C   UNL     1       2.495   4.076  18.901  0.00  0.00    +0.000 A 
ATOM     10  N   UNL     1       3.354   4.551  17.984  0.00  0.00    +0.000 NA
ATOM     11  H   UNL     1       6.030   3.647  16.787  0.00  0.00    +0.000 HD
ATOM     12  H   UNL     1       1.526   5.847  19.488  0.00  0.00    +0.000 HD
ENDROOT
BRANCH   1  13
ATOM     13  C   UNL     1       5.182   5.424  16.216  0.00  0.00    +0.000 C 
BRANCH  13  17
ATOM     14  C   UNL     1       7.627   7.726  17.704  0.00  0.00    +0.000 A 
ATOM     15  C   UNL     1       8.040   6.703  18.536  0.00  0.00    +0.000 A 
ATOM     16  S   UNL     1       7.160   5.273  18.198  0.00  0.00    +0.000 S 
ATOM     17  C   UNL     1       6.289   6.114  16.977  0.00  0.00    +0.000 A 
ATOM     18  N   UNL     1       6.624   7.379  16.813  0.00  0.00    +0.000 NA
BRANCH  14  20
ATOM     19  C   UNL     1       8.923   9.450  18.956  0.00  0.00    +0.000 C 
ATOM     20  C   UNL     1       8.134   9.130  17.697  0.00  0.00    +0.000 C 
ENDBRANCH  14  20
ENDBRANCH  13  17
ENDBRANCH   1  13
TORSDOF 3
ENDMDL
MODEL 3
REMARK VINA RESULT:      -6.9      6.543      8.548
REMARK  Name = 
REMARK  4 active torsions:
REMARK  status: ('A' for Active; 'I' for Inactive)
REMARK    1  A    between atoms: C_1  and  C_2
REMARK    2  A    between atoms: C_2  and  C_3
REMARK    3  A    between atoms: C_6  and  C_7
REMARK    4  A    between atoms: C_7  and  N_8
REMARK                            x       y       z     vdW  Elec       q    Type
REMARK                         _______ _______ _______ _____ _____    ______ ____
ROOT
ATOM      1  N   UNL     1       5.804   5.748  16.258  0.00  0.00    +0.000 N 
ATOM      2  C   UNL     1       4.685   5.206  16.916  0.00  0.00    +0.000 A 
ATOM      3  C   UNL     1       3.663   6.097  17.264  0.00  0.00    +0.000 A 
ATOM      4  C   UNL     1       2.509   5.642  17.908  0.00  0.00    +0.000 A 
ATOM      5  C   UNL     1       2.429   4.271  18.176  0.00  0.00    +0.000 A 
ATOM      6  C   UNL     1       1.473   3.398  18.763  0.00  0.00    +0.000 A 
ATOM      7  C   UNL     1       1.999   2.123  18.733  0.00  0.00    +0.000 A 
ATOM      8  N   UNL     1       3.243   2.196  18.161  0.00  0.00    +0.000 N 
ATOM      9  C   UNL     1       3.515   3.490  17.807  0.00  0.00    +0.000 A 
ATOM     10  N   UNL     1       4.646   3.889  17.201  0.00  0.00    +0.000 NA
ATOM     11  H   UNL     1       5.489   6.248  15.429  0.00  0.00    +0.000 HD
ATOM     12  H   UNL     1       3.877   1.429  17.998  0.00  0.00    +0.000 HD
ENDROOT
BRANCH   1  13
ATOM     13  C   UNL     1       6.826   4.762  15.890  0.00  0.00    +0.000 C 
BRANCH  13  17
ATOM     14  C   UNL     1       6.185   3.516  12.495  0.00  0.00    +0.000 A 
ATOM     15  C   UNL     1       7.156   4.380  12.026  0.00  0.00    +0.000 A 
ATOM     16  S   UNL     1       7.852   5.250  13.326  0.00  0.00    +0.000 S 
ATOM     17  C   UNL     1       6.811   4.425  14.418  0.00  0.00    +0.000 A 
ATOM     18  N   UNL     1       5.995   3.548  13.867  0.00  0.00    +0.000 NA
BRANCH  14  20
ATOM     19  C   UNL     1       4.037   3.265  11.254  0.00  0.00    +0.000 C 
ATOM     20  C   UNL     1       5.336   2.600  11.678  0.00  0.00    +0.000 C 
ENDBRANCH  14  20
ENDBRANCH  13  17
ENDBRANCH   1  13
TORSDOF 3
ENDMDL
MODEL 4
REMARK VINA RESULT:      -6.8      1.787      7.480
REMARK  Name = 
REMARK  4 active torsions:
REMARK  status: ('A' for Active; 'I' for Inactive)
REMARK    1  A    between atoms: C_1  and  C_2
REMARK    2  A    between atoms: C_2  and  C_3
REMARK    3  A    between atoms: C_6  and  C_7
REMARK    4  A    between atoms: C_7  and  N_8
REMARK                            x       y       z     vdW  Elec       q    Type
REMARK                         _______ _______ _______ _____ _____    ______ ____
ROOT
ATOM      1  N   UNL     1       8.557   8.354  18.867  0.00  0.00    +0.000 N 
ATOM      2  C   UNL     1       7.933   7.251  18.257  0.00  0.00    +0.000 A 
ATOM      3  C   UNL     1       7.983   6.034  18.946  0.00  0.00    +0.000 A 
ATOM      4  C   UNL     1       7.377   4.890  18.419  0.00  0.00    +0.000 A 
ATOM      5  C   UNL     1       6.725   5.026  17.188  0.00  0.00    +0.000 A 
ATOM      6  C   UNL     1       5.981   4.175  16.327  0.00  0.00    +0.000 A 
ATOM      7  C   UNL     1       5.590   4.925  15.236  0.00  0.00    +0.000 A 
ATOM      8  N   UNL     1       6.082   6.195  15.402  0.00  0.00    +0.000 N 
ATOM      9  C   UNL     1       6.764   6.276  16.587  0.00  0.00    +0.000 A 
ATOM     10  N   UNL     1       7.345   7.394  17.052  0.00  0.00    +0.000 NA
ATOM     11  H   UNL     1       8.172   8.475  19.802  0.00  0.00    +0.000 HD
ATOM     12  H   UNL     1       5.963   6.974  14.773  0.00  0.00    +0.000 HD
ENDROOT
BRANCH   1  13
ATOM     13  C   UNL     1       8.443   9.607  18.114  0.00  0.00    +0.000 C 
BRANCH  13  17
ATOM     14  C   UNL     1      10.997  12.231  18.405  0.00  0.00    +0.000 A 
ATOM     15  C   UNL     1      10.790  12.240  19.771  0.00  0.00    +0.000 A 
ATOM     16  S   UNL     1       9.614  11.072  20.199  0.00  0.00    +0.000 S 
ATOM     17  C   UNL     1       9.456  10.643  18.542  0.00  0.00    +0.000 A 
ATOM     18  N   UNL     1      10.229  11.312  17.709  0.00  0.00    +0.000 NA
BRANCH  14  20
ATOM     19  C   UNL     1      11.295  14.458  17.321  0.00  0.00    +0.000 C 
ATOM     20  C   UNL     1      11.926  13.112  17.637  0.00  0.00    +0.000 C 
ENDBRANCH  14  20
ENDBRANCH  13  17
ENDBRANCH   1  13
TORSDOF 3
ENDMDL
MODEL 5
REMARK VINA RESULT:      -6.7      4.099      8.623
REMARK  Name = 
REMARK  4 active torsions:
REMARK  status: ('A' for Active; 'I' for Inactive)
REMARK    1  A    between atoms: C_1  and  C_2
REMARK    2  A    between atoms: C_2  and  C_3
REMARK    3  A    between atoms: C_6  and  C_7
REMARK    4  A    between atoms: C_7  and  N_8
REMARK                            x       y       z     vdW  Elec       q    Type
REMARK                         _______ _______ _______ _____ _____    ______ ____
ROOT
ATOM      1  N   UNL     1       4.274   5.558  16.807  0.00  0.00    +0.000 N 
ATOM      2  C   UNL     1       3.538   5.009  17.872  0.00  0.00    +0.000 A 
ATOM      3  C   UNL     1       2.207   5.420  18.000  0.00  0.00    +0.000 A 
ATOM      4  C   UNL     1       1.398   4.914  19.022  0.00  0.00    +0.000 A 
ATOM      5  C   UNL     1       1.981   3.985  19.893  0.00  0.00    +0.000 A 
ATOM      6  C   UNL     1       1.548   3.221  21.010  0.00  0.00    +0.000 A 
ATOM      7  C   UNL     1       2.623   2.471  21.442  0.00  0.00    +0.000 A 
ATOM      8  N   UNL     1       3.692   2.765  20.635  0.00  0.00    +0.000 N 
ATOM      9  C   UNL     1       3.316   3.673  19.683  0.00  0.00    +0.000 A 
ATOM     10  N   UNL     1       4.130   4.147  18.724  0.00  0.00    +0.000 NA
ATOM     11  H   UNL     1       3.777   5.381  15.937  0.00  0.00    +0.000 HD
ATOM     12  H   UNL     1       4.620   2.375  20.699  0.00  0.00    +0.000 HD
ENDROOT
BRANCH   1  13
ATOM     13  C   UNL     1       5.652   5.065  16.705  0.00  0.00    +0.000 C 
BRANCH  13  17
ATOM     14  C   UNL     1       7.769   7.834  17.863  0.00  0.00    +0.000 A 
ATOM     15  C   UNL     1       8.300   6.990  18.819  0.00  0.00    +0.000 A 
ATOM     16  S   UNL     1       7.613   5.428  18.677  0.00  0.00    +0.000 S 
ATOM     17  C   UNL     1       6.654   5.984  17.362  0.00  0.00    +0.000 A 
ATOM     18  N   UNL     1       6.827   7.249  17.032  0.00  0.00    +0.000 NA
BRANCH  14  20
ATOM     19  C   UNL     1       8.957   9.818  18.797  0.00  0.00    +0.000 C 
ATOM     20  C   UNL     1       8.092   9.278  17.669  0.00  0.00    +0.000 C 
ENDBRANCH  14  20
ENDBRANCH  13  17
ENDBRANCH   1  13
TORSDOF 3
ENDMDL
MODEL 6
REMARK VINA RESULT:      -6.6      3.626      8.739
REMARK  Name = 
REMARK  4 active torsions:
REMARK  status: ('A' for Active; 'I' for Inactive)
REMARK    1  A    between atoms: C_1  and  C_2
REMARK    2  A    between atoms: C_2  and  C_3
REMARK    3  A    between atoms: C_6  and  C_7
REMARK    4  A    between atoms: C_7  and  N_8
REMARK                            x       y       z     vdW  Elec       q    Type
REMARK                         _______ _______ _______ _____ _____    ______ ____
ROOT
ATOM      1  N   UNL     1       4.449   6.524  16.868  0.00  0.00    +0.000 N 
ATOM      2  C   UNL     1       3.824   5.397  17.432  0.00  0.00    +0.000 A 
ATOM      3  C   UNL     1       2.509   5.560  17.880  0.00  0.00    +0.000 A 
ATOM      4  C   UNL     1       1.808   4.489  18.442  0.00  0.00    +0.000 A 
ATOM      5  C   UNL     1       2.480   3.264  18.526  0.00  0.00    +0.000 A 
ATOM      6  C   UNL     1       2.165   1.954  18.979  0.00  0.00    +0.000 A 
ATOM      7  C   UNL     1       3.282   1.168  18.789  0.00  0.00    +0.000 A 
ATOM      8  N   UNL     1       4.265   1.958  18.250  0.00  0.00    +0.000 N 
ATOM      9  C   UNL     1       3.791   3.230  18.073  0.00  0.00    +0.000 A 
ATOM     10  N   UNL     1       4.503   4.237  17.541  0.00  0.00    +0.000 NA
ATOM     11  H   UNL     1       3.870   6.874  16.107  0.00  0.00    +0.000 HD
ATOM     12  H   UNL     1       5.198   1.670  17.996  0.00  0.00    +0.000 HD
ENDROOT
BRANCH   1  13
ATOM     13  C   UNL     1       5.813   6.283  16.388  0.00  0.00    +0.000 C 
BRANCH  13  17
ATOM     14  C   UNL     1       8.172   8.531  18.082  0.00  0.00    +0.000 A 
ATOM     15  C   UNL     1       8.474   7.506  18.959  0.00  0.00    +0.000 A 
ATOM     16  S   UNL     1       7.589   6.099  18.550  0.00  0.00    +0.000 S 
ATOM     17  C   UNL     1       6.863   6.950  17.245  0.00  0.00    +0.000 A 
ATOM     18  N   UNL     1       7.249   8.203  17.103  0.00  0.00    +0.000 NA
BRANCH  14  20
ATOM     19  C   UNL     1       9.383  10.236  19.441  0.00  0.00    +0.000 C 
ATOM     20  C   UNL     1       8.718   9.920  18.111  0.00  0.00    +0.000 C 
ENDBRANCH  14  20
ENDBRANCH  13  17
ENDBRANCH   1  13
TORSDOF 3
ENDMDL
MODEL 7
REMARK VINA RESULT:      -6.6      2.056      7.684
REMARK  Name = 
REMARK  4 active torsions:
REMARK  status: ('A' for Active; 'I' for Inactive)
REMARK    1  A    between atoms: C_1  and  C_2
REMARK    2  A    between atoms: C_2  and  C_3
REMARK    3  A    between atoms: C_6  and  C_7
REMARK    4  A    between atoms: C_7  and  N_8
REMARK                            x       y       z     vdW  Elec       q    Type
REMARK                         _______ _______ _______ _____ _____    ______ ____
ROOT
ATOM      1  N   UNL     1       8.550   8.230  18.797  0.00  0.00    +0.000 N 
ATOM      2  C   UNL     1       7.907   7.139  18.185  0.00  0.00    +0.000 A 
ATOM      3  C   UNL     1       7.921   5.925  18.882  0.00  0.00    +0.000 A 
ATOM      4  C   UNL     1       7.294   4.792  18.354  0.00  0.00    +0.000 A 
ATOM      5  C   UNL     1       6.659   4.936  17.115  0.00  0.00    +0.000 A 
ATOM      6  C   UNL     1       5.905   4.098  16.250  0.00  0.00    +0.000 A 
ATOM      7  C   UNL     1       5.545   4.851  15.151  0.00  0.00    +0.000 A 
ATOM      8  N   UNL     1       6.064   6.109  15.315  0.00  0.00    +0.000 N 
ATOM      9  C   UNL     1       6.734   6.181  16.507  0.00  0.00    +0.000 A 
ATOM     10  N   UNL     1       7.337   7.288  16.973  0.00  0.00    +0.000 NA
ATOM     11  H   UNL     1       8.157   8.365  19.726  0.00  0.00    +0.000 HD
ATOM     12  H   UNL     1       5.971   6.887  14.681  0.00  0.00    +0.000 HD
ENDROOT
BRANCH   1  13
ATOM     13  C   UNL     1       8.474   9.481  18.035  0.00  0.00    +0.000 C 
BRANCH  13  17
ATOM     14  C   UNL     1       9.844  12.022  20.306  0.00  0.00    +0.000 A 
ATOM     15  C   UNL     1      10.688  12.432  19.292  0.00  0.00    +0.000 A 
ATOM     16  S   UNL     1      10.405  11.509  17.878  0.00  0.00    +0.000 S 
ATOM     17  C   UNL     1       9.190  10.625  18.713  0.00  0.00    +0.000 A 
ATOM     18  N   UNL     1       8.989  10.986  19.966  0.00  0.00    +0.000 NA
BRANCH  14  20
ATOM     19  C   UNL     1       9.877  14.080  21.715  0.00  0.00    +0.000 C 
ATOM     20  C   UNL     1       9.793  12.562  21.697  0.00  0.00    +0.000 C 
ENDBRANCH  14  20
ENDBRANCH  13  17
ENDBRANCH   1  13
TORSDOF 3
ENDMDL
MODEL 8
REMARK VINA RESULT:      -6.6      6.051      8.226
REMARK  Name = 
REMARK  4 active torsions:
REMARK  status: ('A' for Active; 'I' for Inactive)
REMARK    1  A    between atoms: C_1  and  C_2
REMARK    2  A    between atoms: C_2  and  C_3
REMARK    3  A    between atoms: C_6  and  C_7
REMARK    4  A    between atoms: C_7  and  N_8
REMARK                            x       y       z     vdW  Elec       q    Type
REMARK                         _______ _______ _______ _____ _____    ______ ____
ROOT
ATOM      1  N   UNL     1       5.590   6.005  18.384  0.00  0.00    +0.000 N 
ATOM      2  C   UNL     1       4.448   5.464  19.002  0.00  0.00    +0.000 A 
ATOM      3  C   UNL     1       3.477   6.370  19.441  0.00  0.00    +0.000 A 
ATOM      4  C   UNL     1       2.304   5.918  20.053  0.00  0.00    +0.000 A 
ATOM      5  C   UNL     1       2.154   4.534  20.196  0.00  0.00    +0.000 A 
ATOM      6  C   UNL     1       1.158   3.661  20.711  0.00  0.00    +0.000 A 
ATOM      7  C   UNL     1       1.616   2.369  20.559  0.00  0.00    +0.000 A 
ATOM      8  N   UNL     1       2.859   2.430  19.982  0.00  0.00    +0.000 N 
ATOM      9  C   UNL     1       3.196   3.735  19.745  0.00  0.00    +0.000 A 
ATOM     10  N   UNL     1       4.342   4.130  19.166  0.00  0.00    +0.000 NA
ATOM     11  H   UNL     1       5.297   6.594  17.608  0.00  0.00    +0.000 HD
ATOM     12  H   UNL     1       3.451   1.649  19.743  0.00  0.00    +0.000 HD
ENDROOT
BRANCH   1  13
ATOM     13  C   UNL     1       6.557   5.006  17.916  0.00  0.00    +0.000 C 
BRANCH  13  17
ATOM     14  C   UNL     1       7.078   4.907  14.282  0.00  0.00    +0.000 A 
ATOM     15  C   UNL     1       6.023   4.019  14.184  0.00  0.00    +0.000 A 
ATOM     16  S   UNL     1       5.347   3.731  15.730  0.00  0.00    +0.000 S 
ATOM     17  C   UNL     1       6.507   4.797  16.421  0.00  0.00    +0.000 A 
ATOM     18  N   UNL     1       7.347   5.347  15.567  0.00  0.00    +0.000 NA
BRANCH  14  20
ATOM     19  C   UNL     1       7.506   4.821  11.826  0.00  0.00    +0.000 C 
ATOM     20  C   UNL     1       7.939   5.397  13.165  0.00  0.00    +0.000 C 
ENDBRANCH  14  20
ENDBRANCH  13  17
ENDBRANCH   1  13
TORSDOF 3
ENDMDL
MODEL 9
REMARK VINA RESULT:      -6.6      6.386      7.228
REMARK  Name = 
REMARK  4 active torsions:
REMARK  status: ('A' for Active; 'I' for Inactive)
REMARK    1  A    between atoms: C_1  and  C_2
REMARK    2  A    between atoms: C_2  and  C_3
REMARK    3  A    between atoms: C_6  and  C_7
REMARK    4  A    between atoms: C_7  and  N_8
REMARK                            x       y       z     vdW  Elec       q    Type
REMARK                         _______ _______ _______ _____ _____    ______ ____
ROOT
ATOM      1  N   UNL     1       6.498   4.208  16.699  0.00  0.00    +0.000 N 
ATOM      2  C   UNL     1       5.419   4.699  17.457  0.00  0.00    +0.000 A 
ATOM      3  C   UNL     1       4.894   3.848  18.436  0.00  0.00    +0.000 A 
ATOM      4  C   UNL     1       3.830   4.259  19.243  0.00  0.00    +0.000 A 
ATOM      5  C   UNL     1       3.330   5.549  19.027  0.00  0.00    +0.000 A 
ATOM      6  C   UNL     1       2.318   6.362  19.605  0.00  0.00    +0.000 A 
ATOM      7  C   UNL     1       2.316   7.566  18.930  0.00  0.00    +0.000 A 
ATOM      8  N   UNL     1       3.282   7.504  17.958  0.00  0.00    +0.000 N 
ATOM      9  C   UNL     1       3.914   6.291  18.010  0.00  0.00    +0.000 A 
ATOM     10  N   UNL     1       4.925   5.928  17.204  0.00  0.00    +0.000 NA
ATOM     11  H   UNL     1       7.240   3.918  17.332  0.00  0.00    +0.000 HD
ATOM     12  H   UNL     1       3.523   8.231  17.302  0.00  0.00    +0.000 HD
ENDROOT
BRANCH   1  13
ATOM     13  C   UNL     1       7.025   5.156  15.712  0.00  0.00    +0.000 C 
BRANCH  13  17
ATOM     14  C   UNL     1       6.199   3.531  12.524  0.00  0.00    +0.000 A 
ATOM     15  C   UNL     1       7.201   4.268  11.922  0.00  0.00    +0.000 A 
ATOM     16  S   UNL     1       7.989   5.252  13.080  0.00  0.00    +0.000 S 
ATOM     17  C   UNL     1       6.941   4.636  14.297  0.00  0.00    +0.000 A 
ATOM     18  N   UNL     1       6.058   3.747  13.885  0.00  0.00    +0.000 NA
BRANCH  14  20
ATOM     19  C   UNL     1       4.067   3.278  11.254  0.00  0.00    +0.000 C 
ATOM     20  C   UNL     1       5.272   2.571  11.854  0.00  0.00    +0.000 C 
ENDBRANCH  14  20
ENDBRANCH  13  17
ENDBRANCH   1  13
TORSDOF 3
ENDMDL
