MODEL 1
REMARK VINA RESULT:      -8.5      0.000      0.000
REMARK  Name = 
REMARK  7 active torsions:
REMARK  status: ('A' for Active; 'I' for Inactive)
REMARK    1  A    between atoms: C_1  and  C_2
REMARK    2  A    between atoms: C_6  and  O_7
REMARK    3  A    between atoms: O_7  and  C_8
REMARK    4  A    between atoms: C_8  and  C_9
REMARK    5  A    between atoms: C_12  and  C_13
REMARK    6  A    between atoms: C_19  and  O_20
REMARK    7  A    between atoms: C_19  and  C_21
REMARK                            x       y       z     vdW  Elec       q    Type
REMARK                         _______ _______ _______ _____ _____    ______ ____
ROOT
ATOM      1  C   UNL     1       4.829   6.208  16.953  0.00  0.00    +0.000 A 
ATOM      2  C   UNL     1       4.159   7.307  17.448  0.00  0.00    +0.000 A 
ATOM      3  C   UNL     1       2.922   6.827  17.941  0.00  0.00    +0.000 A 
ATOM      4  C   UNL     1       2.893   5.463  17.701  0.00  0.00    +0.000 A 
ATOM      5  O   UNL     1       4.060   5.094  17.100  0.00  0.00    +0.000 OA
ENDROOT
BRANCH   4   6
ATOM      6  C   UNL     1       1.841   4.496  17.954  0.00  0.00    +0.000 C 
ATOM      7  O   UNL     1       0.857   4.448  17.212  0.00  0.00    +0.000 OA
ATOM      8  N   UNL     1       1.919   3.686  19.101  0.00  0.00    +0.000 N 
ATOM      9  N   UNL     1       0.929   2.730  19.283  0.00  0.00    +0.000 NA
ATOM     10  C   UNL     1       1.115   2.200  20.439  0.00  0.00    +0.000 C 
ATOM     11  C   UNL     1       2.186   2.816  21.265  0.00  0.00    +0.000 C 
ATOM     12  C   UNL     1       2.908   3.667  20.207  0.00  0.00    +0.000 C 
BRANCH  12  13
ATOM     13  C   UNL     1       4.295   3.023  19.846  0.00  0.00    +0.000 C 
ATOM     14  F   UNL     1       5.268   3.946  19.670  0.00  0.00    +0.000 F 
ATOM     15  F   UNL     1       4.718   2.147  20.786  0.00  0.00    +0.000 F 
ATOM     16  F   UNL     1       4.239   2.311  18.688  0.00  0.00    +0.000 F 
ENDBRANCH  12  13
BRANCH  12  17
ATOM     17  O   UNL     1       2.980   4.991  20.762  0.00  0.00    +0.000 OA
ATOM     18  H   UNL     1       3.098   4.867  21.720  0.00  0.00    +0.000 HD
ENDBRANCH  12  17
ENDBRANCH   4   6
BRANCH   1  19
ATOM     19  C   UNL     1       6.175   6.023  16.349  0.00  0.00    +0.000 C 
BRANCH  19  20
ATOM     20  O   UNL     1       6.253   4.668  15.913  0.00  0.00    +0.000 OA
BRANCH  20  26
ATOM     21  C   UNL     1       5.238   2.526  11.526  0.00  0.00    +0.000 C 
ATOM     22  C   UNL     1       6.030   3.464  12.392  0.00  0.00    +0.000 A 
ATOM     23  C   UNL     1       7.084   4.212  11.855  0.00  0.00    +0.000 A 
ATOM     24  C   UNL     1       7.814   5.078  12.668  0.00  0.00    +0.000 A 
ATOM     25  C   UNL     1       7.496   5.198  14.022  0.00  0.00    +0.000 A 
ATOM     26  C   UNL     1       6.450   4.458  14.573  0.00  0.00    +0.000 A 
ATOM     27  C   UNL     1       5.718   3.593  13.756  0.00  0.00    +0.000 A 
ENDBRANCH  20  26
ENDBRANCH  19  20
ENDBRANCH   1  19
TORSDOF 6
ENDMDL
MODEL 2
REMARK VINA RESULT:      -8.5      1.822      2.109
REMARK  Name = 
REMARK  7 active torsions:
REMARK  status: ('A' for Active; 'I' for Inactive)
REMARK    1  A    between atoms: C_1  and  C_2
REMARK    2  A    between atoms: C_6  and  O_7
REMARK    3  A    between atoms: O_7  and  C_8
REMARK    4  A    between atoms: C_8  and  C_9
REMARK    5  A    between atoms: C_12  and  C_13
REMARK    6  A    between atoms: C_19  and  O_20
REMARK    7  A    between atoms: C_19  and  C_21
REMARK                            x       y       z     vdW  Elec       q    Type
REMARK                         _______ _______ _______ _____ _____    ______ ____
ROOT
ATOM      1  C   UNL     1       5.548   6.157  17.123  0.00  0.00    +0.000 A 
ATOM      2  C   UNL     1       4.724   6.989  16.395  0.00  0.00    +0.000 A 
ATOM      3  C   UNL     1       3.551   7.161  17.168  0.00  0.00    +0.000 A 
ATOM      4  C   UNL     1       3.712   6.406  18.319  0.00  0.00    +0.000 A 
ATOM      5  O   UNL     1       4.932   5.799  18.283  0.00  0.00    +0.000 OA
ENDROOT
BRANCH   4   6
ATOM      6  C   UNL     1       2.794   6.181  19.421  0.00  0.00    +0.000 C 
ATOM      7  O   UNL     1       2.426   7.129  20.119  0.00  0.00    +0.000 OA
ATOM      8  N   UNL     1       2.410   4.865  19.733  0.00  0.00    +0.000 N 
ATOM      9  N   UNL     1       1.487   4.688  20.754  0.00  0.00    +0.000 NA
ATOM     10  C   UNL     1       1.378   3.424  20.958  0.00  0.00    +0.000 C 
ATOM     11  C   UNL     1       2.315   2.564  20.189  0.00  0.00    +0.000 C 
ATOM     12  C   UNL     1       2.834   3.568  19.147  0.00  0.00    +0.000 C 
BRANCH  12  13
ATOM     13  C   UNL     1       2.225   3.249  17.735  0.00  0.00    +0.000 C 
ATOM     14  F   UNL     1       1.907   1.942  17.588  0.00  0.00    +0.000 F 
ATOM     15  F   UNL     1       1.115   3.978  17.473  0.00  0.00    +0.000 F 
ATOM     16  F   UNL     1       3.093   3.540  16.729  0.00  0.00    +0.000 F 
ENDBRANCH  12  13
BRANCH  12  17
ATOM     17  O   UNL     1       4.267   3.495  19.222  0.00  0.00    +0.000 OA
ATOM     18  H   UNL     1       4.461   2.937  19.995  0.00  0.00    +0.000 HD
ENDBRANCH  12  17
ENDBRANCH   4   6
BRANCH   1  19
ATOM     19  C   UNL     1       6.921   5.632  16.899  0.00  0.00    +0.000 C 
BRANCH  19  20
ATOM     20  O   UNL     1       6.784   4.363  16.266  0.00  0.00    +0.000 OA
BRANCH  20  26
ATOM     21  C   UNL     1       5.167   2.863  11.794  0.00  0.00    +0.000 C 
ATOM     22  C   UNL     1       6.078   3.673  12.671  0.00  0.00    +0.000 A 
ATOM     23  C   UNL     1       7.060   4.499  12.110  0.00  0.00    +0.000 A 
ATOM     24  C   UNL     1       7.902   5.245  12.933  0.00  0.00    +0.000 A 
ATOM     25  C   UNL     1       7.769   5.168  14.321  0.00  0.00    +0.000 A 
ATOM     26  C   UNL     1       6.798   4.348  14.896  0.00  0.00    +0.000 A 
ATOM     27  C   UNL     1       5.953   3.604  14.069  0.00  0.00    +0.000 A 
ENDBRANCH  20  26
ENDBRANCH  19  20
ENDBRANCH   1  19
TORSDOF 6
ENDMDL
MODEL 3
REMARK VINA RESULT:      -8.1      4.064      7.129
REMARK  Name = 
REMARK  7 active torsions:
REMARK  status: ('A' for Active; 'I' for Inactive)
REMARK    1  A    between atoms: C_1  and  C_2
REMARK    2  A    between atoms: C_6  and  O_7
REMARK    3  A    between atoms: O_7  and  C_8
REMARK    4  A    between atoms: C_8  and  C_9
REMARK    5  A    between atoms: C_12  and  C_13
REMARK    6  A    between atoms: C_19  and  O_20
REMARK    7  A    between atoms: C_19  and  C_21
REMARK                            x       y       z     vdW  Elec       q    Type
REMARK                         _______ _______ _______ _____ _____    ______ ____
ROOT
ATOM      1  C   UNL     1       2.006   8.063  19.322  0.00  0.00    +0.000 A 
ATOM      2  C   UNL     1       2.296   8.171  17.979  0.00  0.00    +0.000 A 
ATOM      3  C   UNL     1       3.227   7.145  17.691  0.00  0.00    +0.000 A 
ATOM      4  C   UNL     1       3.474   6.478  18.880  0.00  0.00    +0.000 A 
ATOM      5  O   UNL     1       2.724   7.044  19.869  0.00  0.00    +0.000 OA
ENDROOT
BRANCH   4   6
ATOM      6  C   UNL     1       4.386   5.385  19.164  0.00  0.00    +0.000 C 
ATOM      7  O   UNL     1       5.605   5.571  19.116  0.00  0.00    +0.000 OA
ATOM      8  N   UNL     1       3.862   4.101  19.399  0.00  0.00    +0.000 N 
ATOM      9  N   UNL     1       4.756   3.091  19.725  0.00  0.00    +0.000 NA
ATOM     10  C   UNL     1       4.092   1.991  19.768  0.00  0.00    +0.000 C 
ATOM     11  C   UNL     1       2.670   2.080  19.348  0.00  0.00    +0.000 C 
ATOM     12  C   UNL     1       2.464   3.603  19.357  0.00  0.00    +0.000 C 
BRANCH  12  13
ATOM     13  C   UNL     1       1.574   4.024  20.580  0.00  0.00    +0.000 C 
ATOM     14  F   UNL     1       2.300   4.521  21.608  0.00  0.00    +0.000 F 
ATOM     15  F   UNL     1       0.641   4.948  20.247  0.00  0.00    +0.000 F 
ATOM     16  F   UNL     1       0.875   2.973  21.087  0.00  0.00    +0.000 F 
ENDBRANCH  12  13
BRANCH  12  17
ATOM     17  O   UNL     1       1.917   3.925  18.068  0.00  0.00    +0.000 OA
ATOM     18  H   UNL     1       2.141   4.860  17.915  0.00  0.00    +0.000 HD
ENDBRANCH  12  17
ENDBRANCH   4   6
BRANCH   1  19
ATOM     19  C   UNL     1       1.082   8.797  20.227  0.00  0.00    +0.000 C 
BRANCH  19  20
ATOM     20  O   UNL     1       0.974  10.126  19.723  0.00  0.00    +0.000 OA
BRANCH  20  26
ATOM     21  C   UNL     1      -2.686   9.962  16.341  0.00  0.00    +0.000 C 
ATOM     22  C   UNL     1      -2.075  10.487  17.609  0.00  0.00    +0.000 A 
ATOM     23  C   UNL     1      -2.741  11.449  18.377  0.00  0.00    +0.000 A 
ATOM     24  C   UNL     1      -2.164  11.932  19.551  0.00  0.00    +0.000 A 
ATOM     25  C   UNL     1      -0.917  11.455  19.962  0.00  0.00    +0.000 A 
ATOM     26  C   UNL     1      -0.240  10.497  19.208  0.00  0.00    +0.000 A 
ATOM     27  C   UNL     1      -0.822  10.014  18.033  0.00  0.00    +0.000 A 
ENDBRANCH  20  26
ENDBRANCH  19  20
ENDBRANCH   1  19
TORSDOF 6
ENDMDL
MODEL 4
REMARK VINA RESULT:      -8.1      1.961      2.543
REMARK  Name = 
REMARK  7 active torsions:
REMARK  status: ('A' for Active; 'I' for Inactive)
REMARK    1  A    between atoms: C_1  and  C_2
REMARK    2  A    between atoms: C_6  and  O_7
REMARK    3  A    between atoms: O_7  and  C_8
REMARK    4  A    between atoms: C_8  and  C_9
REMARK    5  A    between atoms: C_12  and  C_13
REMARK    6  A    between atoms: C_19  and  O_20
REMARK    7  A    between atoms: C_19  and  C_21
REMARK                            x       y       z     vdW  Elec       q    Type
REMARK                         _______ _______ _______ _____ _____    ______ ____
ROOT
ATOM      1  C   UNL     1       5.585   6.412  17.718  0.00  0.00    +0.000 A 
ATOM      2  C   UNL     1       4.742   7.053  16.835  0.00  0.00    +0.000 A 
ATOM      3  C   UNL     1       3.460   7.047  17.437  0.00  0.00    +0.000 A 
ATOM      4  C   UNL     1       3.584   6.382  18.646  0.00  0.00    +0.000 A 
ATOM      5  O   UNL     1       4.883   6.000  18.809  0.00  0.00    +0.000 OA
ENDROOT
BRANCH   4   6
ATOM      6  C   UNL     1       2.574   6.045  19.631  0.00  0.00    +0.000 C 
ATOM      7  O   UNL     1       2.102   6.926  20.355  0.00  0.00    +0.000 OA
ATOM      8  N   UNL     1       2.215   4.697  19.808  0.00  0.00    +0.000 N 
ATOM      9  N   UNL     1       1.204   4.414  20.716  0.00  0.00    +0.000 NA
ATOM     10  C   UNL     1       1.127   3.135  20.818  0.00  0.00    +0.000 C 
ATOM     11  C   UNL     1       2.168   2.367  20.087  0.00  0.00    +0.000 C 
ATOM     12  C   UNL     1       2.745   3.463  19.177  0.00  0.00    +0.000 C 
BRANCH  12  13
ATOM     13  C   UNL     1       2.290   3.230  17.691  0.00  0.00    +0.000 C 
ATOM     14  F   UNL     1       2.132   1.920  17.394  0.00  0.00    +0.000 F 
ATOM     15  F   UNL     1       1.130   3.865  17.401  0.00  0.00    +0.000 F 
ATOM     16  F   UNL     1       3.198   3.711  16.800  0.00  0.00    +0.000 F 
ENDBRANCH  12  13
BRANCH  12  17
ATOM     17  O   UNL     1       4.166   3.431  19.389  0.00  0.00    +0.000 OA
ATOM     18  H   UNL     1       4.560   3.793  18.576  0.00  0.00    +0.000 HD
ENDBRANCH  12  17
ENDBRANCH   4   6
BRANCH   1  19
ATOM     19  C   UNL     1       7.045   6.130  17.710  0.00  0.00    +0.000 C 
BRANCH  19  20
ATOM     20  O   UNL     1       7.210   4.803  17.218  0.00  0.00    +0.000 OA
BRANCH  20  26
ATOM     21  C   UNL     1       8.023   5.625  12.368  0.00  0.00    +0.000 C 
ATOM     22  C   UNL     1       7.303   4.940  13.493  0.00  0.00    +0.000 A 
ATOM     23  C   UNL     1       6.287   4.013  13.232  0.00  0.00    +0.000 A 
ATOM     24  C   UNL     1       5.623   3.384  14.284  0.00  0.00    +0.000 A 
ATOM     25  C   UNL     1       5.970   3.680  15.604  0.00  0.00    +0.000 A 
ATOM     26  C   UNL     1       6.979   4.603  15.882  0.00  0.00    +0.000 A 
ATOM     27  C   UNL     1       7.644   5.229  14.825  0.00  0.00    +0.000 A 
ENDBRANCH  20  26
ENDBRANCH  19  20
ENDBRANCH   1  19
TORSDOF 6
ENDMDL
MODEL 5
REMARK VINA RESULT:      -7.9      4.140      7.132
REMARK  Name = 
REMARK  7 active torsions:
REMARK  status: ('A' for Active; 'I' for Inactive)
REMARK    1  A    between atoms: C_1  and  C_2
REMARK    2  A    between atoms: C_6  and  O_7
REMARK    3  A    between atoms: O_7  and  C_8
REMARK    4  A    between atoms: C_8  and  C_9
REMARK    5  A    between atoms: C_12  and  C_13
REMARK    6  A    between atoms: C_19  and  O_20
REMARK    7  A    between atoms: C_19  and  C_21
REMARK                            x       y       z     vdW  Elec       q    Type
REMARK                         _______ _______ _______ _____ _____    ______ ____
ROOT
ATOM      1  C   UNL     1       1.926   8.045  19.063  0.00  0.00    +0.000 A 
ATOM      2  C   UNL     1       1.556   7.759  20.360  0.00  0.00    +0.000 A 
ATOM      3  C   UNL     1       2.299   6.616  20.741  0.00  0.00    +0.000 A 
ATOM      4  C   UNL     1       3.068   6.251  19.649  0.00  0.00    +0.000 A 
ATOM      5  O   UNL     1       2.835   7.128  18.630  0.00  0.00    +0.000 OA
ENDROOT
BRANCH   4   6
ATOM      6  C   UNL     1       3.966   5.124  19.476  0.00  0.00    +0.000 C 
ATOM      7  O   UNL     1       5.178   5.268  19.661  0.00  0.00    +0.000 OA
ATOM      8  N   UNL     1       3.449   3.903  19.009  0.00  0.00    +0.000 N 
ATOM      9  N   UNL     1       4.322   2.828  18.912  0.00  0.00    +0.000 NA
ATOM     10  C   UNL     1       3.684   1.865  18.350  0.00  0.00    +0.000 C 
ATOM     11  C   UNL     1       2.318   2.193  17.866  0.00  0.00    +0.000 C 
ATOM     12  C   UNL     1       2.077   3.534  18.578  0.00  0.00    +0.000 C 
BRANCH  12  13
ATOM     13  C   UNL     1       1.041   3.352  19.744  0.00  0.00    +0.000 C 
ATOM     14  F   UNL     1       0.061   2.471  19.438  0.00  0.00    +0.000 F 
ATOM     15  F   UNL     1       1.625   2.941  20.894  0.00  0.00    +0.000 F 
ATOM     16  F   UNL     1       0.414   4.519  20.055  0.00  0.00    +0.000 F 
ENDBRANCH  12  13
BRANCH  12  17
ATOM     17  O   UNL     1       1.676   4.451  17.546  0.00  0.00    +0.000 OA
ATOM     18  H   UNL     1       1.384   5.255  18.010  0.00  0.00    +0.000 HD
ENDBRANCH  12  17
ENDBRANCH   4   6
BRANCH   1  19
ATOM     19  C   UNL     1       1.557   9.128  18.114  0.00  0.00    +0.000 C 
BRANCH  19  20
ATOM     20  O   UNL     1       0.963  10.171  18.882  0.00  0.00    +0.000 OA
BRANCH  20  26
ATOM     21  C   UNL     1      -3.198   9.908  16.148  0.00  0.00    +0.000 C 
ATOM     22  C   UNL     1      -2.401  10.448  17.301  0.00  0.00    +0.000 A 
ATOM     23  C   UNL     1      -2.957  11.392  18.172  0.00  0.00    +0.000 A 
ATOM     24  C   UNL     1      -2.208  11.890  19.237  0.00  0.00    +0.000 A 
ATOM     25  C   UNL     1      -0.898  11.448  19.435  0.00  0.00    +0.000 A 
ATOM     26  C   UNL     1      -0.328  10.509  18.575  0.00  0.00    +0.000 A 
ATOM     27  C   UNL     1      -1.083  10.010  17.510  0.00  0.00    +0.000 A 
ENDBRANCH  20  26
ENDBRANCH  19  20
ENDBRANCH   1  19
TORSDOF 6
ENDMDL
MODEL 6
REMARK VINA RESULT:      -7.8      3.565      7.070
REMARK  Name = 
REMARK  7 active torsions:
REMARK  status: ('A' for Active; 'I' for Inactive)
REMARK    1  A    between atoms: C_1  and  C_2
REMARK    2  A    between atoms: C_6  and  O_7
REMARK    3  A    between atoms: O_7  and  C_8
REMARK    4  A    between atoms: C_8  and  C_9
REMARK    5  A    between atoms: C_12  and  C_13
REMARK    6  A    between atoms: C_19  and  O_20
REMARK    7  A    between atoms: C_19  and  C_21
REMARK                            x       y       z     vdW  Elec       q    Type
REMARK                         _______ _______ _______ _____ _____    ______ ____
ROOT
ATOM      1  C   UNL     1       3.346   7.625  17.739  0.00  0.00    +0.000 A 
ATOM      2  C   UNL     1       4.263   7.473  16.720  0.00  0.00    +0.000 A 
ATOM      3  C   UNL     1       5.050   6.347  17.059  0.00  0.00    +0.000 A 
ATOM      4  C   UNL     1       4.587   5.883  18.279  0.00  0.00    +0.000 A 
ATOM      5  O   UNL     1       3.548   6.667  18.685  0.00  0.00    +0.000 OA
ENDROOT
BRANCH   4   6
ATOM      6  C   UNL     1       5.071   4.793  19.106  0.00  0.00    +0.000 C 
ATOM      7  O   UNL     1       6.105   4.932  19.765  0.00  0.00    +0.000 OA
ATOM      8  N   UNL     1       4.401   3.557  19.069  0.00  0.00    +0.000 N 
ATOM      9  N   UNL     1       4.853   2.554  19.915  0.00  0.00    +0.000 NA
ATOM     10  C   UNL     1       4.195   1.487  19.631  0.00  0.00    +0.000 C 
ATOM     11  C   UNL     1       3.290   1.582  18.457  0.00  0.00    +0.000 C 
ATOM     12  C   UNL     1       3.247   3.106  18.252  0.00  0.00    +0.000 C 
BRANCH  12  13
ATOM     13  C   UNL     1       1.854   3.675  18.700  0.00  0.00    +0.000 C 
ATOM     14  F   UNL     1       1.892   4.241  19.929  0.00  0.00    +0.000 F 
ATOM     15  F   UNL     1       1.370   4.597  17.833  0.00  0.00    +0.000 F 
ATOM     16  F   UNL     1       0.903   2.705  18.762  0.00  0.00    +0.000 F 
ENDBRANCH  12  13
BRANCH  12  17
ATOM     17  O   UNL     1       3.574   3.317  16.869  0.00  0.00    +0.000 OA
ATOM     18  H   UNL     1       4.466   2.946  16.750  0.00  0.00    +0.000 HD
ENDBRANCH  12  17
ENDBRANCH   4   6
BRANCH   1  19
ATOM     19  C   UNL     1       2.223   8.571  17.966  0.00  0.00    +0.000 C 
BRANCH  19  20
ATOM     20  O   UNL     1       1.798   8.397  19.315  0.00  0.00    +0.000 OA
BRANCH  20  26
ATOM     21  C   UNL     1      -0.822  10.571  22.958  0.00  0.00    +0.000 C 
ATOM     22  C   UNL     1      -0.409  10.438  21.520  0.00  0.00    +0.000 A 
ATOM     23  C   UNL     1      -0.944  11.284  20.542  0.00  0.00    +0.000 A 
ATOM     24  C   UNL     1      -0.556  11.151  19.210  0.00  0.00    +0.000 A 
ATOM     25  C   UNL     1       0.368  10.169  18.848  0.00  0.00    +0.000 A 
ATOM     26  C   UNL     1       0.910   9.316  19.810  0.00  0.00    +0.000 A 
ATOM     27  C   UNL     1       0.522   9.454  21.145  0.00  0.00    +0.000 A 
ENDBRANCH  20  26
ENDBRANCH  19  20
ENDBRANCH   1  19
TORSDOF 6
ENDMDL
MODEL 7
REMARK VINA RESULT:      -7.8      4.172      7.465
REMARK  Name = 
REMARK  7 active torsions:
REMARK  status: ('A' for Active; 'I' for Inactive)
REMARK    1  A    between atoms: C_1  and  C_2
REMARK    2  A    between atoms: C_6  and  O_7
REMARK    3  A    between atoms: O_7  and  C_8
REMARK    4  A    between atoms: C_8  and  C_9
REMARK    5  A    between atoms: C_12  and  C_13
REMARK    6  A    between atoms: C_19  and  O_20
REMARK    7  A    between atoms: C_19  and  C_21
REMARK                            x       y       z     vdW  Elec       q    Type
REMARK                         _______ _______ _______ _____ _____    ______ ____
ROOT
ATOM      1  C   UNL     1       2.029   7.988  19.321  0.00  0.00    +0.000 A 
ATOM      2  C   UNL     1       2.302   8.061  17.971  0.00  0.00    +0.000 A 
ATOM      3  C   UNL     1       3.233   7.030  17.700  0.00  0.00    +0.000 A 
ATOM      4  C   UNL     1       3.496   6.395  18.903  0.00  0.00    +0.000 A 
ATOM      5  O   UNL     1       2.756   6.985  19.885  0.00  0.00    +0.000 OA
ENDROOT
BRANCH   4   6
ATOM      6  C   UNL     1       4.413   5.312  19.204  0.00  0.00    +0.000 C 
ATOM      7  O   UNL     1       5.631   5.516  19.193  0.00  0.00    +0.000 OA
ATOM      8  N   UNL     1       3.901   4.020  19.413  0.00  0.00    +0.000 N 
ATOM      9  N   UNL     1       4.799   3.019  19.757  0.00  0.00    +0.000 NA
ATOM     10  C   UNL     1       4.149   1.909  19.772  0.00  0.00    +0.000 C 
ATOM     11  C   UNL     1       2.739   1.983  19.311  0.00  0.00    +0.000 C 
ATOM     12  C   UNL     1       2.512   3.503  19.326  0.00  0.00    +0.000 C 
BRANCH  12  13
ATOM     13  C   UNL     1       1.580   3.902  20.526  0.00  0.00    +0.000 C 
ATOM     14  F   UNL     1       0.691   4.868  20.197  0.00  0.00    +0.000 F 
ATOM     15  F   UNL     1       0.886   2.847  21.014  0.00  0.00    +0.000 F 
ATOM     16  F   UNL     1       2.288   4.386  21.582  0.00  0.00    +0.000 F 
ENDBRANCH  12  13
BRANCH  12  17
ATOM     17  O   UNL     1       1.999   3.829  18.024  0.00  0.00    +0.000 OA
ATOM     18  H   UNL     1       1.031   3.759  18.099  0.00  0.00    +0.000 HD
ENDBRANCH  12  17
ENDBRANCH   4   6
BRANCH   1  19
ATOM     19  C   UNL     1       1.113   8.744  20.217  0.00  0.00    +0.000 C 
BRANCH  19  20
ATOM     20  O   UNL     1       1.089  10.089  19.748  0.00  0.00    +0.000 OA
BRANCH  20  26
ATOM     21  C   UNL     1      -2.923  12.949  20.514  0.00  0.00    +0.000 C 
ATOM     22  C   UNL     1      -2.131  11.968  19.698  0.00  0.00    +0.000 A 
ATOM     23  C   UNL     1      -2.627  11.487  18.481  0.00  0.00    +0.000 A 
ATOM     24  C   UNL     1      -1.884  10.574  17.733  0.00  0.00    +0.000 A 
ATOM     25  C   UNL     1      -0.643  10.138  18.198  0.00  0.00    +0.000 A 
ATOM     26  C   UNL     1      -0.134  10.606  19.410  0.00  0.00    +0.000 A 
ATOM     27  C   UNL     1      -0.879  11.522  20.157  0.00  0.00    +0.000 A 
ENDBRANCH  20  26
ENDBRANCH  19  20
ENDBRANCH   1  19
TORSDOF 6
ENDMDL
MODEL 8
REMARK VINA RESULT:      -7.8      3.889      7.510
REMARK  Name = 
REMARK  7 active torsions:
REMARK  status: ('A' for Active; 'I' for Inactive)
REMARK    1  A    between atoms: C_1  and  C_2
REMARK    2  A    between atoms: C_6  and  O_7
REMARK    3  A    between atoms: O_7  and  C_8
REMARK    4  A    between atoms: C_8  and  C_9
REMARK    5  A    between atoms: C_12  and  C_13
REMARK    6  A    between atoms: C_19  and  O_20
REMARK    7  A    between atoms: C_19  and  C_21
REMARK                            x       y       z     vdW  Elec       q    Type
REMARK                         _______ _______ _______ _____ _____    ______ ____
ROOT
ATOM      1  C   UNL     1       2.689   7.794  18.373  0.00  0.00    +0.000 A 
ATOM      2  C   UNL     1       3.397   7.740  17.191  0.00  0.00    +0.000 A 
ATOM      3  C   UNL     1       4.275   6.636  17.305  0.00  0.00    +0.000 A 
ATOM      4  C   UNL     1       4.073   6.086  18.561  0.00  0.00    +0.000 A 
ATOM      5  O   UNL     1       3.104   6.798  19.204  0.00  0.00    +0.000 OA
ENDROOT
BRANCH   4   6
ATOM      6  C   UNL     1       4.747   4.979  19.212  0.00  0.00    +0.000 C 
ATOM      7  O   UNL     1       5.819   5.166  19.794  0.00  0.00    +0.000 OA
ATOM      8  N   UNL     1       4.211   3.685  19.090  0.00  0.00    +0.000 N 
ATOM      9  N   UNL     1       4.845   2.657  19.773  0.00  0.00    +0.000 NA
ATOM     10  C   UNL     1       4.279   1.557  19.424  0.00  0.00    +0.000 C 
ATOM     11  C   UNL     1       3.260   1.670  18.349  0.00  0.00    +0.000 C 
ATOM     12  C   UNL     1       3.037   3.192  18.326  0.00  0.00    +0.000 C 
BRANCH  12  13
ATOM     13  C   UNL     1       1.641   3.546  18.952  0.00  0.00    +0.000 C 
ATOM     14  F   UNL     1       0.767   2.515  18.895  0.00  0.00    +0.000 F 
ATOM     15  F   UNL     1       1.739   3.938  20.244  0.00  0.00    +0.000 F 
ATOM     16  F   UNL     1       1.042   4.583  18.306  0.00  0.00    +0.000 F 
ENDBRANCH  12  13
BRANCH  12  17
ATOM     17  O   UNL     1       3.205   3.584  16.954  0.00  0.00    +0.000 OA
ATOM     18  H   UNL     1       2.305   3.681  16.597  0.00  0.00    +0.000 HD
ENDBRANCH  12  17
ENDBRANCH   4   6
BRANCH   1  19
ATOM     19  C   UNL     1       1.596   8.672  18.867  0.00  0.00    +0.000 C 
BRANCH  19  20
ATOM     20  O   UNL     1       1.423   8.382  20.251  0.00  0.00    +0.000 OA
BRANCH  20  26
ATOM     21  C   UNL     1      -1.568  12.339  20.765  0.00  0.00    +0.000 C 
ATOM     22  C   UNL     1      -0.828  11.155  21.320  0.00  0.00    +0.000 A 
ATOM     23  C   UNL     1      -0.891  10.850  22.684  0.00  0.00    +0.000 A 
ATOM     24  C   UNL     1      -0.199   9.751  23.190  0.00  0.00    +0.000 A 
ATOM     25  C   UNL     1       0.562   8.952  22.334  0.00  0.00    +0.000 A 
ATOM     26  C   UNL     1       0.637   9.243  20.971  0.00  0.00    +0.000 A 
ATOM     27  C   UNL     1      -0.061  10.344  20.467  0.00  0.00    +0.000 A 
ENDBRANCH  20  26
ENDBRANCH  19  20
ENDBRANCH   1  19
TORSDOF 6
ENDMDL
MODEL 9
REMARK VINA RESULT:      -7.8      4.544      8.113
REMARK  Name = 
REMARK  7 active torsions:
REMARK  status: ('A' for Active; 'I' for Inactive)
REMARK    1  A    between atoms: C_1  and  C_2
REMARK    2  A    between atoms: C_6  and  O_7
REMARK    3  A    between atoms: O_7  and  C_8
REMARK    4  A    between atoms: C_8  and  C_9
REMARK    5  A    between atoms: C_12  and  C_13
REMARK    6  A    between atoms: C_19  and  O_20
REMARK    7  A    between atoms: C_19  and  C_21
REMARK                            x       y       z     vdW  Elec       q    Type
REMARK                         _______ _______ _______ _____ _____    ______ ____
ROOT
ATOM      1  C   UNL     1       1.696   7.982  20.124  0.00  0.00    +0.000 A 
ATOM      2  C   UNL     1       1.809   8.367  18.805  0.00  0.00    +0.000 A 
ATOM      3  C   UNL     1       2.674   7.430  18.192  0.00  0.00    +0.000 A 
ATOM      4  C   UNL     1       3.062   6.534  19.175  0.00  0.00    +0.000 A 
ATOM      5  O   UNL     1       2.460   6.878  20.349  0.00  0.00    +0.000 OA
ENDROOT
BRANCH   4   6
ATOM      6  C   UNL     1       3.982   5.414  19.104  0.00  0.00    +0.000 C 
ATOM      7  O   UNL     1       5.186   5.616  18.926  0.00  0.00    +0.000 OA
ATOM      8  N   UNL     1       3.470   4.105  19.147  0.00  0.00    +0.000 N 
ATOM      9  N   UNL     1       4.380   3.057  19.137  0.00  0.00    +0.000 NA
ATOM     10  C   UNL     1       3.706   1.965  19.051  0.00  0.00    +0.000 C 
ATOM     11  C   UNL     1       2.242   2.125  18.858  0.00  0.00    +0.000 C 
ATOM     12  C   UNL     1       2.070   3.615  19.201  0.00  0.00    +0.000 C 
BRANCH  12  13
ATOM     13  C   UNL     1       1.365   3.774  20.595  0.00  0.00    +0.000 C 
ATOM     14  F   UNL     1       0.419   4.741  20.593  0.00  0.00    +0.000 F 
ATOM     15  F   UNL     1       0.783   2.625  21.014  0.00  0.00    +0.000 F 
ATOM     16  F   UNL     1       2.245   4.111  21.576  0.00  0.00    +0.000 F 
ENDBRANCH  12  13
BRANCH  12  17
ATOM     17  O   UNL     1       1.358   4.185  18.091  0.00  0.00    +0.000 OA
ATOM     18  H   UNL     1       0.780   4.868  18.474  0.00  0.00    +0.000 HD
ENDBRANCH  12  17
ENDBRANCH   4   6
BRANCH   1  19
ATOM     19  C   UNL     1       0.913   8.506  21.274  0.00  0.00    +0.000 C 
BRANCH  19  20
ATOM     20  O   UNL     1       1.159   9.908  21.342  0.00  0.00    +0.000 OA
BRANCH  20  26
ATOM     21  C   UNL     1      -2.771  12.174  23.410  0.00  0.00    +0.000 C 
ATOM     22  C   UNL     1      -1.874  11.879  22.242  0.00  0.00    +0.000 A 
ATOM     23  C   UNL     1      -2.123  12.450  20.989  0.00  0.00    +0.000 A 
ATOM     24  C   UNL     1      -1.286  12.168  19.910  0.00  0.00    +0.000 A 
ATOM     25  C   UNL     1      -0.197  11.311  20.079  0.00  0.00    +0.000 A 
ATOM     26  C   UNL     1       0.065  10.732  21.321  0.00  0.00    +0.000 A 
ATOM     27  C   UNL     1      -0.774  11.019  22.401  0.00  0.00    +0.000 A 
ENDBRANCH  20  26
ENDBRANCH  19  20
ENDBRANCH   1  19
TORSDOF 6
ENDMDL
