MODEL 1
REMARK VINA RESULT:      -9.3      0.000      0.000
REMARK  Name = 
REMARK  4 active torsions:
REMARK  status: ('A' for Active; 'I' for Inactive)
REMARK    1  A    between atoms: C_5  and  C_6
REMARK    2  A    between atoms: C_11  and  O_12
REMARK    3  A    between atoms: O_12  and  C_13
REMARK    4  A    between atoms: C_16  and  N_17
REMARK                            x       y       z     vdW  Elec       q    Type
REMARK                         _______ _______ _______ _____ _____    ______ ____
ROOT
ATOM      1  C   UNL     1       2.284   7.417  19.473  0.00  0.00    +0.000 A 
ATOM      2  C   UNL     1       1.609   7.983  20.552  0.00  0.00    +0.000 A 
ATOM      3  C   UNL     1       0.991   9.233  20.418  0.00  0.00    +0.000 A 
ATOM      4  C   UNL     1       1.031   9.954  19.210  0.00  0.00    +0.000 A 
ATOM      5  C   UNL     1       1.635   9.331  18.117  0.00  0.00    +0.000 A 
ATOM      6  C   UNL     1       2.276   8.087  18.249  0.00  0.00    +0.000 A 
ENDROOT
BRANCH   4   7
ATOM      7  N   UNL     1       0.530  11.269  19.213  0.00  0.00    +0.000 N 
ATOM      8  C   UNL     1       1.079  12.479  18.966  0.00  0.00    +0.000 A 
ATOM      9  N   UNL     1       0.421  13.616  19.020  0.00  0.00    +0.000 NA
ATOM     10  C   UNL     1       1.326  14.594  18.692  0.00  0.00    +0.000 A 
ATOM     11  C   UNL     1       1.149  15.980  18.575  0.00  0.00    +0.000 A 
ATOM     12  C   UNL     1       2.236  16.765  18.171  0.00  0.00    +0.000 A 
ATOM     13  C   UNL     1       3.476  16.183  17.903  0.00  0.00    +0.000 A 
ATOM     14  C   UNL     1       3.681  14.804  18.049  0.00  0.00    +0.000 A 
ATOM     15  C   UNL     1       2.577  14.046  18.446  0.00  0.00    +0.000 A 
ATOM     16  N   UNL     1       2.403  12.706  18.697  0.00  0.00    +0.000 N 
ATOM     17  H   UNL     1      -0.433  11.331  19.531  0.00  0.00    +0.000 HD
ATOM     18  H   UNL     1       3.132  12.014  18.696  0.00  0.00    +0.000 HD
ENDBRANCH   4   7
BRANCH   1  19
ATOM     19  O   UNL     1       3.017   6.277  19.730  0.00  0.00    +0.000 OA
BRANCH  19  25
ATOM     20  C   UNL     1       4.006   4.857  18.049  0.00  0.00    +0.000 A 
ATOM     21  C   UNL     1       3.813   3.727  17.227  0.00  0.00    +0.000 A 
ATOM     22  C   UNL     1       2.610   3.022  17.226  0.00  0.00    +0.000 A 
ATOM     23  C   UNL     1       1.620   3.432  18.087  0.00  0.00    +0.000 A 
ATOM     24  N   UNL     1       1.751   4.479  18.920  0.00  0.00    +0.000 NA
ATOM     25  C   UNL     1       2.912   5.188  18.874  0.00  0.00    +0.000 A 
BRANCH  20  30
ATOM     26  C   UNL     1       7.558   6.043  18.806  0.00  0.00    +0.000 A 
ATOM     27  C   UNL     1       7.691   7.011  17.827  0.00  0.00    +0.000 A 
ATOM     28  N   UNL     1       6.713   7.320  16.954  0.00  0.00    +0.000 NA
ATOM     29  C   UNL     1       5.549   6.620  17.053  0.00  0.00    +0.000 A 
ATOM     30  C   UNL     1       5.294   5.601  17.974  0.00  0.00    +0.000 A 
ATOM     31  C   UNL     1       6.352   5.339  18.869  0.00  0.00    +0.000 A 
ENDBRANCH  20  30
ENDBRANCH  19  25
ENDBRANCH   1  19
TORSDOF 4
ENDMDL
MODEL 2
REMARK VINA RESULT:      -8.9      1.069      1.393
REMARK  Name = 
REMARK  4 active torsions:
REMARK  status: ('A' for Active; 'I' for Inactive)
REMARK    1  A    between atoms: C_5  and  C_6
REMARK    2  A    between atoms: C_11  and  O_12
REMARK    3  A    between atoms: O_12  and  C_13
REMARK    4  A    between atoms: C_16  and  N_17
REMARK                            x       y       z     vdW  Elec       q    Type
REMARK                         _______ _______ _______ _____ _____    ______ ____
ROOT
ATOM      1  C   UNL     1       2.393   7.145  19.285  0.00  0.00    +0.000 A 
ATOM      2  C   UNL     1       1.776   7.693  20.407  0.00  0.00    +0.000 A 
ATOM      3  C   UNL     1       1.129   8.933  20.318  0.00  0.00    +0.000 A 
ATOM      4  C   UNL     1       1.082   9.661  19.115  0.00  0.00    +0.000 A 
ATOM      5  C   UNL     1       1.630   9.054  17.983  0.00  0.00    +0.000 A 
ATOM      6  C   UNL     1       2.299   7.821  18.069  0.00  0.00    +0.000 A 
ENDROOT
BRANCH   4   7
ATOM      7  N   UNL     1       0.559  10.966  19.157  0.00  0.00    +0.000 N 
ATOM      8  C   UNL     1       1.085  12.191  18.939  0.00  0.00    +0.000 A 
ATOM      9  N   UNL     1       0.409  13.315  19.027  0.00  0.00    +0.000 NA
ATOM     10  C   UNL     1       1.295  14.317  18.720  0.00  0.00    +0.000 A 
ATOM     11  C   UNL     1       1.093  15.703  18.641  0.00  0.00    +0.000 A 
ATOM     12  C   UNL     1       2.164  16.516  18.251  0.00  0.00    +0.000 A 
ATOM     13  C   UNL     1       3.413  15.963  17.959  0.00  0.00    +0.000 A 
ATOM     14  C   UNL     1       3.641  14.584  18.066  0.00  0.00    +0.000 A 
ATOM     15  C   UNL     1       2.554  13.797  18.450  0.00  0.00    +0.000 A 
ATOM     16  N   UNL     1       2.404  12.448  18.667  0.00  0.00    +0.000 N 
ATOM     17  H   UNL     1      -0.403  11.003  19.482  0.00  0.00    +0.000 HD
ATOM     18  H   UNL     1       3.144  11.769  18.642  0.00  0.00    +0.000 HD
ENDBRANCH   4   7
BRANCH   1  19
ATOM     19  O   UNL     1       3.160   6.017  19.490  0.00  0.00    +0.000 OA
BRANCH  19  25
ATOM     20  C   UNL     1       3.405   4.007  18.179  0.00  0.00    +0.000 A 
ATOM     21  C   UNL     1       2.838   2.756  17.859  0.00  0.00    +0.000 A 
ATOM     22  C   UNL     1       1.625   2.343  18.409  0.00  0.00    +0.000 A 
ATOM     23  C   UNL     1       1.008   3.174  19.313  0.00  0.00    +0.000 A 
ATOM     24  N   UNL     1       1.511   4.364  19.686  0.00  0.00    +0.000 NA
ATOM     25  C   UNL     1       2.670   4.776  19.104  0.00  0.00    +0.000 A 
BRANCH  20  30
ATOM     26  C   UNL     1       5.913   5.205  15.557  0.00  0.00    +0.000 A 
ATOM     27  C   UNL     1       7.071   5.167  16.313  0.00  0.00    +0.000 A 
ATOM     28  N   UNL     1       7.103   4.768  17.599  0.00  0.00    +0.000 NA
ATOM     29  C   UNL     1       5.921   4.400  18.164  0.00  0.00    +0.000 A 
ATOM     30  C   UNL     1       4.678   4.417  17.525  0.00  0.00    +0.000 A 
ATOM     31  C   UNL     1       4.717   4.829  16.176  0.00  0.00    +0.000 A 
ENDBRANCH  20  30
ENDBRANCH  19  25
ENDBRANCH   1  19
TORSDOF 4
ENDMDL
MODEL 3
REMARK VINA RESULT:      -8.8      3.316      4.949
REMARK  Name = 
REMARK  4 active torsions:
REMARK  status: ('A' for Active; 'I' for Inactive)
REMARK    1  A    between atoms: C_5  and  C_6
REMARK    2  A    between atoms: C_11  and  O_12
REMARK    3  A    between atoms: O_12  and  C_13
REMARK    4  A    between atoms: C_16  and  N_17
REMARK                            x       y       z     vdW  Elec       q    Type
REMARK                         _______ _______ _______ _____ _____    ______ ____
ROOT
ATOM      1  C   UNL     1       3.813   6.739  18.533  0.00  0.00    +0.000 A 
ATOM      2  C   UNL     1       2.989   6.646  19.652  0.00  0.00    +0.000 A 
ATOM      3  C   UNL     1       1.942   7.560  19.833  0.00  0.00    +0.000 A 
ATOM      4  C   UNL     1       1.691   8.591  18.909  0.00  0.00    +0.000 A 
ATOM      5  C   UNL     1       2.472   8.613  17.752  0.00  0.00    +0.000 A 
ATOM      6  C   UNL     1       3.536   7.713  17.574  0.00  0.00    +0.000 A 
ENDROOT
BRANCH   4   7
ATOM      7  N   UNL     1       0.731   9.561  19.252  0.00  0.00    +0.000 N 
ATOM      8  C   UNL     1      -0.410   9.994  18.673  0.00  0.00    +0.000 A 
ATOM      9  N   UNL     1      -1.186  10.931  19.171  0.00  0.00    +0.000 NA
ATOM     10  C   UNL     1      -2.235  11.061  18.296  0.00  0.00    +0.000 A 
ATOM     11  C   UNL     1      -3.358  11.899  18.356  0.00  0.00    +0.000 A 
ATOM     12  C   UNL     1      -4.324  11.800  17.348  0.00  0.00    +0.000 A 
ATOM     13  C   UNL     1      -4.170  10.897  16.295  0.00  0.00    +0.000 A 
ATOM     14  C   UNL     1      -3.036  10.076  16.200  0.00  0.00    +0.000 A 
ATOM     15  C   UNL     1      -2.093  10.191  17.223  0.00  0.00    +0.000 A 
ATOM     16  N   UNL     1      -0.887   9.576  17.457  0.00  0.00    +0.000 N 
ATOM     17  H   UNL     1       0.979  10.097  20.080  0.00  0.00    +0.000 HD
ATOM     18  H   UNL     1      -0.428   8.938  16.832  0.00  0.00    +0.000 HD
ENDBRANCH   4   7
BRANCH   1  19
ATOM     19  O   UNL     1       4.925   5.923  18.514  0.00  0.00    +0.000 OA
BRANCH  19  25
ATOM     20  C   UNL     1       4.619   4.178  16.877  0.00  0.00    +0.000 A 
ATOM     21  C   UNL     1       5.072   3.646  15.652  0.00  0.00    +0.000 A 
ATOM     22  C   UNL     1       6.146   4.210  14.965  0.00  0.00    +0.000 A 
ATOM     23  C   UNL     1       6.734   5.335  15.493  0.00  0.00    +0.000 A 
ATOM     24  N   UNL     1       6.330   5.911  16.639  0.00  0.00    +0.000 NA
ATOM     25  C   UNL     1       5.313   5.321  17.324  0.00  0.00    +0.000 A 
BRANCH  20  30
ATOM     26  C   UNL     1       1.115   3.334  18.145  0.00  0.00    +0.000 A 
ATOM     27  C   UNL     1       1.417   2.248  18.948  0.00  0.00    +0.000 A 
ATOM     28  N   UNL     1       2.668   1.781  19.122  0.00  0.00    +0.000 NA
ATOM     29  C   UNL     1       3.667   2.419  18.453  0.00  0.00    +0.000 A 
ATOM     30  C   UNL     1       3.499   3.507  17.592  0.00  0.00    +0.000 A 
ATOM     31  C   UNL     1       2.168   3.956  17.468  0.00  0.00    +0.000 A 
ENDBRANCH  20  30
ENDBRANCH  19  25
ENDBRANCH   1  19
TORSDOF 4
ENDMDL
MODEL 4
REMARK VINA RESULT:      -8.7      2.458      3.294
REMARK  Name = 
REMARK  4 active torsions:
REMARK  status: ('A' for Active; 'I' for Inactive)
REMARK    1  A    between atoms: C_5  and  C_6
REMARK    2  A    between atoms: C_11  and  O_12
REMARK    3  A    between atoms: O_12  and  C_13
REMARK    4  A    between atoms: C_16  and  N_17
REMARK                            x       y       z     vdW  Elec       q    Type
REMARK                         _______ _______ _______ _____ _____    ______ ____
ROOT
ATOM      1  C   UNL     1       2.264   7.466  19.451  0.00  0.00    +0.000 A 
ATOM      2  C   UNL     1       1.572   7.966  20.551  0.00  0.00    +0.000 A 
ATOM      3  C   UNL     1       0.880   9.181  20.455  0.00  0.00    +0.000 A 
ATOM      4  C   UNL     1       0.862   9.931  19.264  0.00  0.00    +0.000 A 
ATOM      5  C   UNL     1       1.489   9.371  18.150  0.00  0.00    +0.000 A 
ATOM      6  C   UNL     1       2.202   8.163  18.245  0.00  0.00    +0.000 A 
ENDROOT
BRANCH   4   7
ATOM      7  N   UNL     1       0.287  11.214  19.305  0.00  0.00    +0.000 N 
ATOM      8  C   UNL     1      -0.543  11.840  20.168  0.00  0.00    +0.000 A 
ATOM      9  N   UNL     1      -0.971  13.074  20.022  0.00  0.00    +0.000 NA
ATOM     10  C   UNL     1      -1.770  13.330  21.108  0.00  0.00    +0.000 A 
ATOM     11  C   UNL     1      -2.460  14.499  21.462  0.00  0.00    +0.000 A 
ATOM     12  C   UNL     1      -3.174  14.519  22.666  0.00  0.00    +0.000 A 
ATOM     13  C   UNL     1      -3.213  13.395  23.493  0.00  0.00    +0.000 A 
ATOM     14  C   UNL     1      -2.559  12.206  23.138  0.00  0.00    +0.000 A 
ATOM     15  C   UNL     1      -1.849  12.218  21.936  0.00  0.00    +0.000 A 
ATOM     16  N   UNL     1      -1.114  11.264  21.274  0.00  0.00    +0.000 N 
ATOM     17  H   UNL     1       0.484  11.769  18.477  0.00  0.00    +0.000 HD
ATOM     18  H   UNL     1      -1.024  10.303  21.551  0.00  0.00    +0.000 HD
ENDBRANCH   4   7
BRANCH   1  19
ATOM     19  O   UNL     1       3.065   6.365  19.673  0.00  0.00    +0.000 OA
BRANCH  19  25
ATOM     20  C   UNL     1       4.082   4.936  18.016  0.00  0.00    +0.000 A 
ATOM     21  C   UNL     1       3.903   3.801  17.198  0.00  0.00    +0.000 A 
ATOM     22  C   UNL     1       2.702   3.094  17.184  0.00  0.00    +0.000 A 
ATOM     23  C   UNL     1       1.698   3.507  18.027  0.00  0.00    +0.000 A 
ATOM     24  N   UNL     1       1.814   4.560  18.855  0.00  0.00    +0.000 NA
ATOM     25  C   UNL     1       2.975   5.271  18.822  0.00  0.00    +0.000 A 
BRANCH  20  30
ATOM     26  C   UNL     1       7.644   6.090  18.779  0.00  0.00    +0.000 A 
ATOM     27  C   UNL     1       7.766   7.095  17.837  0.00  0.00    +0.000 A 
ATOM     28  N   UNL     1       6.779   7.438  16.988  0.00  0.00    +0.000 NA
ATOM     29  C   UNL     1       5.616   6.735  17.072  0.00  0.00    +0.000 A 
ATOM     30  C   UNL     1       5.369   5.681  17.955  0.00  0.00    +0.000 A 
ATOM     31  C   UNL     1       6.437   5.385  18.828  0.00  0.00    +0.000 A 
ENDBRANCH  20  30
ENDBRANCH  19  25
ENDBRANCH   1  19
TORSDOF 4
ENDMDL
MODEL 5
REMARK VINA RESULT:      -8.5      2.800      3.495
REMARK  Name = 
REMARK  4 active torsions:
REMARK  status: ('A' for Active; 'I' for Inactive)
REMARK    1  A    between atoms: C_5  and  C_6
REMARK    2  A    between atoms: C_11  and  O_12
REMARK    3  A    between atoms: O_12  and  C_13
REMARK    4  A    between atoms: C_16  and  N_17
REMARK                            x       y       z     vdW  Elec       q    Type
REMARK                         _______ _______ _______ _____ _____    ______ ____
ROOT
ATOM      1  C   UNL     1       2.977   6.631  19.212  0.00  0.00    +0.000 A 
ATOM      2  C   UNL     1       2.204   7.106  20.268  0.00  0.00    +0.000 A 
ATOM      3  C   UNL     1       1.459   8.283  20.120  0.00  0.00    +0.000 A 
ATOM      4  C   UNL     1       1.466   9.020  18.921  0.00  0.00    +0.000 A 
ATOM      5  C   UNL     1       2.177   8.480  17.848  0.00  0.00    +0.000 A 
ATOM      6  C   UNL     1       2.944   7.311  17.995  0.00  0.00    +0.000 A 
ENDROOT
BRANCH   4   7
ATOM      7  N   UNL     1       0.826  10.272  18.915  0.00  0.00    +0.000 N 
ATOM      8  C   UNL     1       0.081  10.945  19.819  0.00  0.00    +0.000 A 
ATOM      9  N   UNL     1      -0.435  12.138  19.614  0.00  0.00    +0.000 NA
ATOM     10  C   UNL     1      -1.099  12.468  20.768  0.00  0.00    +0.000 A 
ATOM     11  C   UNL     1      -1.805  13.634  21.098  0.00  0.00    +0.000 A 
ATOM     12  C   UNL     1      -2.356  13.746  22.380  0.00  0.00    +0.000 A 
ATOM     13  C   UNL     1      -2.220  12.713  23.309  0.00  0.00    +0.000 A 
ATOM     14  C   UNL     1      -1.549  11.525  22.985  0.00  0.00    +0.000 A 
ATOM     15  C   UNL     1      -1.003  11.445  21.702  0.00  0.00    +0.000 A 
ATOM     16  N   UNL     1      -0.306  10.462  21.042  0.00  0.00    +0.000 N 
ATOM     17  H   UNL     1       0.880  10.747  18.018  0.00  0.00    +0.000 HD
ATOM     18  H   UNL     1      -0.124   9.540  21.396  0.00  0.00    +0.000 HD
ENDBRANCH   4   7
BRANCH   1  19
ATOM     19  O   UNL     1       3.820   5.574  19.489  0.00  0.00    +0.000 OA
BRANCH  19  25
ATOM     20  C   UNL     1       4.029   3.581  18.145  0.00  0.00    +0.000 A 
ATOM     21  C   UNL     1       3.558   2.267  17.939  0.00  0.00    +0.000 A 
ATOM     22  C   UNL     1       2.535   1.729  18.718  0.00  0.00    +0.000 A 
ATOM     23  C   UNL     1       2.019   2.500  19.731  0.00  0.00    +0.000 A 
ATOM     24  N   UNL     1       2.445   3.747  20.002  0.00  0.00    +0.000 NA
ATOM     25  C   UNL     1       3.409   4.278  19.202  0.00  0.00    +0.000 A 
BRANCH  20  30
ATOM     26  C   UNL     1       5.841   4.889  15.046  0.00  0.00    +0.000 A 
ATOM     27  C   UNL     1       7.091   5.121  15.591  0.00  0.00    +0.000 A 
ATOM     28  N   UNL     1       7.395   4.869  16.879  0.00  0.00    +0.000 NA
ATOM     29  C   UNL     1       6.400   4.375  17.666  0.00  0.00    +0.000 A 
ATOM     30  C   UNL     1       5.090   4.122  17.251  0.00  0.00    +0.000 A 
ATOM     31  C   UNL     1       4.844   4.390  15.889  0.00  0.00    +0.000 A 
ENDBRANCH  20  30
ENDBRANCH  19  25
ENDBRANCH   1  19
TORSDOF 4
ENDMDL
MODEL 6
REMARK VINA RESULT:      -8.5      1.540      3.323
REMARK  Name = 
REMARK  4 active torsions:
REMARK  status: ('A' for Active; 'I' for Inactive)
REMARK    1  A    between atoms: C_5  and  C_6
REMARK    2  A    between atoms: C_11  and  O_12
REMARK    3  A    between atoms: O_12  and  C_13
REMARK    4  A    between atoms: C_16  and  N_17
REMARK                            x       y       z     vdW  Elec       q    Type
REMARK                         _______ _______ _______ _____ _____    ______ ____
ROOT
ATOM      1  C   UNL     1       2.652   7.566  19.025  0.00  0.00    +0.000 A 
ATOM      2  C   UNL     1       1.900   7.932  20.138  0.00  0.00    +0.000 A 
ATOM      3  C   UNL     1       1.000   9.003  20.058  0.00  0.00    +0.000 A 
ATOM      4  C   UNL     1       0.827   9.739  18.871  0.00  0.00    +0.000 A 
ATOM      5  C   UNL     1       1.525   9.301  17.744  0.00  0.00    +0.000 A 
ATOM      6  C   UNL     1       2.445   8.242  17.822  0.00  0.00    +0.000 A 
ENDROOT
BRANCH   4   7
ATOM      7  N   UNL     1       0.031  10.898  18.926  0.00  0.00    +0.000 N 
ATOM      8  C   UNL     1       0.299  12.220  18.862  0.00  0.00    +0.000 A 
ATOM      9  N   UNL     1      -0.613  13.165  18.931  0.00  0.00    +0.000 NA
ATOM     10  C   UNL     1       0.063  14.354  18.813  0.00  0.00    +0.000 A 
ATOM     11  C   UNL     1      -0.426  15.668  18.799  0.00  0.00    +0.000 A 
ATOM     12  C   UNL     1       0.480  16.720  18.612  0.00  0.00    +0.000 A 
ATOM     13  C   UNL     1       1.845  16.469  18.457  0.00  0.00    +0.000 A 
ATOM     14  C   UNL     1       2.355  15.163  18.504  0.00  0.00    +0.000 A 
ATOM     15  C   UNL     1       1.428  14.135  18.685  0.00  0.00    +0.000 A 
ATOM     16  N   UNL     1       1.552  12.771  18.790  0.00  0.00    +0.000 N 
ATOM     17  H   UNL     1      -0.948  10.703  19.120  0.00  0.00    +0.000 HD
ATOM     18  H   UNL     1       2.420  12.266  18.822  0.00  0.00    +0.000 HD
ENDBRANCH   4   7
BRANCH   1  19
ATOM     19  O   UNL     1       3.642   6.627  19.228  0.00  0.00    +0.000 OA
BRANCH  19  25
ATOM     20  C   UNL     1       3.602   4.441  18.207  0.00  0.00    +0.000 A 
ATOM     21  C   UNL     1       4.014   3.672  17.099  0.00  0.00    +0.000 A 
ATOM     22  C   UNL     1       4.796   4.219  16.082  0.00  0.00    +0.000 A 
ATOM     23  C   UNL     1       5.124   5.551  16.163  0.00  0.00    +0.000 A 
ATOM     24  N   UNL     1       4.736   6.348  17.175  0.00  0.00    +0.000 NA
ATOM     25  C   UNL     1       4.015   5.789  18.185  0.00  0.00    +0.000 A 
BRANCH  20  30
ATOM     26  C   UNL     1       0.654   3.253  20.327  0.00  0.00    +0.000 A 
ATOM     27  C   UNL     1       1.342   2.587  21.325  0.00  0.00    +0.000 A 
ATOM     28  N   UNL     1       2.686   2.510  21.373  0.00  0.00    +0.000 NA
ATOM     29  C   UNL     1       3.378   3.114  20.369  0.00  0.00    +0.000 A 
ATOM     30  C   UNL     1       2.809   3.793  19.288  0.00  0.00    +0.000 A 
ATOM     31  C   UNL     1       1.400   3.852  19.308  0.00  0.00    +0.000 A 
ENDBRANCH  20  30
ENDBRANCH  19  25
ENDBRANCH   1  19
TORSDOF 4
ENDMDL
MODEL 7
REMARK VINA RESULT:      -8.5      3.119      4.183
REMARK  Name = 
REMARK  4 active torsions:
REMARK  status: ('A' for Active; 'I' for Inactive)
REMARK    1  A    between atoms: C_5  and  C_6
REMARK    2  A    between atoms: C_11  and  O_12
REMARK    3  A    between atoms: O_12  and  C_13
REMARK    4  A    between atoms: C_16  and  N_17
REMARK                            x       y       z     vdW  Elec       q    Type
REMARK                         _______ _______ _______ _____ _____    ______ ____
ROOT
ATOM      1  C   UNL     1       2.672   7.513  18.424  0.00  0.00    +0.000 A 
ATOM      2  C   UNL     1       2.316   8.628  17.669  0.00  0.00    +0.000 A 
ATOM      3  C   UNL     1       1.462   9.599  18.207  0.00  0.00    +0.000 A 
ATOM      4  C   UNL     1       0.936   9.486  19.508  0.00  0.00    +0.000 A 
ATOM      5  C   UNL     1       1.374   8.408  20.279  0.00  0.00    +0.000 A 
ATOM      6  C   UNL     1       2.214   7.418  19.738  0.00  0.00    +0.000 A 
ENDROOT
BRANCH   4   7
ATOM      7  N   UNL     1      -0.042  10.416  19.905  0.00  0.00    +0.000 N 
ATOM      8  C   UNL     1      -1.240  10.784  19.403  0.00  0.00    +0.000 A 
ATOM      9  N   UNL     1      -2.022  11.695  19.941  0.00  0.00    +0.000 NA
ATOM     10  C   UNL     1      -3.136  11.759  19.143  0.00  0.00    +0.000 A 
ATOM     11  C   UNL     1      -4.290  12.545  19.271  0.00  0.00    +0.000 A 
ATOM     12  C   UNL     1      -5.321  12.383  18.337  0.00  0.00    +0.000 A 
ATOM     13  C   UNL     1      -5.199  11.468  17.289  0.00  0.00    +0.000 A 
ATOM     14  C   UNL     1      -4.038  10.699  17.125  0.00  0.00    +0.000 A 
ATOM     15  C   UNL     1      -3.030  10.877  18.076  0.00  0.00    +0.000 A 
ATOM     16  N   UNL     1      -1.782  10.323  18.231  0.00  0.00    +0.000 N 
ATOM     17  H   UNL     1       0.240  10.978  20.704  0.00  0.00    +0.000 HD
ATOM     18  H   UNL     1      -1.340   9.695  17.584  0.00  0.00    +0.000 HD
ENDBRANCH   4   7
BRANCH   1  19
ATOM     19  O   UNL     1       3.365   6.517  17.769  0.00  0.00    +0.000 OA
BRANCH  19  25
ATOM     20  C   UNL     1       3.742   4.172  17.345  0.00  0.00    +0.000 A 
ATOM     21  C   UNL     1       3.240   2.866  17.524  0.00  0.00    +0.000 A 
ATOM     22  C   UNL     1       2.024   2.635  18.166  0.00  0.00    +0.000 A 
ATOM     23  C   UNL     1       1.338   3.717  18.664  0.00  0.00    +0.000 A 
ATOM     24  N   UNL     1       1.777   4.984  18.556  0.00  0.00    +0.000 NA
ATOM     25  C   UNL     1       2.941   5.199  17.883  0.00  0.00    +0.000 A 
BRANCH  20  30
ATOM     26  C   UNL     1       6.270   4.570  14.508  0.00  0.00    +0.000 A 
ATOM     27  C   UNL     1       7.429   4.710  15.250  0.00  0.00    +0.000 A 
ATOM     28  N   UNL     1       7.455   4.668  16.596  0.00  0.00    +0.000 NA
ATOM     29  C   UNL     1       6.266   4.491  17.235  0.00  0.00    +0.000 A 
ATOM     30  C   UNL     1       5.023   4.364  16.610  0.00  0.00    +0.000 A 
ATOM     31  C   UNL     1       5.068   4.399  15.201  0.00  0.00    +0.000 A 
ENDBRANCH  20  30
ENDBRANCH  19  25
ENDBRANCH   1  19
TORSDOF 4
ENDMDL
MODEL 8
REMARK VINA RESULT:      -8.5      3.329      4.152
REMARK  Name = 
REMARK  4 active torsions:
REMARK  status: ('A' for Active; 'I' for Inactive)
REMARK    1  A    between atoms: C_5  and  C_6
REMARK    2  A    between atoms: C_11  and  O_12
REMARK    3  A    between atoms: O_12  and  C_13
REMARK    4  A    between atoms: C_16  and  N_17
REMARK                            x       y       z     vdW  Elec       q    Type
REMARK                         _______ _______ _______ _____ _____    ______ ____
ROOT
ATOM      1  C   UNL     1       2.996   6.925  19.290  0.00  0.00    +0.000 A 
ATOM      2  C   UNL     1       2.724   7.817  18.256  0.00  0.00    +0.000 A 
ATOM      3  C   UNL     1       1.768   8.827  18.431  0.00  0.00    +0.000 A 
ATOM      4  C   UNL     1       1.056   8.973  19.637  0.00  0.00    +0.000 A 
ATOM      5  C   UNL     1       1.406   8.124  20.689  0.00  0.00    +0.000 A 
ATOM      6  C   UNL     1       2.348   7.096  20.513  0.00  0.00    +0.000 A 
ENDROOT
BRANCH   4   7
ATOM      7  N   UNL     1       0.001   9.903  19.668  0.00  0.00    +0.000 N 
ATOM      8  C   UNL     1      -0.998  10.213  18.814  0.00  0.00    +0.000 A 
ATOM      9  N   UNL     1      -1.907  11.136  19.039  0.00  0.00    +0.000 NA
ATOM     10  C   UNL     1      -2.737  11.127  17.946  0.00  0.00    +0.000 A 
ATOM     11  C   UNL     1      -3.881  11.893  17.679  0.00  0.00    +0.000 A 
ATOM     12  C   UNL     1      -4.589  11.652  16.496  0.00  0.00    +0.000 A 
ATOM     13  C   UNL     1      -4.161  10.679  15.592  0.00  0.00    +0.000 A 
ATOM     14  C   UNL     1      -3.000   9.928  15.825  0.00  0.00    +0.000 A 
ATOM     15  C   UNL     1      -2.318  10.185  17.017  0.00  0.00    +0.000 A 
ATOM     16  N   UNL     1      -1.169   9.670  17.567  0.00  0.00    +0.000 N 
ATOM     17  H   UNL     1       0.032  10.518  20.477  0.00  0.00    +0.000 HD
ATOM     18  H   UNL     1      -0.552   9.014  17.120  0.00  0.00    +0.000 HD
ENDBRANCH   4   7
BRANCH   1  19
ATOM     19  O   UNL     1       3.811   5.854  18.984  0.00  0.00    +0.000 OA
BRANCH  19  25
ATOM     20  C   UNL     1       3.835   3.839  17.659  0.00  0.00    +0.000 A 
ATOM     21  C   UNL     1       3.196   2.606  17.412  0.00  0.00    +0.000 A 
ATOM     22  C   UNL     1       2.044   2.231  18.102  0.00  0.00    +0.000 A 
ATOM     23  C   UNL     1       1.565   3.080  19.071  0.00  0.00    +0.000 A 
ATOM     24  N   UNL     1       2.145   4.254  19.378  0.00  0.00    +0.000 NA
ATOM     25  C   UNL     1       3.240   4.630  18.662  0.00  0.00    +0.000 A 
BRANCH  20  30
ATOM     26  C   UNL     1       6.083   4.756  14.708  0.00  0.00    +0.000 A 
ATOM     27  C   UNL     1       7.290   4.889  15.371  0.00  0.00    +0.000 A 
ATOM     28  N   UNL     1       7.434   4.686  16.695  0.00  0.00    +0.000 NA
ATOM     29  C   UNL     1       6.316   4.349  17.396  0.00  0.00    +0.000 A 
ATOM     30  C   UNL     1       5.034   4.210  16.857  0.00  0.00    +0.000 A 
ATOM     31  C   UNL     1       4.957   4.418  15.464  0.00  0.00    +0.000 A 
ENDBRANCH  20  30
ENDBRANCH  19  25
ENDBRANCH   1  19
TORSDOF 4
ENDMDL
MODEL 9
REMARK VINA RESULT:      -8.4      1.602      2.134
REMARK  Name = 
REMARK  4 active torsions:
REMARK  status: ('A' for Active; 'I' for Inactive)
REMARK    1  A    between atoms: C_5  and  C_6
REMARK    2  A    between atoms: C_11  and  O_12
REMARK    3  A    between atoms: O_12  and  C_13
REMARK    4  A    between atoms: C_16  and  N_17
REMARK                            x       y       z     vdW  Elec       q    Type
REMARK                         _______ _______ _______ _____ _____    ______ ____
ROOT
ATOM      1  C   UNL     1       2.477   6.859  19.899  0.00  0.00    +0.000 A 
ATOM      2  C   UNL     1       2.614   7.423  18.633  0.00  0.00    +0.000 A 
ATOM      3  C   UNL     1       1.954   8.620  18.321  0.00  0.00    +0.000 A 
ATOM      4  C   UNL     1       1.141   9.284  19.258  0.00  0.00    +0.000 A 
ATOM      5  C   UNL     1       1.088   8.749  20.546  0.00  0.00    +0.000 A 
ATOM      6  C   UNL     1       1.728   7.538  20.860  0.00  0.00    +0.000 A 
ENDROOT
BRANCH   4   7
ATOM      7  N   UNL     1       0.387  10.384  18.810  0.00  0.00    +0.000 N 
ATOM      8  C   UNL     1       0.497  11.721  18.972  0.00  0.00    +0.000 A 
ATOM      9  N   UNL     1      -0.331  12.601  18.454  0.00  0.00    +0.000 NA
ATOM     10  C   UNL     1       0.135  13.833  18.837  0.00  0.00    +0.000 A 
ATOM     11  C   UNL     1      -0.357  15.113  18.542  0.00  0.00    +0.000 A 
ATOM     12  C   UNL     1       0.341  16.228  19.020  0.00  0.00    +0.000 A 
ATOM     13  C   UNL     1       1.497  16.072  19.788  0.00  0.00    +0.000 A 
ATOM     14  C   UNL     1       1.983  14.800  20.123  0.00  0.00    +0.000 A 
ATOM     15  C   UNL     1       1.271  13.707  19.626  0.00  0.00    +0.000 A 
ATOM     16  N   UNL     1       1.434  12.349  19.751  0.00  0.00    +0.000 N 
ATOM     17  H   UNL     1      -0.457  10.116  18.312  0.00  0.00    +0.000 HD
ATOM     18  H   UNL     1       2.119  11.895  20.329  0.00  0.00    +0.000 HD
ENDBRANCH   4   7
BRANCH   1  19
ATOM     19  O   UNL     1       3.004   5.596  20.073  0.00  0.00    +0.000 OA
BRANCH  19  25
ATOM     20  C   UNL     1       2.970   3.746  18.525  0.00  0.00    +0.000 A 
ATOM     21  C   UNL     1       2.230   2.641  18.055  0.00  0.00    +0.000 A 
ATOM     22  C   UNL     1       0.960   2.350  18.553  0.00  0.00    +0.000 A 
ATOM     23  C   UNL     1       0.458   3.147  19.554  0.00  0.00    +0.000 A 
ATOM     24  N   UNL     1       1.126   4.195  20.069  0.00  0.00    +0.000 NA
ATOM     25  C   UNL     1       2.342   4.498  19.538  0.00  0.00    +0.000 A 
BRANCH  20  30
ATOM     26  C   UNL     1       5.721   4.421  15.960  0.00  0.00    +0.000 A 
ATOM     27  C   UNL     1       6.798   4.573  16.814  0.00  0.00    +0.000 A 
ATOM     28  N   UNL     1       6.705   4.457  18.152  0.00  0.00    +0.000 NA
ATOM     29  C   UNL     1       5.474   4.189  18.667  0.00  0.00    +0.000 A 
ATOM     30  C   UNL     1       4.300   4.039  17.923  0.00  0.00    +0.000 A 
ATOM     31  C   UNL     1       4.471   4.156  16.528  0.00  0.00    +0.000 A 
ENDBRANCH  20  30
ENDBRANCH  19  25
ENDBRANCH   1  19
TORSDOF 4
ENDMDL
