MODEL 1
REMARK VINA RESULT:      -7.0      0.000      0.000
REMARK  Name = 
REMARK  8 active torsions:
REMARK  status: ('A' for Active; 'I' for Inactive)
REMARK    1  A    between atoms: C_1  and  O_2
REMARK    2  A    between atoms: O_2  and  C_3
REMARK    3  A    between atoms: C_6  and  O_7
REMARK    4  A    between atoms: O_7  and  C_8
REMARK    5  A    between atoms: C_9  and  N_10
REMARK    6  A    between atoms: C_11  and  C_13
REMARK    7  A    between atoms: C_13  and  S_14
REMARK    8  A    between atoms: S_14  and  C_15
REMARK                            x       y       z     vdW  Elec       q    Type
REMARK                         _______ _______ _______ _____ _____    ______ ____
ROOT
ATOM      1  N   UNL     1       4.405   5.042  18.138  0.00  0.00    +0.000 N 
ATOM      2  C   UNL     1       5.767   4.872  18.338  0.00  0.00    +0.000 C 
ATOM      3  O   UNL     1       6.348   4.797  19.417  0.00  0.00    +0.000 OA
ATOM      4  H   UNL     1       4.103   4.846  17.191  0.00  0.00    +0.000 HD
ENDROOT
BRANCH   1   9
ATOM      5  C   UNL     1       2.057   7.246  19.951  0.00  0.00    +0.000 A 
ATOM      6  C   UNL     1       1.388   6.360  20.784  0.00  0.00    +0.000 A 
ATOM      7  C   UNL     1       1.712   5.005  20.778  0.00  0.00    +0.000 A 
ATOM      8  C   UNL     1       2.724   4.505  19.947  0.00  0.00    +0.000 A 
ATOM      9  C   UNL     1       3.375   5.381  19.054  0.00  0.00    +0.000 A 
ATOM     10  C   UNL     1       3.040   6.755  19.088  0.00  0.00    +0.000 A 
BRANCH   5  12
ATOM     11  C   UNL     1       0.762   8.853  21.141  0.00  0.00    +0.000 C 
ATOM     12  O   UNL     1       1.664   8.546  20.089  0.00  0.00    +0.000 OA
ENDBRANCH   5  12
BRANCH   8  13
ATOM     13  O   UNL     1       3.128   3.203  20.009  0.00  0.00    +0.000 OA
ATOM     14  C   UNL     1       2.162   2.200  19.726  0.00  0.00    +0.000 C 
ENDBRANCH   8  13
ENDBRANCH   1   9
BRANCH   2  15
ATOM     15  C   UNL     1       6.557   4.596  17.054  0.00  0.00    +0.000 C 
BRANCH  15  16
ATOM     16  S   UNL     1       5.568   3.748  15.781  0.00  0.00    +0.000 S 
BRANCH  16  17
ATOM     17  C   UNL     1       6.428   4.203  14.323  0.00  0.00    +0.000 A 
ATOM     18  C   UNL     1       5.939   3.479  13.134  0.00  0.00    +0.000 A 
ATOM     19  C   UNL     1       6.592   3.776  12.012  0.00  0.00    +0.000 A 
ATOM     20  N   UNL     1       7.606   4.687  12.035  0.00  0.00    +0.000 N 
ATOM     21  C   UNL     1       8.017   5.352  13.168  0.00  0.00    +0.000 A 
ATOM     22  O   UNL     1       8.932   6.164  13.080  0.00  0.00    +0.000 OA
ATOM     23  N   UNL     1       7.383   5.067  14.352  0.00  0.00    +0.000 NA
ATOM     24  H   UNL     1       8.111   4.933  11.192  0.00  0.00    +0.000 HD
ENDBRANCH  16  17
ENDBRANCH  15  16
ENDBRANCH   2  15
TORSDOF 6
ENDMDL
MODEL 2
REMARK VINA RESULT:      -6.9      5.751      7.265
REMARK  Name = 
REMARK  8 active torsions:
REMARK  status: ('A' for Active; 'I' for Inactive)
REMARK    1  A    between atoms: C_1  and  O_2
REMARK    2  A    between atoms: O_2  and  C_3
REMARK    3  A    between atoms: C_6  and  O_7
REMARK    4  A    between atoms: O_7  and  C_8
REMARK    5  A    between atoms: C_9  and  N_10
REMARK    6  A    between atoms: C_11  and  C_13
REMARK    7  A    between atoms: C_13  and  S_14
REMARK    8  A    between atoms: S_14  and  C_15
REMARK                            x       y       z     vdW  Elec       q    Type
REMARK                         _______ _______ _______ _____ _____    ______ ____
ROOT
ATOM      1  N   UNL     1       6.802   7.529  16.911  0.00  0.00    +0.000 N 
ATOM      2  C   UNL     1       7.740   7.959  17.838  0.00  0.00    +0.000 C 
ATOM      3  O   UNL     1       8.343   7.262  18.649  0.00  0.00    +0.000 OA
ATOM      4  H   UNL     1       6.599   8.211  16.189  0.00  0.00    +0.000 HD
ENDROOT
BRANCH   1   9
ATOM      5  C   UNL     1       4.372   4.869  17.729  0.00  0.00    +0.000 A 
ATOM      6  C   UNL     1       4.661   3.891  16.788  0.00  0.00    +0.000 A 
ATOM      7  C   UNL     1       5.686   4.082  15.864  0.00  0.00    +0.000 A 
ATOM      8  C   UNL     1       6.457   5.254  15.869  0.00  0.00    +0.000 A 
ATOM      9  C   UNL     1       6.139   6.280  16.781  0.00  0.00    +0.000 A 
ATOM     10  C   UNL     1       5.104   6.058  17.719  0.00  0.00    +0.000 A 
BRANCH   5  12
ATOM     11  C   UNL     1       3.251   5.285  19.791  0.00  0.00    +0.000 C 
ATOM     12  O   UNL     1       3.370   4.532  18.593  0.00  0.00    +0.000 OA
ENDBRANCH   5  12
BRANCH   8  13
ATOM     13  O   UNL     1       7.533   5.409  15.045  0.00  0.00    +0.000 OA
ATOM     14  C   UNL     1       7.410   4.948  13.706  0.00  0.00    +0.000 C 
ENDBRANCH   8  13
ENDBRANCH   1   9
BRANCH   2  15
ATOM     15  C   UNL     1       8.143   9.429  17.684  0.00  0.00    +0.000 C 
BRANCH  15  16
ATOM     16  S   UNL     1       9.176  10.029  19.059  0.00  0.00    +0.000 S 
BRANCH  16  17
ATOM     17  C   UNL     1       9.652  11.607  18.465  0.00  0.00    +0.000 A 
ATOM     18  C   UNL     1      10.972  11.583  17.804  0.00  0.00    +0.000 A 
ATOM     19  C   UNL     1      11.381  12.772  17.367  0.00  0.00    +0.000 A 
ATOM     20  N   UNL     1      10.592  13.870  17.541  0.00  0.00    +0.000 N 
ATOM     21  C   UNL     1       9.357  13.842  18.150  0.00  0.00    +0.000 A 
ATOM     22  O   UNL     1       8.719  14.884  18.246  0.00  0.00    +0.000 OA
ATOM     23  N   UNL     1       8.900  12.639  18.630  0.00  0.00    +0.000 NA
ATOM     24  H   UNL     1      10.880  14.783  17.211  0.00  0.00    +0.000 HD
ENDBRANCH  16  17
ENDBRANCH  15  16
ENDBRANCH   2  15
TORSDOF 6
ENDMDL
MODEL 3
REMARK VINA RESULT:      -6.9      2.813      6.939
REMARK  Name = 
REMARK  8 active torsions:
REMARK  status: ('A' for Active; 'I' for Inactive)
REMARK    1  A    between atoms: C_1  and  O_2
REMARK    2  A    between atoms: O_2  and  C_3
REMARK    3  A    between atoms: C_6  and  O_7
REMARK    4  A    between atoms: O_7  and  C_8
REMARK    5  A    between atoms: C_9  and  N_10
REMARK    6  A    between atoms: C_11  and  C_13
REMARK    7  A    between atoms: C_13  and  S_14
REMARK    8  A    between atoms: S_14  and  C_15
REMARK                            x       y       z     vdW  Elec       q    Type
REMARK                         _______ _______ _______ _____ _____    ______ ____
ROOT
ATOM      1  N   UNL     1       3.953   5.323  17.942  0.00  0.00    +0.000 N 
ATOM      2  C   UNL     1       3.417   6.554  18.285  0.00  0.00    +0.000 C 
ATOM      3  O   UNL     1       3.685   7.640  17.778  0.00  0.00    +0.000 OA
ATOM      4  H   UNL     1       3.437   4.534  18.313  0.00  0.00    +0.000 HD
ENDROOT
BRANCH   1   9
ATOM      5  C   UNL     1       5.714   4.407  14.825  0.00  0.00    +0.000 A 
ATOM      6  C   UNL     1       7.036   4.311  15.238  0.00  0.00    +0.000 A 
ATOM      7  C   UNL     1       7.376   4.532  16.570  0.00  0.00    +0.000 A 
ATOM      8  C   UNL     1       6.399   4.841  17.526  0.00  0.00    +0.000 A 
ATOM      9  C   UNL     1       5.060   4.998  17.114  0.00  0.00    +0.000 A 
ATOM     10  C   UNL     1       4.735   4.755  15.759  0.00  0.00    +0.000 A 
BRANCH   5  12
ATOM     11  C   UNL     1       6.656   3.752  12.736  0.00  0.00    +0.000 C 
ATOM     12  O   UNL     1       5.521   4.129  13.502  0.00  0.00    +0.000 OA
ENDBRANCH   5  12
BRANCH   8  13
ATOM     13  O   UNL     1       6.700   4.951  18.853  0.00  0.00    +0.000 OA
ATOM     14  C   UNL     1       7.743   5.845  19.219  0.00  0.00    +0.000 C 
ENDBRANCH   8  13
ENDBRANCH   1   9
BRANCH   2  15
ATOM     15  C   UNL     1       2.264   6.475  19.292  0.00  0.00    +0.000 C 
BRANCH  15  16
ATOM     16  S   UNL     1       2.576   5.285  20.635  0.00  0.00    +0.000 S 
BRANCH  16  17
ATOM     17  C   UNL     1       2.298   3.763  19.813  0.00  0.00    +0.000 A 
ATOM     18  C   UNL     1       0.866   3.518  19.553  0.00  0.00    +0.000 A 
ATOM     19  C   UNL     1       0.614   2.354  18.958  0.00  0.00    +0.000 A 
ATOM     20  N   UNL     1       1.641   1.518  18.636  0.00  0.00    +0.000 N 
ATOM     21  C   UNL     1       2.966   1.797  18.883  0.00  0.00    +0.000 A 
ATOM     22  O   UNL     1       3.818   0.982  18.543  0.00  0.00    +0.000 OA
ATOM     23  N   UNL     1       3.273   2.979  19.510  0.00  0.00    +0.000 NA
ATOM     24  H   UNL     1       1.473   0.631  18.176  0.00  0.00    +0.000 HD
ENDBRANCH  16  17
ENDBRANCH  15  16
ENDBRANCH   2  15
TORSDOF 6
ENDMDL
MODEL 4
REMARK VINA RESULT:      -6.9      5.698      7.221
REMARK  Name = 
REMARK  8 active torsions:
REMARK  status: ('A' for Active; 'I' for Inactive)
REMARK    1  A    between atoms: C_1  and  O_2
REMARK    2  A    between atoms: O_2  and  C_3
REMARK    3  A    between atoms: C_6  and  O_7
REMARK    4  A    between atoms: O_7  and  C_8
REMARK    5  A    between atoms: C_9  and  N_10
REMARK    6  A    between atoms: C_11  and  C_13
REMARK    7  A    between atoms: C_13  and  S_14
REMARK    8  A    between atoms: S_14  and  C_15
REMARK                            x       y       z     vdW  Elec       q    Type
REMARK                         _______ _______ _______ _____ _____    ______ ____
ROOT
ATOM      1  N   UNL     1       6.909   7.711  16.976  0.00  0.00    +0.000 N 
ATOM      2  C   UNL     1       7.869   7.999  17.934  0.00  0.00    +0.000 C 
ATOM      3  O   UNL     1       8.375   7.210  18.727  0.00  0.00    +0.000 OA
ATOM      4  H   UNL     1       6.796   8.436  16.278  0.00  0.00    +0.000 HD
ENDROOT
BRANCH   1   9
ATOM      5  C   UNL     1       4.130   5.354  17.594  0.00  0.00    +0.000 A 
ATOM      6  C   UNL     1       4.369   4.350  16.666  0.00  0.00    +0.000 A 
ATOM      7  C   UNL     1       5.472   4.421  15.819  0.00  0.00    +0.000 A 
ATOM      8  C   UNL     1       6.373   5.493  15.889  0.00  0.00    +0.000 A 
ATOM      9  C   UNL     1       6.114   6.549  16.787  0.00  0.00    +0.000 A 
ATOM     10  C   UNL     1       4.996   6.449  17.647  0.00  0.00    +0.000 A 
BRANCH   5  12
ATOM     11  C   UNL     1       3.077   5.623  19.715  0.00  0.00    +0.000 C 
ATOM     12  O   UNL     1       3.036   5.137  18.382  0.00  0.00    +0.000 OA
ENDBRANCH   5  12
BRANCH   8  13
ATOM     13  O   UNL     1       7.516   5.522  15.145  0.00  0.00    +0.000 OA
ATOM     14  C   UNL     1       7.463   4.972  13.835  0.00  0.00    +0.000 C 
ENDBRANCH   8  13
ENDBRANCH   1   9
BRANCH   2  15
ATOM     15  C   UNL     1       8.435   9.420  17.844  0.00  0.00    +0.000 C 
BRANCH  15  16
ATOM     16  S   UNL     1       9.057  10.038  19.440  0.00  0.00    +0.000 S 
BRANCH  16  17
ATOM     17  C   UNL     1      10.210  11.247  18.911  0.00  0.00    +0.000 A 
ATOM     18  C   UNL     1      11.130  11.656  19.990  0.00  0.00    +0.000 A 
ATOM     19  C   UNL     1      12.000  12.599  19.633  0.00  0.00    +0.000 A 
ATOM     20  N   UNL     1      11.990  13.087  18.360  0.00  0.00    +0.000 N 
ATOM     21  C   UNL     1      11.123  12.662  17.380  0.00  0.00    +0.000 A 
ATOM     22  O   UNL     1      11.204  13.156  16.260  0.00  0.00    +0.000 OA
ATOM     23  N   UNL     1      10.197  11.702  17.706  0.00  0.00    +0.000 NA
ATOM     24  H   UNL     1      12.648  13.798  18.065  0.00  0.00    +0.000 HD
ENDBRANCH  16  17
ENDBRANCH  15  16
ENDBRANCH   2  15
TORSDOF 6
ENDMDL
MODEL 5
REMARK VINA RESULT:      -6.9      3.439      4.833
REMARK  Name = 
REMARK  8 active torsions:
REMARK  status: ('A' for Active; 'I' for Inactive)
REMARK    1  A    between atoms: C_1  and  O_2
REMARK    2  A    between atoms: O_2  and  C_3
REMARK    3  A    between atoms: C_6  and  O_7
REMARK    4  A    between atoms: O_7  and  C_8
REMARK    5  A    between atoms: C_9  and  N_10
REMARK    6  A    between atoms: C_11  and  C_13
REMARK    7  A    between atoms: C_13  and  S_14
REMARK    8  A    between atoms: S_14  and  C_15
REMARK                            x       y       z     vdW  Elec       q    Type
REMARK                         _______ _______ _______ _____ _____    ______ ____
ROOT
ATOM      1  N   UNL     1       2.525   5.959  20.525  0.00  0.00    +0.000 N 
ATOM      2  C   UNL     1       1.745   4.840  20.771  0.00  0.00    +0.000 C 
ATOM      3  O   UNL     1       0.675   4.558  20.237  0.00  0.00    +0.000 OA
ATOM      4  H   UNL     1       3.467   5.889  20.890  0.00  0.00    +0.000 HD
ENDROOT
BRANCH   1   9
ATOM      5  C   UNL     1       1.028   9.279  19.897  0.00  0.00    +0.000 A 
ATOM      6  C   UNL     1       1.468   9.574  18.614  0.00  0.00    +0.000 A 
ATOM      7  C   UNL     1       2.261   8.668  17.914  0.00  0.00    +0.000 A 
ATOM      8  C   UNL     1       2.624   7.437  18.478  0.00  0.00    +0.000 A 
ATOM      9  C   UNL     1       2.233   7.145  19.800  0.00  0.00    +0.000 A 
ATOM     10  C   UNL     1       1.415   8.074  20.486  0.00  0.00    +0.000 A 
BRANCH   5  12
ATOM     11  C   UNL     1      -0.254  10.020  21.764  0.00  0.00    +0.000 C 
ATOM     12  O   UNL     1       0.229  10.240  20.447  0.00  0.00    +0.000 OA
ENDBRANCH   5  12
BRANCH   8  13
ATOM     13  O   UNL     1       3.306   6.494  17.766  0.00  0.00    +0.000 OA
ATOM     14  C   UNL     1       4.409   6.930  16.982  0.00  0.00    +0.000 C 
ENDBRANCH   8  13
ENDBRANCH   1   9
BRANCH   2  15
ATOM     15  C   UNL     1       2.406   3.805  21.688  0.00  0.00    +0.000 C 
BRANCH  15  16
ATOM     16  S   UNL     1       2.888   2.284  20.810  0.00  0.00    +0.000 S 
BRANCH  16  17
ATOM     17  C   UNL     1       3.869   2.936  19.513  0.00  0.00    +0.000 A 
ATOM     18  C   UNL     1       3.324   2.612  18.180  0.00  0.00    +0.000 A 
ATOM     19  C   UNL     1       4.062   3.065  17.168  0.00  0.00    +0.000 A 
ATOM     20  N   UNL     1       5.203   3.768  17.418  0.00  0.00    +0.000 N 
ATOM     21  C   UNL     1       5.664   4.062  18.682  0.00  0.00    +0.000 A 
ATOM     22  O   UNL     1       6.697   4.713  18.800  0.00  0.00    +0.000 OA
ATOM     23  N   UNL     1       4.944   3.602  19.757  0.00  0.00    +0.000 NA
ATOM     24  H   UNL     1       5.775   4.128  16.664  0.00  0.00    +0.000 HD
ENDBRANCH  16  17
ENDBRANCH  15  16
ENDBRANCH   2  15
TORSDOF 6
ENDMDL
MODEL 6
REMARK VINA RESULT:      -6.8      5.639      7.255
REMARK  Name = 
REMARK  8 active torsions:
REMARK  status: ('A' for Active; 'I' for Inactive)
REMARK    1  A    between atoms: C_1  and  O_2
REMARK    2  A    between atoms: O_2  and  C_3
REMARK    3  A    between atoms: C_6  and  O_7
REMARK    4  A    between atoms: O_7  and  C_8
REMARK    5  A    between atoms: C_9  and  N_10
REMARK    6  A    between atoms: C_11  and  C_13
REMARK    7  A    between atoms: C_13  and  S_14
REMARK    8  A    between atoms: S_14  and  C_15
REMARK                            x       y       z     vdW  Elec       q    Type
REMARK                         _______ _______ _______ _____ _____    ______ ____
ROOT
ATOM      1  N   UNL     1       6.787   7.595  16.932  0.00  0.00    +0.000 N 
ATOM      2  C   UNL     1       7.749   7.979  17.853  0.00  0.00    +0.000 C 
ATOM      3  O   UNL     1       8.346   7.249  18.640  0.00  0.00    +0.000 OA
ATOM      4  H   UNL     1       6.590   8.296  16.229  0.00  0.00    +0.000 HD
ENDROOT
BRANCH   1   9
ATOM      5  C   UNL     1       4.271   5.001  17.708  0.00  0.00    +0.000 A 
ATOM      6  C   UNL     1       4.541   4.022  16.762  0.00  0.00    +0.000 A 
ATOM      7  C   UNL     1       5.579   4.189  15.849  0.00  0.00    +0.000 A 
ATOM      8  C   UNL     1       6.384   5.338  15.870  0.00  0.00    +0.000 A 
ATOM      9  C   UNL     1       6.088   6.366  16.787  0.00  0.00    +0.000 A 
ATOM     10  C   UNL     1       5.038   6.168  17.714  0.00  0.00    +0.000 A 
BRANCH   5  12
ATOM     11  C   UNL     1       3.418   3.552  19.396  0.00  0.00    +0.000 C 
ATOM     12  O   UNL     1       3.252   4.687  18.560  0.00  0.00    +0.000 OA
ENDBRANCH   5  12
BRANCH   8  13
ATOM     13  O   UNL     1       7.472   5.468  15.057  0.00  0.00    +0.000 OA
ATOM     14  C   UNL     1       7.395   4.898  13.757  0.00  0.00    +0.000 C 
ENDBRANCH   8  13
ENDBRANCH   1   9
BRANCH   2  15
ATOM     15  C   UNL     1       8.189   9.441  17.724  0.00  0.00    +0.000 C 
BRANCH  15  16
ATOM     16  S   UNL     1       9.244   9.989  19.105  0.00  0.00    +0.000 S 
BRANCH  16  17
ATOM     17  C   UNL     1       9.738  11.575  18.547  0.00  0.00    +0.000 A 
ATOM     18  C   UNL     1       9.002  12.662  19.222  0.00  0.00    +0.000 A 
ATOM     19  C   UNL     1       9.329  13.882  18.800  0.00  0.00    +0.000 A 
ATOM     20  N   UNL     1      10.277  14.036  17.833  0.00  0.00    +0.000 N 
ATOM     21  C   UNL     1      10.951  12.991  17.243  0.00  0.00    +0.000 A 
ATOM     22  O   UNL     1      11.797  13.238  16.389  0.00  0.00    +0.000 OA
ATOM     23  N   UNL     1      10.636  11.713  17.635  0.00  0.00    +0.000 NA
ATOM     24  H   UNL     1      10.546  14.955  17.503  0.00  0.00    +0.000 HD
ENDBRANCH  16  17
ENDBRANCH  15  16
ENDBRANCH   2  15
TORSDOF 6
ENDMDL
MODEL 7
REMARK VINA RESULT:      -6.8      2.847      4.438
REMARK  Name = 
REMARK  8 active torsions:
REMARK  status: ('A' for Active; 'I' for Inactive)
REMARK    1  A    between atoms: C_1  and  O_2
REMARK    2  A    between atoms: O_2  and  C_3
REMARK    3  A    between atoms: C_6  and  O_7
REMARK    4  A    between atoms: O_7  and  C_8
REMARK    5  A    between atoms: C_9  and  N_10
REMARK    6  A    between atoms: C_11  and  C_13
REMARK    7  A    between atoms: C_13  and  S_14
REMARK    8  A    between atoms: S_14  and  C_15
REMARK                            x       y       z     vdW  Elec       q    Type
REMARK                         _______ _______ _______ _____ _____    ______ ____
ROOT
ATOM      1  N   UNL     1       3.703   5.306  17.253  0.00  0.00    +0.000 N 
ATOM      2  C   UNL     1       4.421   4.216  16.784  0.00  0.00    +0.000 C 
ATOM      3  O   UNL     1       4.370   3.065  17.210  0.00  0.00    +0.000 OA
ATOM      4  H   UNL     1       3.713   6.102  16.626  0.00  0.00    +0.000 HD
ENDROOT
BRANCH   1   9
ATOM      5  C   UNL     1       1.563   4.244  20.072  0.00  0.00    +0.000 A 
ATOM      6  C   UNL     1       1.301   5.441  20.724  0.00  0.00    +0.000 A 
ATOM      7  C   UNL     1       1.815   6.638  20.234  0.00  0.00    +0.000 A 
ATOM      8  C   UNL     1       2.595   6.669  19.068  0.00  0.00    +0.000 A 
ATOM      9  C   UNL     1       2.918   5.457  18.426  0.00  0.00    +0.000 A 
ATOM     10  C   UNL     1       2.373   4.254  18.934  0.00  0.00    +0.000 A 
BRANCH   5  12
ATOM     11  C   UNL     1       1.548   2.628  21.824  0.00  0.00    +0.000 C 
ATOM     12  O   UNL     1       0.966   3.156  20.642  0.00  0.00    +0.000 OA
ENDBRANCH   5  12
BRANCH   8  13
ATOM     13  O   UNL     1       3.013   7.844  18.514  0.00  0.00    +0.000 OA
ATOM     14  C   UNL     1       2.041   8.639  17.846  0.00  0.00    +0.000 C 
ENDBRANCH   8  13
ENDBRANCH   1   9
BRANCH   2  15
ATOM     15  C   UNL     1       5.220   4.495  15.507  0.00  0.00    +0.000 C 
BRANCH  15  16
ATOM     16  S   UNL     1       7.006   4.197  15.709  0.00  0.00    +0.000 S 
BRANCH  16  17
ATOM     17  C   UNL     1       7.366   5.208  17.094  0.00  0.00    +0.000 A 
ATOM     18  C   UNL     1       7.386   6.643  16.752  0.00  0.00    +0.000 A 
ATOM     19  C   UNL     1       7.689   7.440  17.774  0.00  0.00    +0.000 A 
ATOM     20  N   UNL     1       7.936   6.906  19.004  0.00  0.00    +0.000 N 
ATOM     21  C   UNL     1       7.889   5.558  19.281  0.00  0.00    +0.000 A 
ATOM     22  O   UNL     1       8.115   5.180  20.425  0.00  0.00    +0.000 OA
ATOM     23  N   UNL     1       7.596   4.696  18.253  0.00  0.00    +0.000 NA
ATOM     24  H   UNL     1       8.161   7.494  19.797  0.00  0.00    +0.000 HD
ENDBRANCH  16  17
ENDBRANCH  15  16
ENDBRANCH   2  15
TORSDOF 6
ENDMDL
MODEL 8
REMARK VINA RESULT:      -6.8      2.981      3.728
REMARK  Name = 
REMARK  8 active torsions:
REMARK  status: ('A' for Active; 'I' for Inactive)
REMARK    1  A    between atoms: C_1  and  O_2
REMARK    2  A    between atoms: O_2  and  C_3
REMARK    3  A    between atoms: C_6  and  O_7
REMARK    4  A    between atoms: O_7  and  C_8
REMARK    5  A    between atoms: C_9  and  N_10
REMARK    6  A    between atoms: C_11  and  C_13
REMARK    7  A    between atoms: C_13  and  S_14
REMARK    8  A    between atoms: S_14  and  C_15
REMARK                            x       y       z     vdW  Elec       q    Type
REMARK                         _______ _______ _______ _____ _____    ______ ____
ROOT
ATOM      1  N   UNL     1       3.725   5.946  18.168  0.00  0.00    +0.000 N 
ATOM      2  C   UNL     1       3.501   4.711  17.580  0.00  0.00    +0.000 C 
ATOM      3  O   UNL     1       2.411   4.185  17.368  0.00  0.00    +0.000 OA
ATOM      4  H   UNL     1       4.667   6.295  18.041  0.00  0.00    +0.000 HD
ENDROOT
BRANCH   1   9
ATOM      5  C   UNL     1       1.748   9.010  18.768  0.00  0.00    +0.000 A 
ATOM      6  C   UNL     1       1.138   8.746  19.986  0.00  0.00    +0.000 A 
ATOM      7  C   UNL     1       1.381   7.548  20.652  0.00  0.00    +0.000 A 
ATOM      8  C   UNL     1       2.253   6.587  20.119  0.00  0.00    +0.000 A 
ATOM      9  C   UNL     1       2.837   6.814  18.857  0.00  0.00    +0.000 A 
ATOM     10  C   UNL     1       2.587   8.045  18.206  0.00  0.00    +0.000 A 
BRANCH   5  12
ATOM     11  C   UNL     1       1.035  11.252  19.151  0.00  0.00    +0.000 C 
ATOM     12  O   UNL     1       1.449  10.237  18.248  0.00  0.00    +0.000 OA
ENDBRANCH   5  12
BRANCH   8  13
ATOM     13  O   UNL     1       2.587   5.458  20.809  0.00  0.00    +0.000 OA
ATOM     14  C   UNL     1       1.631   4.408  20.857  0.00  0.00    +0.000 C 
ENDBRANCH   8  13
ENDBRANCH   1   9
BRANCH   2  15
ATOM     15  C   UNL     1       4.762   4.050  17.013  0.00  0.00    +0.000 C 
BRANCH  15  16
ATOM     16  S   UNL     1       5.696   5.145  15.897  0.00  0.00    +0.000 S 
BRANCH  16  17
ATOM     17  C   UNL     1       6.736   5.981  17.033  0.00  0.00    +0.000 A 
ATOM     18  C   UNL     1       7.211   5.097  18.116  0.00  0.00    +0.000 A 
ATOM     19  C   UNL     1       7.979   5.707  19.016  0.00  0.00    +0.000 A 
ATOM     20  N   UNL     1       8.268   7.033  18.879  0.00  0.00    +0.000 N 
ATOM     21  C   UNL     1       7.815   7.815  17.841  0.00  0.00    +0.000 A 
ATOM     22  O   UNL     1       8.142   8.996  17.802  0.00  0.00    +0.000 OA
ATOM     23  N   UNL     1       7.007   7.233  16.896  0.00  0.00    +0.000 NA
ATOM     24  H   UNL     1       8.855   7.515  19.548  0.00  0.00    +0.000 HD
ENDBRANCH  16  17
ENDBRANCH  15  16
ENDBRANCH   2  15
TORSDOF 6
ENDMDL
MODEL 9
REMARK VINA RESULT:      -6.8      2.944      6.751
REMARK  Name = 
REMARK  8 active torsions:
REMARK  status: ('A' for Active; 'I' for Inactive)
REMARK    1  A    between atoms: C_1  and  O_2
REMARK    2  A    between atoms: O_2  and  C_3
REMARK    3  A    between atoms: C_6  and  O_7
REMARK    4  A    between atoms: O_7  and  C_8
REMARK    5  A    between atoms: C_9  and  N_10
REMARK    6  A    between atoms: C_11  and  C_13
REMARK    7  A    between atoms: C_13  and  S_14
REMARK    8  A    between atoms: S_14  and  C_15
REMARK                            x       y       z     vdW  Elec       q    Type
REMARK                         _______ _______ _______ _____ _____    ______ ____
ROOT
ATOM      1  N   UNL     1       4.352   5.492  18.534  0.00  0.00    +0.000 N 
ATOM      2  C   UNL     1       3.215   6.273  18.682  0.00  0.00    +0.000 C 
ATOM      3  O   UNL     1       2.652   6.924  17.806  0.00  0.00    +0.000 OA
ATOM      4  H   UNL     1       4.518   4.861  19.309  0.00  0.00    +0.000 HD
ENDROOT
BRANCH   1   9
ATOM      5  C   UNL     1       5.548   4.584  15.158  0.00  0.00    +0.000 A 
ATOM      6  C   UNL     1       6.858   5.041  15.165  0.00  0.00    +0.000 A 
ATOM      7  C   UNL     1       7.387   5.648  16.301  0.00  0.00    +0.000 A 
ATOM      8  C   UNL     1       6.620   5.803  17.464  0.00  0.00    +0.000 A 
ATOM      9  C   UNL     1       5.270   5.396  17.455  0.00  0.00    +0.000 A 
ATOM     10  C   UNL     1       4.759   4.768  16.296  0.00  0.00    +0.000 A 
BRANCH   5  12
ATOM     11  C   UNL     1       6.197   3.653  13.062  0.00  0.00    +0.000 C 
ATOM     12  O   UNL     1       5.175   3.977  13.993  0.00  0.00    +0.000 OA
ENDBRANCH   5  12
BRANCH   8  13
ATOM     13  O   UNL     1       7.155   6.294  18.619  0.00  0.00    +0.000 OA
ATOM     14  C   UNL     1       8.150   7.304  18.506  0.00  0.00    +0.000 C 
ENDBRANCH   8  13
ENDBRANCH   1   9
BRANCH   2  15
ATOM     15  C   UNL     1       2.546   6.149  20.055  0.00  0.00    +0.000 C 
BRANCH  15  16
ATOM     16  S   UNL     1       1.436   4.710  20.175  0.00  0.00    +0.000 S 
BRANCH  16  17
ATOM     17  C   UNL     1       2.495   3.418  19.645  0.00  0.00    +0.000 A 
ATOM     18  C   UNL     1       2.072   2.839  18.355  0.00  0.00    +0.000 A 
ATOM     19  C   UNL     1       2.836   1.831  17.937  0.00  0.00    +0.000 A 
ATOM     20  N   UNL     1       3.905   1.432  18.683  0.00  0.00    +0.000 N 
ATOM     21  C   UNL     1       4.272   2.015  19.875  0.00  0.00    +0.000 A 
ATOM     22  O   UNL     1       5.260   1.590  20.464  0.00  0.00    +0.000 OA
ATOM     23  N   UNL     1       3.504   3.048  20.354  0.00  0.00    +0.000 NA
ATOM     24  H   UNL     1       4.503   0.674  18.380  0.00  0.00    +0.000 HD
ENDBRANCH  16  17
ENDBRANCH  15  16
ENDBRANCH   2  15
TORSDOF 6
ENDMDL
