MODEL 1
REMARK VINA RESULT:      -7.4      0.000      0.000
REMARK  Name = 
REMARK  8 active torsions:
REMARK  status: ('A' for Active; 'I' for Inactive)
REMARK    1  A    between atoms: C_1  and  C_2
REMARK    2  A    between atoms: N_4  and  C_5
REMARK    3  A    between atoms: C_8  and  N_9
REMARK    4  A    between atoms: N_12  and  C_13
REMARK    5  A    between atoms: C_13  and  C_14
REMARK    6  A    between atoms: C_14  and  C_15
REMARK    7  A    between atoms: C_15  and  C_16
REMARK    8  A    between atoms: C_16  and  N_17
REMARK                            x       y       z     vdW  Elec       q    Type
REMARK                         _______ _______ _______ _____ _____    ______ ____
ROOT
ATOM      1  N   UNL     1       1.756   8.979  19.860  0.00  0.00    +0.000 N 
ATOM      2  C   UNL     1       2.181   7.645  20.297  0.00  0.00    +0.000 C 
ATOM      3  C   UNL     1       1.888   6.593  19.209  0.00  0.00    +0.000 C 
ATOM      4  N   UNL     1       2.466   6.925  17.884  0.00  0.00    +0.000 NA
ATOM      5  C   UNL     1       1.901   8.238  17.480  0.00  0.00    +0.000 C 
ATOM      6  C   UNL     1       2.132   9.388  18.493  0.00  0.00    +0.000 C 
ENDROOT
BRANCH   1  10
ATOM      7  C   UNL     1      -1.170  11.131  22.008  0.00  0.00    +0.000 A 
ATOM      8  C   UNL     1      -0.432  10.119  22.614  0.00  0.00    +0.000 A 
ATOM      9  C   UNL     1       0.533   9.416  21.890  0.00  0.00    +0.000 A 
ATOM     10  C   UNL     1       0.792   9.692  20.544  0.00  0.00    +0.000 A 
ATOM     11  C   UNL     1       0.028  10.699  19.941  0.00  0.00    +0.000 A 
ATOM     12  C   UNL     1      -0.947  11.405  20.657  0.00  0.00    +0.000 A 
BRANCH   7  16
ATOM     13  C   UNL     1      -3.159  13.539  24.107  0.00  0.00    +0.000 C 
ATOM     14  C   UNL     1      -1.913  13.025  23.438  0.00  0.00    +0.000 C 
ATOM     15  O   UNL     1      -0.842  13.603  23.590  0.00  0.00    +0.000 OA
ATOM     16  N   UNL     1      -2.145  11.886  22.687  0.00  0.00    +0.000 N 
ATOM     17  H   UNL     1      -3.109  11.618  22.535  0.00  0.00    +0.000 HD
ENDBRANCH   7  16
ENDBRANCH   1  10
BRANCH   4  18
ATOM     18  C   UNL     1       3.937   6.978  17.907  0.00  0.00    +0.000 C 
BRANCH  18  19
ATOM     19  C   UNL     1       4.591   6.436  16.625  0.00  0.00    +0.000 C 
BRANCH  19  20
ATOM     20  C   UNL     1       5.632   5.342  16.873  0.00  0.00    +0.000 C 
BRANCH  20  21
ATOM     21  C   UNL     1       5.035   3.949  16.683  0.00  0.00    +0.000 C 
BRANCH  21  22
ATOM     22  N   UNL     1       4.106   3.596  17.730  0.00  0.00    +0.000 N 
ATOM     23  C   UNL     1       4.477   3.472  19.038  0.00  0.00    +0.000 C 
ATOM     24  O   UNL     1       5.574   3.581  19.552  0.00  0.00    +0.000 OA
ATOM     25  C   UNL     1       3.260   3.192  19.787  0.00  0.00    +0.000 A 
ATOM     26  C   UNL     1       3.078   3.025  21.144  0.00  0.00    +0.000 A 
ATOM     27  C   UNL     1       1.777   2.780  21.582  0.00  0.00    +0.000 A 
ATOM     28  C   UNL     1       0.706   2.708  20.665  0.00  0.00    +0.000 A 
ATOM     29  C   UNL     1       0.917   2.889  19.293  0.00  0.00    +0.000 A 
ATOM     30  C   UNL     1       2.211   3.133  18.884  0.00  0.00    +0.000 A 
ATOM     31  C   UNL     1       2.765   3.399  17.553  0.00  0.00    +0.000 C 
ATOM     32  O   UNL     1       2.107   3.443  16.533  0.00  0.00    +0.000 OA
ENDBRANCH  21  22
ENDBRANCH  20  21
ENDBRANCH  19  20
ENDBRANCH  18  19
ENDBRANCH   4  18
TORSDOF 7
ENDMDL
MODEL 2
REMARK VINA RESULT:      -7.1      2.823      9.970
REMARK  Name = 
REMARK  8 active torsions:
REMARK  status: ('A' for Active; 'I' for Inactive)
REMARK    1  A    between atoms: C_1  and  C_2
REMARK    2  A    between atoms: N_4  and  C_5
REMARK    3  A    between atoms: C_8  and  N_9
REMARK    4  A    between atoms: N_12  and  C_13
REMARK    5  A    between atoms: C_13  and  C_14
REMARK    6  A    between atoms: C_14  and  C_15
REMARK    7  A    between atoms: C_15  and  C_16
REMARK    8  A    between atoms: C_16  and  N_17
REMARK                            x       y       z     vdW  Elec       q    Type
REMARK                         _______ _______ _______ _____ _____    ______ ____
ROOT
ATOM      1  N   UNL     1       1.220   8.470  20.040  0.00  0.00    +0.000 N 
ATOM      2  C   UNL     1       1.032   8.159  21.461  0.00  0.00    +0.000 C 
ATOM      3  C   UNL     1       1.384   9.376  22.339  0.00  0.00    +0.000 C 
ATOM      4  N   UNL     1       0.656  10.613  21.966  0.00  0.00    +0.000 NA
ATOM      5  C   UNL     1       0.989  10.903  20.548  0.00  0.00    +0.000 C 
ATOM      6  C   UNL     1       0.677   9.753  19.556  0.00  0.00    +0.000 C 
ENDROOT
BRANCH   1  10
ATOM      7  C   UNL     1       3.974   6.294  17.697  0.00  0.00    +0.000 A 
ATOM      8  C   UNL     1       3.527   5.805  18.921  0.00  0.00    +0.000 A 
ATOM      9  C   UNL     1       2.614   6.537  19.685  0.00  0.00    +0.000 A 
ATOM     10  C   UNL     1       2.123   7.775  19.260  0.00  0.00    +0.000 A 
ATOM     11  C   UNL     1       2.597   8.264  18.037  0.00  0.00    +0.000 A 
ATOM     12  C   UNL     1       3.518   7.541  17.267  0.00  0.00    +0.000 A 
BRANCH   7  16
ATOM     13  C   UNL     1       6.821   5.082  15.556  0.00  0.00    +0.000 C 
ATOM     14  C   UNL     1       6.149   6.019  16.522  0.00  0.00    +0.000 C 
ATOM     15  O   UNL     1       6.724   7.031  16.909  0.00  0.00    +0.000 OA
ATOM     16  N   UNL     1       4.879   5.597  16.874  0.00  0.00    +0.000 N 
ATOM     17  H   UNL     1       4.604   4.664  16.592  0.00  0.00    +0.000 HD
ENDBRANCH   7  16
ENDBRANCH   1  10
BRANCH   4  18
ATOM     18  C   UNL     1      -0.800  10.487  22.143  0.00  0.00    +0.000 C 
BRANCH  18  19
ATOM     19  C   UNL     1      -1.402  11.558  23.067  0.00  0.00    +0.000 C 
BRANCH  19  20
ATOM     20  C   UNL     1      -1.018  12.992  22.692  0.00  0.00    +0.000 C 
BRANCH  20  21
ATOM     21  C   UNL     1      -2.254  13.856  22.454  0.00  0.00    +0.000 C 
BRANCH  21  22
ATOM     22  N   UNL     1      -3.212  13.225  21.578  0.00  0.00    +0.000 N 
ATOM     23  C   UNL     1      -4.486  12.923  21.966  0.00  0.00    +0.000 C 
ATOM     24  O   UNL     1      -5.027  13.069  23.045  0.00  0.00    +0.000 OA
ATOM     25  C   UNL     1      -5.156  12.381  20.793  0.00  0.00    +0.000 A 
ATOM     26  C   UNL     1      -6.462  11.965  20.638  0.00  0.00    +0.000 A 
ATOM     27  C   UNL     1      -6.832  11.501  19.376  0.00  0.00    +0.000 A 
ATOM     28  C   UNL     1      -5.899  11.463  18.317  0.00  0.00    +0.000 A 
ATOM     29  C   UNL     1      -4.582  11.899  18.499  0.00  0.00    +0.000 A 
ATOM     30  C   UNL     1      -4.241  12.357  19.754  0.00  0.00    +0.000 A 
ATOM     31  C   UNL     1      -2.983  12.908  20.267  0.00  0.00    +0.000 C 
ATOM     32  O   UNL     1      -1.974  13.049  19.605  0.00  0.00    +0.000 OA
ENDBRANCH  21  22
ENDBRANCH  20  21
ENDBRANCH  19  20
ENDBRANCH  18  19
ENDBRANCH   4  18
TORSDOF 7
ENDMDL
MODEL 3
REMARK VINA RESULT:      -7.1      2.537     10.376
REMARK  Name = 
REMARK  8 active torsions:
REMARK  status: ('A' for Active; 'I' for Inactive)
REMARK    1  A    between atoms: C_1  and  C_2
REMARK    2  A    between atoms: N_4  and  C_5
REMARK    3  A    between atoms: C_8  and  N_9
REMARK    4  A    between atoms: N_12  and  C_13
REMARK    5  A    between atoms: C_13  and  C_14
REMARK    6  A    between atoms: C_14  and  C_15
REMARK    7  A    between atoms: C_15  and  C_16
REMARK    8  A    between atoms: C_16  and  N_17
REMARK                            x       y       z     vdW  Elec       q    Type
REMARK                         _______ _______ _______ _____ _____    ______ ____
ROOT
ATOM      1  N   UNL     1       4.167   6.011  17.904  0.00  0.00    +0.000 N 
ATOM      2  C   UNL     1       3.305   7.186  17.731  0.00  0.00    +0.000 C 
ATOM      3  C   UNL     1       1.876   6.894  18.229  0.00  0.00    +0.000 C 
ATOM      4  N   UNL     1       1.818   6.396  19.625  0.00  0.00    +0.000 NA
ATOM      5  C   UNL     1       2.632   5.155  19.677  0.00  0.00    +0.000 C 
ATOM      6  C   UNL     1       4.099   5.315  19.203  0.00  0.00    +0.000 C 
ENDROOT
BRANCH   1  10
ATOM      7  C   UNL     1       6.019   4.168  14.591  0.00  0.00    +0.000 A 
ATOM      8  C   UNL     1       5.859   5.549  14.649  0.00  0.00    +0.000 A 
ATOM      9  C   UNL     1       5.244   6.144  15.753  0.00  0.00    +0.000 A 
ATOM     10  C   UNL     1       4.767   5.388  16.828  0.00  0.00    +0.000 A 
ATOM     11  C   UNL     1       4.917   3.999  16.747  0.00  0.00    +0.000 A 
ATOM     12  C   UNL     1       5.526   3.391  15.641  0.00  0.00    +0.000 A 
BRANCH   7  16
ATOM     13  C   UNL     1       6.971   2.393  11.412  0.00  0.00    +0.000 C 
ATOM     14  C   UNL     1       6.049   3.169  12.313  0.00  0.00    +0.000 C 
ATOM     15  O   UNL     1       4.906   3.432  11.956  0.00  0.00    +0.000 OA
ATOM     16  N   UNL     1       6.645   3.510  13.515  0.00  0.00    +0.000 N 
ATOM     17  H   UNL     1       7.642   3.355  13.600  0.00  0.00    +0.000 HD
ENDBRANCH   7  16
ENDBRANCH   1  10
BRANCH   4  18
ATOM     18  C   UNL     1       2.314   7.383  20.598  0.00  0.00    +0.000 C 
BRANCH  18  19
ATOM     19  C   UNL     1       1.202   8.246  21.218  0.00  0.00    +0.000 C 
BRANCH  19  20
ATOM     20  C   UNL     1       0.676   9.344  20.291  0.00  0.00    +0.000 C 
BRANCH  20  21
ATOM     21  C   UNL     1       0.918  10.733  20.877  0.00  0.00    +0.000 C 
BRANCH  21  22
ATOM     22  N   UNL     1      -0.298  11.360  21.337  0.00  0.00    +0.000 N 
ATOM     23  C   UNL     1      -1.074  12.148  20.536  0.00  0.00    +0.000 C 
ATOM     24  O   UNL     1      -0.905  12.493  19.383  0.00  0.00    +0.000 OA
ATOM     25  C   UNL     1      -2.239  12.519  21.328  0.00  0.00    +0.000 A 
ATOM     26  C   UNL     1      -3.343  13.266  20.975  0.00  0.00    +0.000 A 
ATOM     27  C   UNL     1      -4.323  13.446  21.951  0.00  0.00    +0.000 A 
ATOM     28  C   UNL     1      -4.175  12.884  23.237  0.00  0.00    +0.000 A 
ATOM     29  C   UNL     1      -3.048  12.122  23.567  0.00  0.00    +0.000 A 
ATOM     30  C   UNL     1      -2.094  11.956  22.585  0.00  0.00    +0.000 A 
ATOM     31  C   UNL     1      -0.836  11.203  22.585  0.00  0.00    +0.000 C 
ATOM     32  O   UNL     1      -0.417  10.567  23.531  0.00  0.00    +0.000 OA
ENDBRANCH  21  22
ENDBRANCH  20  21
ENDBRANCH  19  20
ENDBRANCH  18  19
ENDBRANCH   4  18
TORSDOF 7
ENDMDL
MODEL 4
REMARK VINA RESULT:      -7.1      0.243      1.590
REMARK  Name = 
REMARK  8 active torsions:
REMARK  status: ('A' for Active; 'I' for Inactive)
REMARK    1  A    between atoms: C_1  and  C_2
REMARK    2  A    between atoms: N_4  and  C_5
REMARK    3  A    between atoms: C_8  and  N_9
REMARK    4  A    between atoms: N_12  and  C_13
REMARK    5  A    between atoms: C_13  and  C_14
REMARK    6  A    between atoms: C_14  and  C_15
REMARK    7  A    between atoms: C_15  and  C_16
REMARK    8  A    between atoms: C_16  and  N_17
REMARK                            x       y       z     vdW  Elec       q    Type
REMARK                         _______ _______ _______ _____ _____    ______ ____
ROOT
ATOM      1  N   UNL     1       1.682   9.199  19.881  0.00  0.00    +0.000 N 
ATOM      2  C   UNL     1       2.180   7.899  20.341  0.00  0.00    +0.000 C 
ATOM      3  C   UNL     1       1.882   6.800  19.303  0.00  0.00    +0.000 C 
ATOM      4  N   UNL     1       2.386   7.109  17.942  0.00  0.00    +0.000 NA
ATOM      5  C   UNL     1       1.749   8.384  17.522  0.00  0.00    +0.000 C 
ATOM      6  C   UNL     1       1.978   9.576  18.485  0.00  0.00    +0.000 C 
ENDROOT
BRANCH   1  10
ATOM      7  C   UNL     1      -1.232  11.305  22.091  0.00  0.00    +0.000 A 
ATOM      8  C   UNL     1      -0.446  10.325  22.688  0.00  0.00    +0.000 A 
ATOM      9  C   UNL     1       0.515   9.636  21.943  0.00  0.00    +0.000 A 
ATOM     10  C   UNL     1       0.721   9.897  20.585  0.00  0.00    +0.000 A 
ATOM     11  C   UNL     1      -0.091  10.872  19.993  0.00  0.00    +0.000 A 
ATOM     12  C   UNL     1      -1.062  11.563  20.729  0.00  0.00    +0.000 A 
BRANCH   7  16
ATOM     13  C   UNL     1      -3.228  13.743  24.147  0.00  0.00    +0.000 C 
ATOM     14  C   UNL     1      -2.007  13.266  23.410  0.00  0.00    +0.000 C 
ATOM     15  O   UNL     1      -0.981  13.939  23.405  0.00  0.00    +0.000 OA
ATOM     16  N   UNL     1      -2.204  12.045  22.791  0.00  0.00    +0.000 N 
ATOM     17  H   UNL     1      -3.151  11.688  22.757  0.00  0.00    +0.000 HD
ENDBRANCH   7  16
ENDBRANCH   1  10
BRANCH   4  18
ATOM     18  C   UNL     1       3.852   7.221  17.894  0.00  0.00    +0.000 C 
BRANCH  18  19
ATOM     19  C   UNL     1       4.466   6.708  16.581  0.00  0.00    +0.000 C 
BRANCH  19  20
ATOM     20  C   UNL     1       5.535   5.631  16.772  0.00  0.00    +0.000 C 
BRANCH  20  21
ATOM     21  C   UNL     1       4.943   4.228  16.646  0.00  0.00    +0.000 C 
BRANCH  21  22
ATOM     22  N   UNL     1       4.084   3.887  17.754  0.00  0.00    +0.000 N 
ATOM     23  C   UNL     1       2.763   3.578  17.600  0.00  0.00    +0.000 C 
ATOM     24  O   UNL     1       2.077   3.565  16.596  0.00  0.00    +0.000 OA
ATOM     25  C   UNL     1       2.268   3.216  18.920  0.00  0.00    +0.000 A 
ATOM     26  C   UNL     1       1.016   2.782  19.304  0.00  0.00    +0.000 A 
ATOM     27  C   UNL     1       0.836   2.489  20.656  0.00  0.00    +0.000 A 
ATOM     28  C   UNL     1       1.896   2.636  21.576  0.00  0.00    +0.000 A 
ATOM     29  C   UNL     1       3.159   3.070  21.158  0.00  0.00    +0.000 A 
ATOM     30  C   UNL     1       3.315   3.351  19.818  0.00  0.00    +0.000 A 
ATOM     31  C   UNL     1       4.490   3.783  19.056  0.00  0.00    +0.000 C 
ATOM     32  O   UNL     1       5.588   3.975  19.539  0.00  0.00    +0.000 OA
ENDBRANCH  21  22
ENDBRANCH  20  21
ENDBRANCH  19  20
ENDBRANCH  18  19
ENDBRANCH   4  18
TORSDOF 7
ENDMDL
MODEL 5
REMARK VINA RESULT:      -7.0      2.531      4.279
REMARK  Name = 
REMARK  8 active torsions:
REMARK  status: ('A' for Active; 'I' for Inactive)
REMARK    1  A    between atoms: C_1  and  C_2
REMARK    2  A    between atoms: N_4  and  C_5
REMARK    3  A    between atoms: C_8  and  N_9
REMARK    4  A    between atoms: N_12  and  C_13
REMARK    5  A    between atoms: C_13  and  C_14
REMARK    6  A    between atoms: C_14  and  C_15
REMARK    7  A    between atoms: C_15  and  C_16
REMARK    8  A    between atoms: C_16  and  N_17
REMARK                            x       y       z     vdW  Elec       q    Type
REMARK                         _______ _______ _______ _____ _____    ______ ____
ROOT
ATOM      1  N   UNL     1      -1.174  11.590  20.884  0.00  0.00    +0.000 N 
ATOM      2  C   UNL     1      -1.327  10.855  19.624  0.00  0.00    +0.000 C 
ATOM      3  C   UNL     1      -0.596  11.578  18.476  0.00  0.00    +0.000 C 
ATOM      4  N   UNL     1       0.835  11.854  18.757  0.00  0.00    +0.000 NA
ATOM      5  C   UNL     1       0.883  12.685  19.988  0.00  0.00    +0.000 C 
ATOM      6  C   UNL     1       0.181  12.065  21.223  0.00  0.00    +0.000 C 
ENDROOT
BRANCH   1  10
ATOM      7  C   UNL     1      -4.534  13.148  22.906  0.00  0.00    +0.000 A 
ATOM      8  C   UNL     1      -4.435  13.213  21.519  0.00  0.00    +0.000 A 
ATOM      9  C   UNL     1      -3.316  12.692  20.864  0.00  0.00    +0.000 A 
ATOM     10  C   UNL     1      -2.263  12.096  21.565  0.00  0.00    +0.000 A 
ATOM     11  C   UNL     1      -2.367  12.056  22.960  0.00  0.00    +0.000 A 
ATOM     12  C   UNL     1      -3.481  12.582  23.627  0.00  0.00    +0.000 A 
BRANCH   7  16
ATOM     13  C   UNL     1      -7.849  13.816  24.556  0.00  0.00    +0.000 C 
ATOM     14  C   UNL     1      -6.839  12.974  23.824  0.00  0.00    +0.000 C 
ATOM     15  O   UNL     1      -7.118  11.833  23.473  0.00  0.00    +0.000 OA
ATOM     16  N   UNL     1      -5.642  13.639  23.622  0.00  0.00    +0.000 N 
ATOM     17  H   UNL     1      -5.512  14.519  24.105  0.00  0.00    +0.000 HD
ENDBRANCH   7  16
ENDBRANCH   1  10
BRANCH   4  18
ATOM     18  C   UNL     1       1.624  10.624  18.931  0.00  0.00    +0.000 C 
BRANCH  18  19
ATOM     19  C   UNL     1       1.309   9.539  17.888  0.00  0.00    +0.000 C 
BRANCH  19  20
ATOM     20  C   UNL     1       2.372   8.442  17.791  0.00  0.00    +0.000 C 
BRANCH  20  21
ATOM     21  C   UNL     1       2.510   7.680  19.107  0.00  0.00    +0.000 C 
BRANCH  21  22
ATOM     22  N   UNL     1       2.599   6.252  18.915  0.00  0.00    +0.000 N 
ATOM     23  C   UNL     1       3.392   5.681  17.961  0.00  0.00    +0.000 C 
ATOM     24  O   UNL     1       4.098   6.203  17.120  0.00  0.00    +0.000 OA
ATOM     25  C   UNL     1       3.274   4.240  18.136  0.00  0.00    +0.000 A 
ATOM     26  C   UNL     1       3.904   3.216  17.461  0.00  0.00    +0.000 A 
ATOM     27  C   UNL     1       3.603   1.915  17.863  0.00  0.00    +0.000 A 
ATOM     28  C   UNL     1       2.692   1.674  18.914  0.00  0.00    +0.000 A 
ATOM     29  C   UNL     1       2.073   2.733  19.589  0.00  0.00    +0.000 A 
ATOM     30  C   UNL     1       2.388   4.010  19.176  0.00  0.00    +0.000 A 
ATOM     31  C   UNL     1       1.956   5.318  19.679  0.00  0.00    +0.000 C 
ATOM     32  O   UNL     1       1.190   5.476  20.608  0.00  0.00    +0.000 OA
ENDBRANCH  21  22
ENDBRANCH  20  21
ENDBRANCH  19  20
ENDBRANCH  18  19
ENDBRANCH   4  18
TORSDOF 7
ENDMDL
MODEL 6
REMARK VINA RESULT:      -7.0      2.081     10.790
REMARK  Name = 
REMARK  8 active torsions:
REMARK  status: ('A' for Active; 'I' for Inactive)
REMARK    1  A    between atoms: C_1  and  C_2
REMARK    2  A    between atoms: N_4  and  C_5
REMARK    3  A    between atoms: C_8  and  N_9
REMARK    4  A    between atoms: N_12  and  C_13
REMARK    5  A    between atoms: C_13  and  C_14
REMARK    6  A    between atoms: C_14  and  C_15
REMARK    7  A    between atoms: C_15  and  C_16
REMARK    8  A    between atoms: C_16  and  N_17
REMARK                            x       y       z     vdW  Elec       q    Type
REMARK                         _______ _______ _______ _____ _____    ______ ____
ROOT
ATOM      1  N   UNL     1       1.258   9.262  19.983  0.00  0.00    +0.000 N 
ATOM      2  C   UNL     1       0.578  10.080  18.972  0.00  0.00    +0.000 C 
ATOM      3  C   UNL     1      -0.863  10.406  19.410  0.00  0.00    +0.000 C 
ATOM      4  N   UNL     1      -0.954  11.037  20.750  0.00  0.00    +0.000 NA
ATOM      5  C   UNL     1      -0.335  10.094  21.717  0.00  0.00    +0.000 C 
ATOM      6  C   UNL     1       1.125   9.687  21.389  0.00  0.00    +0.000 C 
ENDROOT
BRANCH   1  10
ATOM      7  C   UNL     1       2.714   5.414  19.048  0.00  0.00    +0.000 A 
ATOM      8  C   UNL     1       2.798   6.457  18.130  0.00  0.00    +0.000 A 
ATOM      9  C   UNL     1       2.311   7.726  18.455  0.00  0.00    +0.000 A 
ATOM     10  C   UNL     1       1.725   7.996  19.696  0.00  0.00    +0.000 A 
ATOM     11  C   UNL     1       1.630   6.932  20.601  0.00  0.00    +0.000 A 
ATOM     12  C   UNL     1       2.108   5.654  20.282  0.00  0.00    +0.000 A 
BRANCH   7  16
ATOM     13  C   UNL     1       3.264   1.790  18.199  0.00  0.00    +0.000 C 
ATOM     14  C   UNL     1       2.468   3.064  18.270  0.00  0.00    +0.000 C 
ATOM     15  O   UNL     1       1.300   3.090  17.897  0.00  0.00    +0.000 OA
ATOM     16  N   UNL     1       3.200   4.118  18.787  0.00  0.00    +0.000 N 
ATOM     17  H   UNL     1       4.196   3.979  18.906  0.00  0.00    +0.000 HD
ENDBRANCH   7  16
ENDBRANCH   1  10
BRANCH   4  18
ATOM     18  C   UNL     1      -0.287  12.347  20.803  0.00  0.00    +0.000 C 
BRANCH  18  19
ATOM     19  C   UNL     1      -1.254  13.520  21.033  0.00  0.00    +0.000 C 
BRANCH  19  20
ATOM     20  C   UNL     1      -0.824  14.471  22.152  0.00  0.00    +0.000 C 
BRANCH  20  21
ATOM     21  C   UNL     1      -1.271  13.960  23.521  0.00  0.00    +0.000 C 
BRANCH  21  22
ATOM     22  N   UNL     1      -2.705  13.991  23.683  0.00  0.00    +0.000 N 
ATOM     23  C   UNL     1      -3.418  15.154  23.750  0.00  0.00    +0.000 C 
ATOM     24  O   UNL     1      -3.033  16.307  23.730  0.00  0.00    +0.000 OA
ATOM     25  C   UNL     1      -4.821  14.771  23.829  0.00  0.00    +0.000 A 
ATOM     26  C   UNL     1      -5.949  15.564  23.870  0.00  0.00    +0.000 A 
ATOM     27  C   UNL     1      -7.179  14.909  23.928  0.00  0.00    +0.000 A 
ATOM     28  C   UNL     1      -7.249  13.499  23.945  0.00  0.00    +0.000 A 
ATOM     29  C   UNL     1      -6.088  12.719  23.894  0.00  0.00    +0.000 A 
ATOM     30  C   UNL     1      -4.885  13.388  23.834  0.00  0.00    +0.000 A 
ATOM     31  C   UNL     1      -3.510  12.887  23.736  0.00  0.00    +0.000 C 
ATOM     32  O   UNL     1      -3.210  11.711  23.693  0.00  0.00    +0.000 OA
ENDBRANCH  21  22
ENDBRANCH  20  21
ENDBRANCH  19  20
ENDBRANCH  18  19
ENDBRANCH   4  18
TORSDOF 7
ENDMDL
MODEL 7
REMARK VINA RESULT:      -7.0      2.636      9.580
REMARK  Name = 
REMARK  8 active torsions:
REMARK  status: ('A' for Active; 'I' for Inactive)
REMARK    1  A    between atoms: C_1  and  C_2
REMARK    2  A    between atoms: N_4  and  C_5
REMARK    3  A    between atoms: C_8  and  N_9
REMARK    4  A    between atoms: N_12  and  C_13
REMARK    5  A    between atoms: C_13  and  C_14
REMARK    6  A    between atoms: C_14  and  C_15
REMARK    7  A    between atoms: C_15  and  C_16
REMARK    8  A    between atoms: C_16  and  N_17
REMARK                            x       y       z     vdW  Elec       q    Type
REMARK                         _______ _______ _______ _____ _____    ______ ____
ROOT
ATOM      1  N   UNL     1       0.500   8.936  20.738  0.00  0.00    +0.000 N 
ATOM      2  C   UNL     1      -0.047   8.487  22.022  0.00  0.00    +0.000 C 
ATOM      3  C   UNL     1       0.346   9.457  23.154  0.00  0.00    +0.000 C 
ATOM      4  N   UNL     1      -0.020  10.869  22.887  0.00  0.00    +0.000 NA
ATOM      5  C   UNL     1       0.661  11.263  21.627  0.00  0.00    +0.000 C 
ATOM      6  C   UNL     1       0.344  10.364  20.405  0.00  0.00    +0.000 C 
ENDROOT
BRANCH   1  10
ATOM      7  C   UNL     1       3.215   6.523  18.590  0.00  0.00    +0.000 A 
ATOM      8  C   UNL     1       2.777   6.158  19.859  0.00  0.00    +0.000 A 
ATOM      9  C   UNL     1       1.878   6.967  20.558  0.00  0.00    +0.000 A 
ATOM     10  C   UNL     1       1.390   8.162  20.020  0.00  0.00    +0.000 A 
ATOM     11  C   UNL     1       1.855   8.527  18.751  0.00  0.00    +0.000 A 
ATOM     12  C   UNL     1       2.762   7.726  18.045  0.00  0.00    +0.000 A 
BRANCH   7  16
ATOM     13  C   UNL     1       5.028   3.905  16.586  0.00  0.00    +0.000 C 
ATOM     14  C   UNL     1       3.828   4.514  17.257  0.00  0.00    +0.000 C 
ATOM     15  O   UNL     1       2.751   3.927  17.260  0.00  0.00    +0.000 OA
ATOM     16  N   UNL     1       4.107   5.742  17.829  0.00  0.00    +0.000 N 
ATOM     17  H   UNL     1       5.001   6.165  17.611  0.00  0.00    +0.000 HD
ENDBRANCH   7  16
ENDBRANCH   1  10
BRANCH   4  18
ATOM     18  C   UNL     1      -1.474  11.064  22.774  0.00  0.00    +0.000 C 
BRANCH  18  19
ATOM     19  C   UNL     1      -1.962  12.402  23.354  0.00  0.00    +0.000 C 
BRANCH  19  20
ATOM     20  C   UNL     1      -3.377  12.790  22.919  0.00  0.00    +0.000 C 
BRANCH  20  21
ATOM     21  C   UNL     1      -3.354  13.694  21.688  0.00  0.00    +0.000 C 
BRANCH  21  22
ATOM     22  N   UNL     1      -3.322  12.948  20.453  0.00  0.00    +0.000 N 
ATOM     23  C   UNL     1      -4.414  12.302  19.948  0.00  0.00    +0.000 C 
ATOM     24  O   UNL     1      -5.535  12.190  20.407  0.00  0.00    +0.000 OA
ATOM     25  C   UNL     1      -4.008  11.745  18.666  0.00  0.00    +0.000 A 
ATOM     26  C   UNL     1      -4.746  11.041  17.737  0.00  0.00    +0.000 A 
ATOM     27  C   UNL     1      -4.084  10.643  16.575  0.00  0.00    +0.000 A 
ATOM     28  C   UNL     1      -2.721  10.952  16.376  0.00  0.00    +0.000 A 
ATOM     29  C   UNL     1      -1.998  11.675  17.332  0.00  0.00    +0.000 A 
ATOM     30  C   UNL     1      -2.673  12.060  18.470  0.00  0.00    +0.000 A 
ATOM     31  C   UNL     1      -2.235  12.843  19.630  0.00  0.00    +0.000 C 
ATOM     32  O   UNL     1      -1.117  13.300  19.766  0.00  0.00    +0.000 OA
ENDBRANCH  21  22
ENDBRANCH  20  21
ENDBRANCH  19  20
ENDBRANCH  18  19
ENDBRANCH   4  18
TORSDOF 7
ENDMDL
MODEL 8
REMARK VINA RESULT:      -6.9      4.044     10.951
REMARK  Name = 
REMARK  8 active torsions:
REMARK  status: ('A' for Active; 'I' for Inactive)
REMARK    1  A    between atoms: C_1  and  C_2
REMARK    2  A    between atoms: N_4  and  C_5
REMARK    3  A    between atoms: C_8  and  N_9
REMARK    4  A    between atoms: N_12  and  C_13
REMARK    5  A    between atoms: C_13  and  C_14
REMARK    6  A    between atoms: C_14  and  C_15
REMARK    7  A    between atoms: C_15  and  C_16
REMARK    8  A    between atoms: C_16  and  N_17
REMARK                            x       y       z     vdW  Elec       q    Type
REMARK                         _______ _______ _______ _____ _____    ______ ____
ROOT
ATOM      1  N   UNL     1       1.674   8.832  19.365  0.00  0.00    +0.000 N 
ATOM      2  C   UNL     1       1.367   9.654  18.190  0.00  0.00    +0.000 C 
ATOM      3  C   UNL     1      -0.121  10.054  18.176  0.00  0.00    +0.000 C 
ATOM      4  N   UNL     1      -0.574  10.722  19.421  0.00  0.00    +0.000 NA
ATOM      5  C   UNL     1      -0.318   9.776  20.538  0.00  0.00    +0.000 C 
ATOM      6  C   UNL     1       1.150   9.297  20.664  0.00  0.00    +0.000 C 
ENDROOT
BRANCH   1  10
ATOM      7  C   UNL     1       3.139   4.898  18.938  0.00  0.00    +0.000 A 
ATOM      8  C   UNL     1       3.386   5.866  17.969  0.00  0.00    +0.000 A 
ATOM      9  C   UNL     1       2.894   7.164  18.125  0.00  0.00    +0.000 A 
ATOM     10  C   UNL     1       2.141   7.539  19.243  0.00  0.00    +0.000 A 
ATOM     11  C   UNL     1       1.884   6.549  20.199  0.00  0.00    +0.000 A 
ATOM     12  C   UNL     1       2.367   5.242  20.049  0.00  0.00    +0.000 A 
BRANCH   7  16
ATOM     13  C   UNL     1       3.745   1.234  18.334  0.00  0.00    +0.000 C 
ATOM     14  C   UNL     1       3.021   2.540  18.155  0.00  0.00    +0.000 C 
ATOM     15  O   UNL     1       2.013   2.602  17.459  0.00  0.00    +0.000 OA
ATOM     16  N   UNL     1       3.621   3.578  18.847  0.00  0.00    +0.000 N 
ATOM     17  H   UNL     1       4.532   3.402  19.250  0.00  0.00    +0.000 HD
ENDBRANCH   7  16
ENDBRANCH   1  10
BRANCH   4  18
ATOM     18  C   UNL     1       0.112  12.002  19.657  0.00  0.00    +0.000 C 
BRANCH  18  19
ATOM     19  C   UNL     1      -0.220  12.635  21.019  0.00  0.00    +0.000 C 
BRANCH  19  20
ATOM     20  C   UNL     1      -1.274  13.742  20.949  0.00  0.00    +0.000 C 
BRANCH  20  21
ATOM     21  C   UNL     1      -0.702  15.085  21.399  0.00  0.00    +0.000 C 
BRANCH  21  22
ATOM     22  N   UNL     1      -0.348  15.937  20.288  0.00  0.00    +0.000 N 
ATOM     23  C   UNL     1       0.921  16.017  19.791  0.00  0.00    +0.000 C 
ATOM     24  O   UNL     1       1.941  15.472  20.166  0.00  0.00    +0.000 OA
ATOM     25  C   UNL     1       0.856  16.904  18.638  0.00  0.00    +0.000 A 
ATOM     26  C   UNL     1       1.851  17.282  17.760  0.00  0.00    +0.000 A 
ATOM     27  C   UNL     1       1.486  18.143  16.725  0.00  0.00    +0.000 A 
ATOM     28  C   UNL     1       0.156  18.600  16.598  0.00  0.00    +0.000 A 
ATOM     29  C   UNL     1      -0.835  18.194  17.499  0.00  0.00    +0.000 A 
ATOM     30  C   UNL     1      -0.452  17.341  18.511  0.00  0.00    +0.000 A 
ATOM     31  C   UNL     1      -1.229  16.708  19.581  0.00  0.00    +0.000 C 
ATOM     32  O   UNL     1      -2.423  16.861  19.744  0.00  0.00    +0.000 OA
ENDBRANCH  21  22
ENDBRANCH  20  21
ENDBRANCH  19  20
ENDBRANCH  18  19
ENDBRANCH   4  18
TORSDOF 7
ENDMDL
MODEL 9
REMARK VINA RESULT:      -6.9      2.696     10.576
REMARK  Name = 
REMARK  8 active torsions:
REMARK  status: ('A' for Active; 'I' for Inactive)
REMARK    1  A    between atoms: C_1  and  C_2
REMARK    2  A    between atoms: N_4  and  C_5
REMARK    3  A    between atoms: C_8  and  N_9
REMARK    4  A    between atoms: N_12  and  C_13
REMARK    5  A    between atoms: C_13  and  C_14
REMARK    6  A    between atoms: C_14  and  C_15
REMARK    7  A    between atoms: C_15  and  C_16
REMARK    8  A    between atoms: C_16  and  N_17
REMARK                            x       y       z     vdW  Elec       q    Type
REMARK                         _______ _______ _______ _____ _____    ______ ____
ROOT
ATOM      1  N   UNL     1       1.488   8.573  20.388  0.00  0.00    +0.000 N 
ATOM      2  C   UNL     1       1.078   9.583  19.407  0.00  0.00    +0.000 C 
ATOM      3  C   UNL     1      -0.335  10.111  19.724  0.00  0.00    +0.000 C 
ATOM      4  N   UNL     1      -0.486  10.624  21.107  0.00  0.00    +0.000 NA
ATOM      5  C   UNL     1      -0.150   9.505  22.025  0.00  0.00    +0.000 C 
ATOM      6  C   UNL     1       1.254   8.885  21.811  0.00  0.00    +0.000 C 
ENDROOT
BRANCH   1  10
ATOM      7  C   UNL     1       2.407   4.631  19.193  0.00  0.00    +0.000 A 
ATOM      8  C   UNL     1       2.720   5.719  18.384  0.00  0.00    +0.000 A 
ATOM      9  C   UNL     1       2.409   7.019  18.793  0.00  0.00    +0.000 A 
ATOM     10  C   UNL     1       1.777   7.276  20.014  0.00  0.00    +0.000 A 
ATOM     11  C   UNL     1       1.451   6.170  20.809  0.00  0.00    +0.000 A 
ATOM     12  C   UNL     1       1.752   4.863  20.403  0.00  0.00    +0.000 A 
BRANCH   7  16
ATOM     13  C   UNL     1       3.939   1.272  18.471  0.00  0.00    +0.000 C 
ATOM     14  C   UNL     1       3.922   2.665  19.038  0.00  0.00    +0.000 C 
ATOM     15  O   UNL     1       4.914   3.122  19.597  0.00  0.00    +0.000 OA
ATOM     16  N   UNL     1       2.709   3.301  18.844  0.00  0.00    +0.000 N 
ATOM     17  H   UNL     1       1.938   2.740  18.504  0.00  0.00    +0.000 HD
ENDBRANCH   7  16
ENDBRANCH   1  10
BRANCH   4  18
ATOM     18  C   UNL     1       0.371  11.790  21.374  0.00  0.00    +0.000 C 
BRANCH  18  19
ATOM     19  C   UNL     1      -0.403  13.019  21.880  0.00  0.00    +0.000 C 
BRANCH  19  20
ATOM     20  C   UNL     1      -1.308  12.734  23.081  0.00  0.00    +0.000 C 
BRANCH  20  21
ATOM     21  C   UNL     1      -2.279  13.886  23.333  0.00  0.00    +0.000 C 
BRANCH  21  22
ATOM     22  N   UNL     1      -3.531  13.718  22.635  0.00  0.00    +0.000 N 
ATOM     23  C   UNL     1      -3.810  14.340  21.452  0.00  0.00    +0.000 C 
ATOM     24  O   UNL     1      -3.143  15.128  20.809  0.00  0.00    +0.000 OA
ATOM     25  C   UNL     1      -5.118  13.858  21.032  0.00  0.00    +0.000 A 
ATOM     26  C   UNL     1      -5.836  14.141  19.888  0.00  0.00    +0.000 A 
ATOM     27  C   UNL     1      -7.072  13.510  19.746  0.00  0.00    +0.000 A 
ATOM     28  C   UNL     1      -7.553  12.628  20.737  0.00  0.00    +0.000 A 
ATOM     29  C   UNL     1      -6.800  12.352  21.885  0.00  0.00    +0.000 A 
ATOM     30  C   UNL     1      -5.581  12.984  22.002  0.00  0.00    +0.000 A 
ATOM     31  C   UNL     1      -4.547  12.895  23.037  0.00  0.00    +0.000 C 
ATOM     32  O   UNL     1      -4.625  12.193  24.026  0.00  0.00    +0.000 OA
ENDBRANCH  21  22
ENDBRANCH  20  21
ENDBRANCH  19  20
ENDBRANCH  18  19
ENDBRANCH   4  18
TORSDOF 7
ENDMDL
