MODEL 1
REMARK VINA RESULT:      -8.0      0.000      0.000
REMARK  Name = 
REMARK  6 active torsions:
REMARK  status: ('A' for Active; 'I' for Inactive)
REMARK    1  A    between atoms: C_1  and  C_2
REMARK    2  A    between atoms: C_2  and  C_3
REMARK    3  A    between atoms: C_2  and  C_4
REMARK    4  A    between atoms: C_6  and  C_7
REMARK    5  A    between atoms: C_6  and  C_8
REMARK    6  A    between atoms: C_12  and  C_13
REMARK                            x       y       z     vdW  Elec       q    Type
REMARK                         _______ _______ _______ _____ _____    ______ ____
ROOT
ATOM      1  C   UNL     1       5.226   5.337  18.475  0.00  0.00    +0.000 C 
ATOM      2  N   UNL     1       4.658   5.908  19.485  0.00  0.00    +0.000 NA
ATOM      3  C   UNL     1       3.206   5.747  19.206  0.00  0.00    +0.000 C 
ATOM      4  C   UNL     1       2.580   5.024  20.400  0.00  0.00    +0.000 C 
ATOM      5  N   UNL     1       3.036   4.882  18.000  0.00  0.00    +0.000 NA
ATOM      6  C   UNL     1       4.234   4.718  17.550  0.00  0.00    +0.000 C 
ATOM      7  N   UNL     1       4.523   4.040  16.407  0.00  0.00    +0.000 N 
ATOM      8  H   UNL     1       3.738   3.503  16.053  0.00  0.00    +0.000 HD
ATOM      9  H   UNL     1       5.412   3.563  16.336  0.00  0.00    +0.000 HD
ENDROOT
BRANCH   3  10
ATOM     10  C   UNL     1       2.535   7.105  18.995  0.00  0.00    +0.000 A 
ATOM     11  C   UNL     1       2.549   7.745  17.750  0.00  0.00    +0.000 A 
ATOM     12  C   UNL     1       1.896   8.962  17.571  0.00  0.00    +0.000 A 
ATOM     13  C   UNL     1       1.220   9.558  18.639  0.00  0.00    +0.000 A 
ATOM     14  C   UNL     1       1.195   8.966  19.913  0.00  0.00    +0.000 A 
ATOM     15  C   UNL     1       1.875   7.743  20.065  0.00  0.00    +0.000 A 
BRANCH  14  16
ATOM     16  C   UNL     1       0.484   9.588  21.051  0.00  0.00    +0.000 A 
ATOM     17  C   UNL     1      -0.458  10.611  20.877  0.00  0.00    +0.000 A 
ATOM     18  C   UNL     1      -1.102  11.182  21.975  0.00  0.00    +0.000 A 
ATOM     19  C   UNL     1      -0.784  10.721  23.238  0.00  0.00    +0.000 A 
ATOM     20  N   UNL     1       0.110   9.739  23.468  0.00  0.00    +0.000 NA
ATOM     21  C   UNL     1       0.712   9.201  22.376  0.00  0.00    +0.000 A 
ENDBRANCH  14  16
ENDBRANCH   3  10
BRANCH   1  23
ATOM     22  C   UNL     1       7.024   6.397  17.174  0.00  0.00    +0.000 C 
ATOM     23  C   UNL     1       6.701   5.318  18.203  0.00  0.00    +0.000 C 
ATOM     24  C   UNL     1       7.488   5.543  19.494  0.00  0.00    +0.000 C 
ENDBRANCH   1  23
TORSDOF 3
ENDMDL
MODEL 2
REMARK VINA RESULT:      -7.9      0.618      1.019
REMARK  Name = 
REMARK  6 active torsions:
REMARK  status: ('A' for Active; 'I' for Inactive)
REMARK    1  A    between atoms: C_1  and  C_2
REMARK    2  A    between atoms: C_2  and  C_3
REMARK    3  A    between atoms: C_2  and  C_4
REMARK    4  A    between atoms: C_6  and  C_7
REMARK    5  A    between atoms: C_6  and  C_8
REMARK    6  A    between atoms: C_12  and  C_13
REMARK                            x       y       z     vdW  Elec       q    Type
REMARK                         _______ _______ _______ _____ _____    ______ ____
ROOT
ATOM      1  C   UNL     1       5.163   5.288  18.486  0.00  0.00    +0.000 C 
ATOM      2  N   UNL     1       4.610   5.860  19.503  0.00  0.00    +0.000 NA
ATOM      3  C   UNL     1       3.155   5.760  19.212  0.00  0.00    +0.000 C 
ATOM      4  C   UNL     1       2.492   5.038  20.386  0.00  0.00    +0.000 C 
ATOM      5  N   UNL     1       2.961   4.928  17.986  0.00  0.00    +0.000 NA
ATOM      6  C   UNL     1       4.154   4.726  17.541  0.00  0.00    +0.000 C 
ATOM      7  N   UNL     1       4.427   4.061  16.387  0.00  0.00    +0.000 N 
ATOM      8  H   UNL     1       3.624   3.562  16.016  0.00  0.00    +0.000 HD
ATOM      9  H   UNL     1       5.297   3.552  16.312  0.00  0.00    +0.000 HD
ENDROOT
BRANCH   3  10
ATOM     10  C   UNL     1       2.537   7.147  19.025  0.00  0.00    +0.000 A 
ATOM     11  C   UNL     1       2.648   7.843  17.814  0.00  0.00    +0.000 A 
ATOM     12  C   UNL     1       2.043   9.087  17.654  0.00  0.00    +0.000 A 
ATOM     13  C   UNL     1       1.318   9.655  18.704  0.00  0.00    +0.000 A 
ATOM     14  C   UNL     1       1.196   9.005  19.945  0.00  0.00    +0.000 A 
ATOM     15  C   UNL     1       1.829   7.756  20.080  0.00  0.00    +0.000 A 
BRANCH  14  16
ATOM     16  C   UNL     1       0.431   9.597  21.064  0.00  0.00    +0.000 A 
ATOM     17  C   UNL     1       0.397   9.016  22.339  0.00  0.00    +0.000 A 
ATOM     18  C   UNL     1      -0.345   9.596  23.368  0.00  0.00    +0.000 A 
ATOM     19  C   UNL     1      -1.050  10.755  23.099  0.00  0.00    +0.000 A 
ATOM     20  N   UNL     1      -1.053  11.361  21.896  0.00  0.00    +0.000 NA
ATOM     21  C   UNL     1      -0.315  10.772  20.920  0.00  0.00    +0.000 A 
ENDBRANCH  14  16
ENDBRANCH   3  10
BRANCH   1  23
ATOM     22  C   UNL     1       6.988   6.214  17.121  0.00  0.00    +0.000 C 
ATOM     23  C   UNL     1       6.638   5.218  18.223  0.00  0.00    +0.000 C 
ATOM     24  C   UNL     1       7.425   5.519  19.498  0.00  0.00    +0.000 C 
ENDBRANCH   1  23
TORSDOF 3
ENDMDL
MODEL 3
REMARK VINA RESULT:      -7.8      3.698      7.948
REMARK  Name = 
REMARK  6 active torsions:
REMARK  status: ('A' for Active; 'I' for Inactive)
REMARK    1  A    between atoms: C_1  and  C_2
REMARK    2  A    between atoms: C_2  and  C_3
REMARK    3  A    between atoms: C_2  and  C_4
REMARK    4  A    between atoms: C_6  and  C_7
REMARK    5  A    between atoms: C_6  and  C_8
REMARK    6  A    between atoms: C_12  and  C_13
REMARK                            x       y       z     vdW  Elec       q    Type
REMARK                         _______ _______ _______ _____ _____    ______ ____
ROOT
ATOM      1  C   UNL     1       2.828   3.399  19.578  0.00  0.00    +0.000 C 
ATOM      2  N   UNL     1       3.306   4.598  19.618  0.00  0.00    +0.000 NA
ATOM      3  C   UNL     1       3.215   5.058  18.207  0.00  0.00    +0.000 C 
ATOM      4  C   UNL     1       2.389   6.345  18.188  0.00  0.00    +0.000 C 
ATOM      5  N   UNL     1       2.486   4.027  17.407  0.00  0.00    +0.000 NA
ATOM      6  C   UNL     1       2.336   3.036  18.218  0.00  0.00    +0.000 C 
ATOM      7  N   UNL     1       1.774   1.850  17.863  0.00  0.00    +0.000 N 
ATOM      8  H   UNL     1       1.299   1.887  16.966  0.00  0.00    +0.000 HD
ATOM      9  H   UNL     1       1.282   1.315  18.566  0.00  0.00    +0.000 HD
ENDROOT
BRANCH   3  10
ATOM     10  C   UNL     1       4.606   5.310  17.622  0.00  0.00    +0.000 A 
ATOM     11  C   UNL     1       5.625   5.897  18.382  0.00  0.00    +0.000 A 
ATOM     12  C   UNL     1       6.895   6.081  17.841  0.00  0.00    +0.000 A 
ATOM     13  C   UNL     1       7.164   5.680  16.529  0.00  0.00    +0.000 A 
ATOM     14  C   UNL     1       6.168   5.106  15.720  0.00  0.00    +0.000 A 
ATOM     15  C   UNL     1       4.892   4.946  16.291  0.00  0.00    +0.000 A 
BRANCH  14  16
ATOM     16  C   UNL     1       6.440   4.679  14.331  0.00  0.00    +0.000 A 
ATOM     17  C   UNL     1       5.676   3.698  13.684  0.00  0.00    +0.000 A 
ATOM     18  C   UNL     1       5.969   3.313  12.376  0.00  0.00    +0.000 A 
ATOM     19  C   UNL     1       7.036   3.915  11.735  0.00  0.00    +0.000 A 
ATOM     20  N   UNL     1       7.804   4.865  12.303  0.00  0.00    +0.000 NA
ATOM     21  C   UNL     1       7.485   5.221  13.575  0.00  0.00    +0.000 A 
ENDBRANCH  14  16
ENDBRANCH   3  10
BRANCH   1  23
ATOM     22  C   UNL     1       4.224   1.999  21.041  0.00  0.00    +0.000 C 
ATOM     23  C   UNL     1       2.796   2.436  20.728  0.00  0.00    +0.000 C 
ATOM     24  C   UNL     1       2.144   3.082  21.951  0.00  0.00    +0.000 C 
ENDBRANCH   1  23
TORSDOF 3
ENDMDL
MODEL 4
REMARK VINA RESULT:      -7.7      1.882      3.236
REMARK  Name = 
REMARK  6 active torsions:
REMARK  status: ('A' for Active; 'I' for Inactive)
REMARK    1  A    between atoms: C_1  and  C_2
REMARK    2  A    between atoms: C_2  and  C_3
REMARK    3  A    between atoms: C_2  and  C_4
REMARK    4  A    between atoms: C_6  and  C_7
REMARK    5  A    between atoms: C_6  and  C_8
REMARK    6  A    between atoms: C_12  and  C_13
REMARK                            x       y       z     vdW  Elec       q    Type
REMARK                         _______ _______ _______ _____ _____    ______ ____
ROOT
ATOM      1  C   UNL     1       6.270   4.685  18.139  0.00  0.00    +0.000 C 
ATOM      2  N   UNL     1       5.808   4.294  19.280  0.00  0.00    +0.000 NA
ATOM      3  C   UNL     1       4.551   3.583  18.923  0.00  0.00    +0.000 C 
ATOM      4  C   UNL     1       4.645   2.162  19.480  0.00  0.00    +0.000 C 
ATOM      5  N   UNL     1       4.449   3.494  17.436  0.00  0.00    +0.000 NA
ATOM      6  C   UNL     1       5.430   4.209  17.001  0.00  0.00    +0.000 C 
ATOM      7  N   UNL     1       5.661   4.451  15.684  0.00  0.00    +0.000 N 
ATOM      8  H   UNL     1       5.118   3.853  15.068  0.00  0.00    +0.000 HD
ATOM      9  H   UNL     1       6.612   4.602  15.376  0.00  0.00    +0.000 HD
ENDROOT
BRANCH   3  10
ATOM     10  C   UNL     1       3.332   4.302  19.505  0.00  0.00    +0.000 A 
ATOM     11  C   UNL     1       2.441   3.653  20.369  0.00  0.00    +0.000 A 
ATOM     12  C   UNL     1       1.361   4.339  20.918  0.00  0.00    +0.000 A 
ATOM     13  C   UNL     1       1.155   5.687  20.610  0.00  0.00    +0.000 A 
ATOM     14  C   UNL     1       2.009   6.375  19.731  0.00  0.00    +0.000 A 
ATOM     15  C   UNL     1       3.084   5.651  19.182  0.00  0.00    +0.000 A 
BRANCH  14  16
ATOM     16  C   UNL     1       1.801   7.800  19.396  0.00  0.00    +0.000 A 
ATOM     17  C   UNL     1       2.172   8.342  18.157  0.00  0.00    +0.000 A 
ATOM     18  C   UNL     1       1.970   9.694  17.881  0.00  0.00    +0.000 A 
ATOM     19  C   UNL     1       1.402  10.489  18.860  0.00  0.00    +0.000 A 
ATOM     20  N   UNL     1       1.023  10.026  20.066  0.00  0.00    +0.000 NA
ATOM     21  C   UNL     1       1.228   8.703  20.298  0.00  0.00    +0.000 A 
ENDBRANCH  14  16
ENDBRANCH   3  10
BRANCH   1  23
ATOM     22  C   UNL     1       7.020   6.906  17.397  0.00  0.00    +0.000 C 
ATOM     23  C   UNL     1       7.475   5.555  17.939  0.00  0.00    +0.000 C 
ATOM     24  C   UNL     1       8.238   5.725  19.254  0.00  0.00    +0.000 C 
ENDBRANCH   1  23
TORSDOF 3
ENDMDL
MODEL 5
REMARK VINA RESULT:      -7.7      2.087      3.307
REMARK  Name = 
REMARK  6 active torsions:
REMARK  status: ('A' for Active; 'I' for Inactive)
REMARK    1  A    between atoms: C_1  and  C_2
REMARK    2  A    between atoms: C_2  and  C_3
REMARK    3  A    between atoms: C_2  and  C_4
REMARK    4  A    between atoms: C_6  and  C_7
REMARK    5  A    between atoms: C_6  and  C_8
REMARK    6  A    between atoms: C_12  and  C_13
REMARK                            x       y       z     vdW  Elec       q    Type
REMARK                         _______ _______ _______ _____ _____    ______ ____
ROOT
ATOM      1  C   UNL     1       6.295   4.685  18.134  0.00  0.00    +0.000 C 
ATOM      2  N   UNL     1       5.814   4.296  19.268  0.00  0.00    +0.000 NA
ATOM      3  C   UNL     1       4.534   3.636  18.897  0.00  0.00    +0.000 C 
ATOM      4  C   UNL     1       4.574   2.205  19.435  0.00  0.00    +0.000 C 
ATOM      5  N   UNL     1       4.436   3.569  17.408  0.00  0.00    +0.000 NA
ATOM      6  C   UNL     1       5.444   4.255  16.987  0.00  0.00    +0.000 C 
ATOM      7  N   UNL     1       5.690   4.505  15.673  0.00  0.00    +0.000 N 
ATOM      8  H   UNL     1       5.129   3.935  15.047  0.00  0.00    +0.000 HD
ATOM      9  H   UNL     1       6.647   4.626  15.371  0.00  0.00    +0.000 HD
ENDROOT
BRANCH   3  10
ATOM     10  C   UNL     1       3.339   4.391  19.482  0.00  0.00    +0.000 A 
ATOM     11  C   UNL     1       2.463   3.784  20.391  0.00  0.00    +0.000 A 
ATOM     12  C   UNL     1       1.405   4.504  20.942  0.00  0.00    +0.000 A 
ATOM     13  C   UNL     1       1.208   5.841  20.590  0.00  0.00    +0.000 A 
ATOM     14  C   UNL     1       2.047   6.487  19.666  0.00  0.00    +0.000 A 
ATOM     15  C   UNL     1       3.099   5.731  19.118  0.00  0.00    +0.000 A 
BRANCH  14  16
ATOM     16  C   UNL     1       1.848   7.902  19.286  0.00  0.00    +0.000 A 
ATOM     17  C   UNL     1       1.199   8.820  20.123  0.00  0.00    +0.000 A 
ATOM     18  C   UNL     1       1.019  10.145  19.726  0.00  0.00    +0.000 A 
ATOM     19  C   UNL     1       1.489  10.530  18.484  0.00  0.00    +0.000 A 
ATOM     20  N   UNL     1       2.122   9.695  17.637  0.00  0.00    +0.000 NA
ATOM     21  C   UNL     1       2.286   8.415  18.060  0.00  0.00    +0.000 A 
ENDBRANCH  14  16
ENDBRANCH   3  10
BRANCH   1  23
ATOM     22  C   UNL     1       7.137   6.854  17.339  0.00  0.00    +0.000 C 
ATOM     23  C   UNL     1       7.532   5.514  17.951  0.00  0.00    +0.000 C 
ATOM     24  C   UNL     1       8.246   5.714  19.288  0.00  0.00    +0.000 C 
ENDBRANCH   1  23
TORSDOF 3
ENDMDL
MODEL 6
REMARK VINA RESULT:      -7.6      3.365      4.925
REMARK  Name = 
REMARK  6 active torsions:
REMARK  status: ('A' for Active; 'I' for Inactive)
REMARK    1  A    between atoms: C_1  and  C_2
REMARK    2  A    between atoms: C_2  and  C_3
REMARK    3  A    between atoms: C_2  and  C_4
REMARK    4  A    between atoms: C_6  and  C_7
REMARK    5  A    between atoms: C_6  and  C_8
REMARK    6  A    between atoms: C_12  and  C_13
REMARK                            x       y       z     vdW  Elec       q    Type
REMARK                         _______ _______ _______ _____ _____    ______ ____
ROOT
ATOM      1  C   UNL     1       6.780   5.404  15.882  0.00  0.00    +0.000 C 
ATOM      2  N   UNL     1       6.113   6.509  15.829  0.00  0.00    +0.000 NA
ATOM      3  C   UNL     1       6.043   6.943  17.250  0.00  0.00    +0.000 C 
ATOM      4  C   UNL     1       6.642   8.348  17.339  0.00  0.00    +0.000 C 
ATOM      5  N   UNL     1       6.882   6.027  18.080  0.00  0.00    +0.000 NA
ATOM      6  C   UNL     1       7.242   5.093  17.266  0.00  0.00    +0.000 C 
ATOM      7  N   UNL     1       7.970   4.008  17.639  0.00  0.00    +0.000 N 
ATOM      8  H   UNL     1       8.378   4.100  18.565  0.00  0.00    +0.000 HD
ATOM      9  H   UNL     1       8.584   3.577  16.962  0.00  0.00    +0.000 HD
ENDROOT
BRANCH   3  10
ATOM     10  C   UNL     1       4.597   6.950  17.749  0.00  0.00    +0.000 A 
ATOM     11  C   UNL     1       3.719   7.997  17.440  0.00  0.00    +0.000 A 
ATOM     12  C   UNL     1       2.396   7.963  17.872  0.00  0.00    +0.000 A 
ATOM     13  C   UNL     1       1.930   6.879  18.621  0.00  0.00    +0.000 A 
ATOM     14  C   UNL     1       2.778   5.815  18.975  0.00  0.00    +0.000 A 
ATOM     15  C   UNL     1       4.113   5.885  18.535  0.00  0.00    +0.000 A 
BRANCH  14  16
ATOM     16  C   UNL     1       2.297   4.663  19.768  0.00  0.00    +0.000 A 
ATOM     17  C   UNL     1       1.491   3.657  19.217  0.00  0.00    +0.000 A 
ATOM     18  C   UNL     1       1.047   2.591  19.999  0.00  0.00    +0.000 A 
ATOM     19  C   UNL     1       1.414   2.554  21.332  0.00  0.00    +0.000 A 
ATOM     20  N   UNL     1       2.188   3.488  21.916  0.00  0.00    +0.000 NA
ATOM     21  C   UNL     1       2.609   4.508  21.123  0.00  0.00    +0.000 A 
ENDBRANCH  14  16
ENDBRANCH   3  10
BRANCH   1  23
ATOM     22  C   UNL     1       5.717   3.864  14.287  0.00  0.00    +0.000 C 
ATOM     23  C   UNL     1       7.038   4.487  14.723  0.00  0.00    +0.000 C 
ATOM     24  C   UNL     1       7.688   5.251  13.569  0.00  0.00    +0.000 C 
ENDBRANCH   1  23
TORSDOF 3
ENDMDL
MODEL 7
REMARK VINA RESULT:      -7.6      1.145      1.465
REMARK  Name = 
REMARK  6 active torsions:
REMARK  status: ('A' for Active; 'I' for Inactive)
REMARK    1  A    between atoms: C_1  and  C_2
REMARK    2  A    between atoms: C_2  and  C_3
REMARK    3  A    between atoms: C_2  and  C_4
REMARK    4  A    between atoms: C_6  and  C_7
REMARK    5  A    between atoms: C_6  and  C_8
REMARK    6  A    between atoms: C_12  and  C_13
REMARK                            x       y       z     vdW  Elec       q    Type
REMARK                         _______ _______ _______ _____ _____    ______ ____
ROOT
ATOM      1  C   UNL     1       4.194   4.665  18.331  0.00  0.00    +0.000 C 
ATOM      2  N   UNL     1       4.142   5.497  19.317  0.00  0.00    +0.000 NA
ATOM      3  C   UNL     1       2.684   5.663  19.558  0.00  0.00    +0.000 C 
ATOM      4  C   UNL     1       2.407   5.296  21.017  0.00  0.00    +0.000 C 
ATOM      5  N   UNL     1       1.936   4.706  18.689  0.00  0.00    +0.000 NA
ATOM      6  C   UNL     1       2.839   4.186  17.929  0.00  0.00    +0.000 C 
ATOM      7  N   UNL     1       2.569   3.302  16.932  0.00  0.00    +0.000 N 
ATOM      8  H   UNL     1       1.624   2.933  16.973  0.00  0.00    +0.000 HD
ATOM      9  H   UNL     1       3.268   2.614  16.688  0.00  0.00    +0.000 HD
ENDROOT
BRANCH   3  10
ATOM     10  C   UNL     1       2.243   7.102  19.279  0.00  0.00    +0.000 A 
ATOM     11  C   UNL     1       2.525   7.732  18.061  0.00  0.00    +0.000 A 
ATOM     12  C   UNL     1       2.078   9.028  17.814  0.00  0.00    +0.000 A 
ATOM     13  C   UNL     1       1.344   9.714  18.786  0.00  0.00    +0.000 A 
ATOM     14  C   UNL     1       1.056   9.132  20.032  0.00  0.00    +0.000 A 
ATOM     15  C   UNL     1       1.531   7.826  20.256  0.00  0.00    +0.000 A 
BRANCH  14  16
ATOM     16  C   UNL     1       0.281   9.848  21.068  0.00  0.00    +0.000 A 
ATOM     17  C   UNL     1      -0.023   9.273  22.310  0.00  0.00    +0.000 A 
ATOM     18  C   UNL     1      -0.766   9.975  23.259  0.00  0.00    +0.000 A 
ATOM     19  C   UNL     1      -1.202  11.248  22.943  0.00  0.00    +0.000 A 
ATOM     20  N   UNL     1      -0.940  11.854  21.769  0.00  0.00    +0.000 NA
ATOM     21  C   UNL     1      -0.208  11.144  20.872  0.00  0.00    +0.000 A 
ENDBRANCH  14  16
ENDBRANCH   3  10
BRANCH   1  23
ATOM     22  C   UNL     1       5.417   4.819  16.203  0.00  0.00    +0.000 C 
ATOM     23  C   UNL     1       5.442   4.241  17.614  0.00  0.00    +0.000 C 
ATOM     24  C   UNL     1       6.682   4.712  18.373  0.00  0.00    +0.000 C 
ENDBRANCH   1  23
TORSDOF 3
ENDMDL
MODEL 8
REMARK VINA RESULT:      -7.5      1.621      2.891
REMARK  Name = 
REMARK  6 active torsions:
REMARK  status: ('A' for Active; 'I' for Inactive)
REMARK    1  A    between atoms: C_1  and  C_2
REMARK    2  A    between atoms: C_2  and  C_3
REMARK    3  A    between atoms: C_2  and  C_4
REMARK    4  A    between atoms: C_6  and  C_7
REMARK    5  A    between atoms: C_6  and  C_8
REMARK    6  A    between atoms: C_12  and  C_13
REMARK                            x       y       z     vdW  Elec       q    Type
REMARK                         _______ _______ _______ _____ _____    ______ ____
ROOT
ATOM      1  C   UNL     1       6.226   5.365  17.720  0.00  0.00    +0.000 C 
ATOM      2  N   UNL     1       5.684   4.579  18.589  0.00  0.00    +0.000 NA
ATOM      3  C   UNL     1       4.310   4.368  18.060  0.00  0.00    +0.000 C 
ATOM      4  C   UNL     1       4.102   2.861  17.891  0.00  0.00    +0.000 C 
ATOM      5  N   UNL     1       4.205   5.005  16.713  0.00  0.00    +0.000 NA
ATOM      6  C   UNL     1       5.316   5.644  16.571  0.00  0.00    +0.000 C 
ATOM      7  N   UNL     1       5.604   6.426  15.497  0.00  0.00    +0.000 N 
ATOM      8  H   UNL     1       4.955   6.299  14.726  0.00  0.00    +0.000 HD
ATOM      9  H   UNL     1       6.569   6.523  15.209  0.00  0.00    +0.000 HD
ENDROOT
BRANCH   3  10
ATOM     10  C   UNL     1       3.261   4.944  19.013  0.00  0.00    +0.000 A 
ATOM     11  C   UNL     1       2.663   4.159  20.007  0.00  0.00    +0.000 A 
ATOM     12  C   UNL     1       1.741   4.716  20.890  0.00  0.00    +0.000 A 
ATOM     13  C   UNL     1       1.401   6.068  20.789  0.00  0.00    +0.000 A 
ATOM     14  C   UNL     1       1.958   6.891  19.794  0.00  0.00    +0.000 A 
ATOM     15  C   UNL     1       2.877   6.296  18.910  0.00  0.00    +0.000 A 
BRANCH  14  16
ATOM     16  C   UNL     1       1.606   8.322  19.678  0.00  0.00    +0.000 A 
ATOM     17  C   UNL     1       1.748   9.035  18.479  0.00  0.00    +0.000 A 
ATOM     18  C   UNL     1       1.416  10.387  18.409  0.00  0.00    +0.000 A 
ATOM     19  C   UNL     1       0.949  11.011  19.552  0.00  0.00    +0.000 A 
ATOM     20  N   UNL     1       0.788  10.379  20.731  0.00  0.00    +0.000 NA
ATOM     21  C   UNL     1       1.115   9.061  20.760  0.00  0.00    +0.000 A 
ENDBRANCH  14  16
ENDBRANCH   3  10
BRANCH   1  23
ATOM     22  C   UNL     1       7.467   7.484  17.585  0.00  0.00    +0.000 C 
ATOM     23  C   UNL     1       7.588   5.985  17.836  0.00  0.00    +0.000 C 
ATOM     24  C   UNL     1       8.186   5.710  19.216  0.00  0.00    +0.000 C 
ENDBRANCH   1  23
TORSDOF 3
ENDMDL
MODEL 9
REMARK VINA RESULT:      -7.4      3.553      7.989
REMARK  Name = 
REMARK  6 active torsions:
REMARK  status: ('A' for Active; 'I' for Inactive)
REMARK    1  A    between atoms: C_1  and  C_2
REMARK    2  A    between atoms: C_2  and  C_3
REMARK    3  A    between atoms: C_2  and  C_4
REMARK    4  A    between atoms: C_6  and  C_7
REMARK    5  A    between atoms: C_6  and  C_8
REMARK    6  A    between atoms: C_12  and  C_13
REMARK                            x       y       z     vdW  Elec       q    Type
REMARK                         _______ _______ _______ _____ _____    ______ ____
ROOT
ATOM      1  C   UNL     1       2.724   4.149  19.928  0.00  0.00    +0.000 C 
ATOM      2  N   UNL     1       3.427   5.229  19.851  0.00  0.00    +0.000 NA
ATOM      3  C   UNL     1       3.479   5.509  18.391  0.00  0.00    +0.000 C 
ATOM      4  C   UNL     1       2.925   6.916  18.165  0.00  0.00    +0.000 C 
ATOM      5  N   UNL     1       2.592   4.541  17.679  0.00  0.00    +0.000 NA
ATOM      6  C   UNL     1       2.220   3.711  18.594  0.00  0.00    +0.000 C 
ATOM      7  N   UNL     1       1.448   2.618  18.352  0.00  0.00    +0.000 N 
ATOM      8  H   UNL     1       1.023   2.627  17.430  0.00  0.00    +0.000 HD
ATOM      9  H   UNL     1       0.836   2.283  19.083  0.00  0.00    +0.000 HD
ENDROOT
BRANCH   3  10
ATOM     10  C   UNL     1       4.913   5.412  17.866  0.00  0.00    +0.000 A 
ATOM     11  C   UNL     1       6.017   5.572  18.713  0.00  0.00    +0.000 A 
ATOM     12  C   UNL     1       7.313   5.441  18.220  0.00  0.00    +0.000 A 
ATOM     13  C   UNL     1       7.523   5.148  16.870  0.00  0.00    +0.000 A 
ATOM     14  C   UNL     1       6.448   5.000  15.976  0.00  0.00    +0.000 A 
ATOM     15  C   UNL     1       5.152   5.151  16.502  0.00  0.00    +0.000 A 
BRANCH  14  16
ATOM     16  C   UNL     1       6.659   4.691  14.545  0.00  0.00    +0.000 A 
ATOM     17  C   UNL     1       7.628   5.344  13.771  0.00  0.00    +0.000 A 
ATOM     18  C   UNL     1       7.791   5.034  12.421  0.00  0.00    +0.000 A 
ATOM     19  C   UNL     1       6.970   4.072  11.863  0.00  0.00    +0.000 A 
ATOM     20  N   UNL     1       6.024   3.409  12.555  0.00  0.00    +0.000 NA
ATOM     21  C   UNL     1       5.898   3.731  13.869  0.00  0.00    +0.000 A 
ENDBRANCH  14  16
ENDBRANCH   3  10
BRANCH   1  23
ATOM     22  C   UNL     1       0.989   2.976  21.217  0.00  0.00    +0.000 C 
ATOM     23  C   UNL     1       2.462   3.368  21.182  0.00  0.00    +0.000 C 
ATOM     24  C   UNL     1       3.357   2.130  21.240  0.00  0.00    +0.000 C 
ENDBRANCH   1  23
TORSDOF 3
ENDMDL
