MODEL 1
REMARK VINA RESULT:      -8.3      0.000      0.000
REMARK  Name = 
REMARK  10 active torsions:
REMARK  status: ('A' for Active; 'I' for Inactive)
REMARK    1  A    between atoms: C_1  and  O_2
REMARK    2  A    between atoms: O_2  and  C_3
REMARK    3  A    between atoms: C_6  and  C_7
REMARK    4  A    between atoms: C_9  and  N_10
REMARK    5  A    between atoms: C_11  and  C_13
REMARK    6  A    between atoms: C_13  and  C_14
REMARK    7  A    between atoms: C_14  and  C_15
REMARK    8  A    between atoms: C_15  and  O_16
REMARK    9  A    between atoms: O_16  and  C_17
REMARK   10  A    between atoms: N_21  and  C_22
REMARK                            x       y       z     vdW  Elec       q    Type
REMARK                         _______ _______ _______ _____ _____    ______ ____
ROOT
ATOM      1  C   UNL     1       8.363   7.846  18.547  0.00  0.00    +0.000 C 
ENDROOT
BRANCH   1   2
ATOM      2  C   UNL     1       7.646   7.077  17.437  0.00  0.00    +0.000 C 
BRANCH   2   4
ATOM      3  N   UNL     1       5.353   6.248  17.202  0.00  0.00    +0.000 N 
ATOM      4  C   UNL     1       6.511   6.220  17.962  0.00  0.00    +0.000 C 
ATOM      5  O   UNL     1       6.682   5.596  19.008  0.00  0.00    +0.000 OA
ATOM      6  H   UNL     1       5.387   6.641  16.267  0.00  0.00    +0.000 HD
BRANCH   3  13
ATOM      7  C   UNL     1       3.017   6.363  17.931  0.00  0.00    +0.000 A 
ATOM      8  C   UNL     1       1.798   5.721  18.203  0.00  0.00    +0.000 A 
ATOM      9  C   UNL     1       1.680   4.336  18.100  0.00  0.00    +0.000 A 
ATOM     10  C   UNL     1       2.779   3.566  17.729  0.00  0.00    +0.000 A 
ATOM     11  C   UNL     1       2.680   2.074  17.609  0.00  0.00    +0.000 C 
ATOM     12  C   UNL     1       3.995   4.203  17.451  0.00  0.00    +0.000 A 
ATOM     13  C   UNL     1       4.128   5.595  17.520  0.00  0.00    +0.000 A 
BRANCH   7  15
ATOM     14  C   UNL     1       2.010   8.516  17.858  0.00  0.00    +0.000 C 
ATOM     15  O   UNL     1       3.191   7.728  18.017  0.00  0.00    +0.000 OA
ENDBRANCH   7  15
ENDBRANCH   3  13
ENDBRANCH   2   4
ENDBRANCH   1   2
BRANCH   1  16
ATOM     16  C   UNL     1       8.459   9.352  18.286  0.00  0.00    +0.000 C 
BRANCH  16  17
ATOM     17  O   UNL     1       9.341   9.934  19.258  0.00  0.00    +0.000 OA
BRANCH  17  18
ATOM     18  C   UNL     1       9.836  11.200  18.993  0.00  0.00    +0.000 A 
ATOM     19  C   UNL     1      10.409  11.593  17.847  0.00  0.00    +0.000 A 
ATOM     20  C   UNL     1      10.937  12.958  17.642  0.00  0.00    +0.000 A 
ATOM     21  O   UNL     1      11.442  13.223  16.550  0.00  0.00    +0.000 OA
ATOM     22  N   UNL     1      10.833  13.851  18.697  0.00  0.00    +0.000 N 
ATOM     23  C   UNL     1      11.377  15.186  18.517  0.00  0.00    +0.000 C 
ATOM     24  C   UNL     1      10.215  13.486  19.932  0.00  0.00    +0.000 A 
ATOM     25  C   UNL     1      10.093  14.405  20.986  0.00  0.00    +0.000 A 
ATOM     26  C   UNL     1       9.488  14.040  22.191  0.00  0.00    +0.000 A 
ATOM     27  C   UNL     1       8.995  12.751  22.353  0.00  0.00    +0.000 A 
ATOM     28  C   UNL     1       9.106  11.827  21.314  0.00  0.00    +0.000 A 
ATOM     29  C   UNL     1       9.714  12.178  20.095  0.00  0.00    +0.000 A 
ENDBRANCH  17  18
ENDBRANCH  16  17
ENDBRANCH   1  16
TORSDOF 7
ENDMDL
MODEL 2
REMARK VINA RESULT:      -8.0      1.757      3.154
REMARK  Name = 
REMARK  10 active torsions:
REMARK  status: ('A' for Active; 'I' for Inactive)
REMARK    1  A    between atoms: C_1  and  O_2
REMARK    2  A    between atoms: O_2  and  C_3
REMARK    3  A    between atoms: C_6  and  C_7
REMARK    4  A    between atoms: C_9  and  N_10
REMARK    5  A    between atoms: C_11  and  C_13
REMARK    6  A    between atoms: C_13  and  C_14
REMARK    7  A    between atoms: C_14  and  C_15
REMARK    8  A    between atoms: C_15  and  O_16
REMARK    9  A    between atoms: O_16  and  C_17
REMARK   10  A    between atoms: N_21  and  C_22
REMARK                            x       y       z     vdW  Elec       q    Type
REMARK                         _______ _______ _______ _____ _____    ______ ____
ROOT
ATOM      1  C   UNL     1       7.951   8.112  17.623  0.00  0.00    +0.000 C 
ENDROOT
BRANCH   1   2
ATOM      2  C   UNL     1       8.200   7.083  18.727  0.00  0.00    +0.000 C 
BRANCH   2   4
ATOM      3  N   UNL     1       5.976   6.249  18.128  0.00  0.00    +0.000 N 
ATOM      4  C   UNL     1       7.203   5.941  18.693  0.00  0.00    +0.000 C 
ATOM      5  O   UNL     1       7.533   4.859  19.175  0.00  0.00    +0.000 OA
ATOM      6  H   UNL     1       5.881   7.107  17.595  0.00  0.00    +0.000 HD
BRANCH   3  13
ATOM      7  C   UNL     1       4.783   4.426  17.009  0.00  0.00    +0.000 A 
ATOM      8  C   UNL     1       3.694   3.541  16.956  0.00  0.00    +0.000 A 
ATOM      9  C   UNL     1       2.668   3.612  17.898  0.00  0.00    +0.000 A 
ATOM     10  C   UNL     1       2.708   4.571  18.905  0.00  0.00    +0.000 A 
ATOM     11  C   UNL     1       1.619   4.670  19.931  0.00  0.00    +0.000 C 
ATOM     12  C   UNL     1       3.796   5.452  18.965  0.00  0.00    +0.000 A 
ATOM     13  C   UNL     1       4.851   5.380  18.047  0.00  0.00    +0.000 A 
BRANCH   7  15
ATOM     14  C   UNL     1       5.591   5.085  14.872  0.00  0.00    +0.000 C 
ATOM     15  O   UNL     1       5.824   4.402  16.106  0.00  0.00    +0.000 OA
ENDBRANCH   7  15
ENDBRANCH   3  13
ENDBRANCH   2   4
ENDBRANCH   1   2
BRANCH   1  16
ATOM     16  C   UNL     1       8.064   9.563  18.102  0.00  0.00    +0.000 C 
BRANCH  16  17
ATOM     17  O   UNL     1       9.376   9.769  18.646  0.00  0.00    +0.000 OA
BRANCH  17  18
ATOM     18  C   UNL     1       9.565  10.881  19.450  0.00  0.00    +0.000 A 
ATOM     19  C   UNL     1       9.161  11.005  20.721  0.00  0.00    +0.000 A 
ATOM     20  C   UNL     1       9.378  12.234  21.514  0.00  0.00    +0.000 A 
ATOM     21  O   UNL     1       8.973  12.249  22.677  0.00  0.00    +0.000 OA
ATOM     22  N   UNL     1      10.020  13.293  20.893  0.00  0.00    +0.000 N 
ATOM     23  C   UNL     1      10.211  14.517  21.653  0.00  0.00    +0.000 C 
ATOM     24  C   UNL     1      10.486  13.203  19.545  0.00  0.00    +0.000 A 
ATOM     25  C   UNL     1      11.156  14.274  18.932  0.00  0.00    +0.000 A 
ATOM     26  C   UNL     1      11.608  14.178  17.614  0.00  0.00    +0.000 A 
ATOM     27  C   UNL     1      11.396  13.008  16.895  0.00  0.00    +0.000 A 
ATOM     28  C   UNL     1      10.732  11.935  17.490  0.00  0.00    +0.000 A 
ATOM     29  C   UNL     1      10.270  12.015  18.816  0.00  0.00    +0.000 A 
ENDBRANCH  17  18
ENDBRANCH  16  17
ENDBRANCH   1  16
TORSDOF 7
ENDMDL
MODEL 3
REMARK VINA RESULT:      -8.0      1.325      2.645
REMARK  Name = 
REMARK  10 active torsions:
REMARK  status: ('A' for Active; 'I' for Inactive)
REMARK    1  A    between atoms: C_1  and  O_2
REMARK    2  A    between atoms: O_2  and  C_3
REMARK    3  A    between atoms: C_6  and  C_7
REMARK    4  A    between atoms: C_9  and  N_10
REMARK    5  A    between atoms: C_11  and  C_13
REMARK    6  A    between atoms: C_13  and  C_14
REMARK    7  A    between atoms: C_14  and  C_15
REMARK    8  A    between atoms: C_15  and  O_16
REMARK    9  A    between atoms: O_16  and  C_17
REMARK   10  A    between atoms: N_21  and  C_22
REMARK                            x       y       z     vdW  Elec       q    Type
REMARK                         _______ _______ _______ _____ _____    ______ ____
ROOT
ATOM      1  C   UNL     1       7.632   8.637  17.686  0.00  0.00    +0.000 C 
ENDROOT
BRANCH   1   2
ATOM      2  C   UNL     1       7.747   7.154  17.332  0.00  0.00    +0.000 C 
BRANCH   2   4
ATOM      3  N   UNL     1       5.729   6.010  18.119  0.00  0.00    +0.000 N 
ATOM      4  C   UNL     1       6.403   6.524  17.023  0.00  0.00    +0.000 C 
ATOM      5  O   UNL     1       6.026   6.490  15.853  0.00  0.00    +0.000 OA
ATOM      6  H   UNL     1       6.042   6.261  19.051  0.00  0.00    +0.000 HD
BRANCH   3  13
ATOM      7  C   UNL     1       3.283   6.025  17.980  0.00  0.00    +0.000 A 
ATOM      8  C   UNL     1       2.068   5.325  17.904  0.00  0.00    +0.000 A 
ATOM      9  C   UNL     1       2.041   3.932  17.957  0.00  0.00    +0.000 A 
ATOM     10  C   UNL     1       3.225   3.213  18.094  0.00  0.00    +0.000 A 
ATOM     11  C   UNL     1       3.224   1.715  18.155  0.00  0.00    +0.000 C 
ATOM     12  C   UNL     1       4.439   3.907  18.166  0.00  0.00    +0.000 A 
ATOM     13  C   UNL     1       4.493   5.305  18.085  0.00  0.00    +0.000 A 
BRANCH   7  15
ATOM     14  C   UNL     1       2.283   8.111  18.526  0.00  0.00    +0.000 C 
ATOM     15  O   UNL     1       3.371   7.400  17.933  0.00  0.00    +0.000 OA
ENDBRANCH   7  15
ENDBRANCH   3  13
ENDBRANCH   2   4
ENDBRANCH   1   2
BRANCH   1  16
ATOM     16  C   UNL     1       8.665   9.104  18.716  0.00  0.00    +0.000 C 
BRANCH  16  17
ATOM     17  O   UNL     1       9.338  10.263  18.202  0.00  0.00    +0.000 OA
BRANCH  17  18
ATOM     18  C   UNL     1       9.591  11.298  19.088  0.00  0.00    +0.000 A 
ATOM     19  C   UNL     1       9.249  11.322  20.383  0.00  0.00    +0.000 A 
ATOM     20  C   UNL     1       9.530  12.474  21.264  0.00  0.00    +0.000 A 
ATOM     21  O   UNL     1       9.180  12.398  22.443  0.00  0.00    +0.000 OA
ATOM     22  N   UNL     1      10.169  13.570  20.705  0.00  0.00    +0.000 N 
ATOM     23  C   UNL     1      10.423  14.720  21.555  0.00  0.00    +0.000 C 
ATOM     24  C   UNL     1      10.570  13.585  19.334  0.00  0.00    +0.000 A 
ATOM     25  C   UNL     1      11.237  14.691  18.782  0.00  0.00    +0.000 A 
ATOM     26  C   UNL     1      11.625  14.698  17.440  0.00  0.00    +0.000 A 
ATOM     27  C   UNL     1      11.352  13.599  16.636  0.00  0.00    +0.000 A 
ATOM     28  C   UNL     1      10.691  12.492  17.170  0.00  0.00    +0.000 A 
ATOM     29  C   UNL     1      10.293  12.468  18.519  0.00  0.00    +0.000 A 
ENDBRANCH  17  18
ENDBRANCH  16  17
ENDBRANCH   1  16
TORSDOF 7
ENDMDL
MODEL 4
REMARK VINA RESULT:      -7.9      6.425      9.824
REMARK  Name = 
REMARK  10 active torsions:
REMARK  status: ('A' for Active; 'I' for Inactive)
REMARK    1  A    between atoms: C_1  and  O_2
REMARK    2  A    between atoms: O_2  and  C_3
REMARK    3  A    between atoms: C_6  and  C_7
REMARK    4  A    between atoms: C_9  and  N_10
REMARK    5  A    between atoms: C_11  and  C_13
REMARK    6  A    between atoms: C_13  and  C_14
REMARK    7  A    between atoms: C_14  and  C_15
REMARK    8  A    between atoms: C_15  and  O_16
REMARK    9  A    between atoms: O_16  and  C_17
REMARK   10  A    between atoms: N_21  and  C_22
REMARK                            x       y       z     vdW  Elec       q    Type
REMARK                         _______ _______ _______ _____ _____    ______ ____
ROOT
ATOM      1  C   UNL     1       0.805   9.135  20.456  0.00  0.00    +0.000 C 
ENDROOT
BRANCH   1   2
ATOM      2  C   UNL     1       0.709  10.661  20.442  0.00  0.00    +0.000 C 
BRANCH   2   4
ATOM      3  N   UNL     1      -1.369  10.505  19.154  0.00  0.00    +0.000 N 
ATOM      4  C   UNL     1      -0.169  11.178  19.319  0.00  0.00    +0.000 C 
ATOM      5  O   UNL     1       0.242  12.115  18.637  0.00  0.00    +0.000 OA
ATOM      6  H   UNL     1      -1.687   9.879  19.886  0.00  0.00    +0.000 HD
BRANCH   3  13
ATOM      7  C   UNL     1      -3.457  11.546  18.408  0.00  0.00    +0.000 A 
ATOM      8  C   UNL     1      -4.379  11.817  17.383  0.00  0.00    +0.000 A 
ATOM      9  C   UNL     1      -4.207  11.284  16.107  0.00  0.00    +0.000 A 
ATOM     10  C   UNL     1      -3.116  10.465  15.831  0.00  0.00    +0.000 A 
ATOM     11  C   UNL     1      -2.907   9.878  14.467  0.00  0.00    +0.000 C 
ATOM     12  C   UNL     1      -2.191  10.197  16.848  0.00  0.00    +0.000 A 
ATOM     13  C   UNL     1      -2.327  10.746  18.129  0.00  0.00    +0.000 A 
BRANCH   7  15
ATOM     14  C   UNL     1      -4.901  12.384  20.100  0.00  0.00    +0.000 C 
ATOM     15  O   UNL     1      -3.575  12.045  19.687  0.00  0.00    +0.000 OA
ENDBRANCH   7  15
ENDBRANCH   3  13
ENDBRANCH   2   4
ENDBRANCH   1   2
BRANCH   1  16
ATOM     16  C   UNL     1       1.824   8.576  19.457  0.00  0.00    +0.000 C 
BRANCH  16  17
ATOM     17  O   UNL     1       1.869   7.148  19.594  0.00  0.00    +0.000 OA
BRANCH  17  18
ATOM     18  C   UNL     1       2.697   6.451  18.730  0.00  0.00    +0.000 A 
ATOM     19  C   UNL     1       3.679   6.980  17.988  0.00  0.00    +0.000 A 
ATOM     20  C   UNL     1       4.509   6.176  17.067  0.00  0.00    +0.000 A 
ATOM     21  O   UNL     1       5.390   6.756  16.430  0.00  0.00    +0.000 OA
ATOM     22  N   UNL     1       4.238   4.820  16.976  0.00  0.00    +0.000 N 
ATOM     23  C   UNL     1       5.029   4.026  16.052  0.00  0.00    +0.000 C 
ATOM     24  C   UNL     1       3.215   4.205  17.761  0.00  0.00    +0.000 A 
ATOM     25  C   UNL     1       2.964   2.826  17.679  0.00  0.00    +0.000 A 
ATOM     26  C   UNL     1       1.960   2.232  18.449  0.00  0.00    +0.000 A 
ATOM     27  C   UNL     1       1.199   3.012  19.311  0.00  0.00    +0.000 A 
ATOM     28  C   UNL     1       1.438   4.384  19.404  0.00  0.00    +0.000 A 
ATOM     29  C   UNL     1       2.443   4.997  18.635  0.00  0.00    +0.000 A 
ENDBRANCH  17  18
ENDBRANCH  16  17
ENDBRANCH   1  16
TORSDOF 7
ENDMDL
MODEL 5
REMARK VINA RESULT:      -7.9      5.711      7.875
REMARK  Name = 
REMARK  10 active torsions:
REMARK  status: ('A' for Active; 'I' for Inactive)
REMARK    1  A    between atoms: C_1  and  O_2
REMARK    2  A    between atoms: O_2  and  C_3
REMARK    3  A    between atoms: C_6  and  C_7
REMARK    4  A    between atoms: C_9  and  N_10
REMARK    5  A    between atoms: C_11  and  C_13
REMARK    6  A    between atoms: C_13  and  C_14
REMARK    7  A    between atoms: C_14  and  C_15
REMARK    8  A    between atoms: C_15  and  O_16
REMARK    9  A    between atoms: O_16  and  C_17
REMARK   10  A    between atoms: N_21  and  C_22
REMARK                            x       y       z     vdW  Elec       q    Type
REMARK                         _______ _______ _______ _____ _____    ______ ____
ROOT
ATOM      1  C   UNL     1       2.624   5.261  20.483  0.00  0.00    +0.000 C 
ENDROOT
BRANCH   1   2
ATOM      2  C   UNL     1       2.530   3.803  20.033  0.00  0.00    +0.000 C 
BRANCH   2   4
ATOM      3  N   UNL     1       4.291   4.533  18.494  0.00  0.00    +0.000 N 
ATOM      4  C   UNL     1       3.527   3.466  18.941  0.00  0.00    +0.000 C 
ATOM      5  O   UNL     1       3.571   2.311  18.522  0.00  0.00    +0.000 OA
ATOM      6  H   UNL     1       4.305   5.389  19.036  0.00  0.00    +0.000 HD
BRANCH   3  13
ATOM      7  C   UNL     1       6.614   4.608  17.720  0.00  0.00    +0.000 A 
ATOM      8  C   UNL     1       7.547   4.528  16.674  0.00  0.00    +0.000 A 
ATOM      9  C   UNL     1       7.130   4.366  15.353  0.00  0.00    +0.000 A 
ATOM     10  C   UNL     1       5.773   4.287  15.053  0.00  0.00    +0.000 A 
ATOM     11  C   UNL     1       5.296   4.113  13.642  0.00  0.00    +0.000 C 
ATOM     12  C   UNL     1       4.839   4.361  16.094  0.00  0.00    +0.000 A 
ATOM     13  C   UNL     1       5.236   4.495  17.430  0.00  0.00    +0.000 A 
BRANCH   7  15
ATOM     14  C   UNL     1       7.806   5.890  19.328  0.00  0.00    +0.000 C 
ATOM     15  O   UNL     1       6.968   4.769  19.042  0.00  0.00    +0.000 OA
ENDBRANCH   7  15
ENDBRANCH   3  13
ENDBRANCH   2   4
ENDBRANCH   1   2
BRANCH   1  16
ATOM     16  C   UNL     1       1.262   5.911  20.747  0.00  0.00    +0.000 C 
BRANCH  16  17
ATOM     17  O   UNL     1       1.471   7.177  21.390  0.00  0.00    +0.000 OA
BRANCH  17  18
ATOM     18  C   UNL     1       1.251   8.318  20.636  0.00  0.00    +0.000 A 
ATOM     19  C   UNL     1       1.696   8.533  19.391  0.00  0.00    +0.000 A 
ATOM     20  C   UNL     1       1.442   9.789  18.655  0.00  0.00    +0.000 A 
ATOM     21  O   UNL     1       1.890   9.888  17.512  0.00  0.00    +0.000 OA
ATOM     22  N   UNL     1       0.717  10.777  19.302  0.00  0.00    +0.000 N 
ATOM     23  C   UNL     1       0.486  12.027  18.599  0.00  0.00    +0.000 C 
ATOM     24  C   UNL     1       0.204  10.589  20.622  0.00  0.00    +0.000 A 
ATOM     25  C   UNL     1      -0.549  11.587  21.261  0.00  0.00    +0.000 A 
ATOM     26  C   UNL     1      -1.046  11.395  22.553  0.00  0.00    +0.000 A 
ATOM     27  C   UNL     1      -0.796  10.202  23.219  0.00  0.00    +0.000 A 
ATOM     28  C   UNL     1      -0.050   9.200  22.597  0.00  0.00    +0.000 A 
ATOM     29  C   UNL     1       0.458   9.377  21.298  0.00  0.00    +0.000 A 
ENDBRANCH  17  18
ENDBRANCH  16  17
ENDBRANCH   1  16
TORSDOF 7
ENDMDL
MODEL 6
REMARK VINA RESULT:      -7.9      1.285      2.045
REMARK  Name = 
REMARK  10 active torsions:
REMARK  status: ('A' for Active; 'I' for Inactive)
REMARK    1  A    between atoms: C_1  and  O_2
REMARK    2  A    between atoms: O_2  and  C_3
REMARK    3  A    between atoms: C_6  and  C_7
REMARK    4  A    between atoms: C_9  and  N_10
REMARK    5  A    between atoms: C_11  and  C_13
REMARK    6  A    between atoms: C_13  and  C_14
REMARK    7  A    between atoms: C_14  and  C_15
REMARK    8  A    between atoms: C_15  and  O_16
REMARK    9  A    between atoms: O_16  and  C_17
REMARK   10  A    between atoms: N_21  and  C_22
REMARK                            x       y       z     vdW  Elec       q    Type
REMARK                         _______ _______ _______ _____ _____    ______ ____
ROOT
ATOM      1  C   UNL     1       8.180   7.981  18.574  0.00  0.00    +0.000 C 
ENDROOT
BRANCH   1   2
ATOM      2  C   UNL     1       7.855   7.067  17.392  0.00  0.00    +0.000 C 
BRANCH   2   4
ATOM      3  N   UNL     1       6.057   5.556  18.089  0.00  0.00    +0.000 N 
ATOM      4  C   UNL     1       6.390   6.676  17.344  0.00  0.00    +0.000 C 
ATOM      5  O   UNL     1       5.627   7.344  16.649  0.00  0.00    +0.000 OA
ATOM      6  H   UNL     1       6.721   5.201  18.768  0.00  0.00    +0.000 HD
BRANCH   3  13
ATOM      7  C   UNL     1       4.429   3.956  17.201  0.00  0.00    +0.000 A 
ATOM      8  C   UNL     1       3.178   3.324  17.287  0.00  0.00    +0.000 A 
ATOM      9  C   UNL     1       2.263   3.679  18.278  0.00  0.00    +0.000 A 
ATOM     10  C   UNL     1       2.579   4.676  19.197  0.00  0.00    +0.000 A 
ATOM     11  C   UNL     1       1.614   5.078  20.272  0.00  0.00    +0.000 C 
ATOM     12  C   UNL     1       3.827   5.305  19.117  0.00  0.00    +0.000 A 
ATOM     13  C   UNL     1       4.773   4.945  18.149  0.00  0.00    +0.000 A 
BRANCH   7  15
ATOM     14  C   UNL     1       5.196   4.280  14.974  0.00  0.00    +0.000 C 
ATOM     15  O   UNL     1       5.371   3.647  16.243  0.00  0.00    +0.000 OA
ENDBRANCH   7  15
ENDBRANCH   3  13
ENDBRANCH   2   4
ENDBRANCH   1   2
BRANCH   1  16
ATOM     16  C   UNL     1       8.489   9.425  18.164  0.00  0.00    +0.000 C 
BRANCH  16  17
ATOM     17  O   UNL     1       9.320  10.023  19.170  0.00  0.00    +0.000 OA
BRANCH  17  18
ATOM     18  C   UNL     1       9.854  11.271  18.897  0.00  0.00    +0.000 A 
ATOM     19  C   UNL     1      10.416  11.646  17.740  0.00  0.00    +0.000 A 
ATOM     20  C   UNL     1      10.988  12.993  17.528  0.00  0.00    +0.000 A 
ATOM     21  O   UNL     1      11.479  13.243  16.426  0.00  0.00    +0.000 OA
ATOM     22  N   UNL     1      10.937  13.886  18.586  0.00  0.00    +0.000 N 
ATOM     23  C   UNL     1      11.523  15.202  18.397  0.00  0.00    +0.000 C 
ATOM     24  C   UNL     1      10.331  13.540  19.832  0.00  0.00    +0.000 A 
ATOM     25  C   UNL     1      10.264  14.461  20.891  0.00  0.00    +0.000 A 
ATOM     26  C   UNL     1       9.670  14.113  22.107  0.00  0.00    +0.000 A 
ATOM     27  C   UNL     1       9.136  12.843  22.277  0.00  0.00    +0.000 A 
ATOM     28  C   UNL     1       9.194  11.917  21.234  0.00  0.00    +0.000 A 
ATOM     29  C   UNL     1       9.788  12.250  20.003  0.00  0.00    +0.000 A 
ENDBRANCH  17  18
ENDBRANCH  16  17
ENDBRANCH   1  16
TORSDOF 7
ENDMDL
MODEL 7
REMARK VINA RESULT:      -7.8      6.083      9.921
REMARK  Name = 
REMARK  10 active torsions:
REMARK  status: ('A' for Active; 'I' for Inactive)
REMARK    1  A    between atoms: C_1  and  O_2
REMARK    2  A    between atoms: O_2  and  C_3
REMARK    3  A    between atoms: C_6  and  C_7
REMARK    4  A    between atoms: C_9  and  N_10
REMARK    5  A    between atoms: C_11  and  C_13
REMARK    6  A    between atoms: C_13  and  C_14
REMARK    7  A    between atoms: C_14  and  C_15
REMARK    8  A    between atoms: C_15  and  O_16
REMARK    9  A    between atoms: O_16  and  C_17
REMARK   10  A    between atoms: N_21  and  C_22
REMARK                            x       y       z     vdW  Elec       q    Type
REMARK                         _______ _______ _______ _____ _____    ______ ____
ROOT
ATOM      1  C   UNL     1       1.236   9.602  18.575  0.00  0.00    +0.000 C 
ENDROOT
BRANCH   1   2
ATOM      2  C   UNL     1       1.546  11.099  18.536  0.00  0.00    +0.000 C 
BRANCH   2   4
ATOM      3  N   UNL     1      -0.267  11.190  20.181  0.00  0.00    +0.000 N 
ATOM      4  C   UNL     1       0.551  11.920  19.334  0.00  0.00    +0.000 C 
ATOM      5  O   UNL     1       0.522  13.137  19.161  0.00  0.00    +0.000 OA
ATOM      6  H   UNL     1      -0.030  10.225  20.383  0.00  0.00    +0.000 HD
BRANCH   3  13
ATOM      7  C   UNL     1      -1.260  11.611  22.380  0.00  0.00    +0.000 A 
ATOM      8  C   UNL     1      -2.287  12.165  23.162  0.00  0.00    +0.000 A 
ATOM      9  C   UNL     1      -3.382  12.789  22.567  0.00  0.00    +0.000 A 
ATOM     10  C   UNL     1      -3.476  12.865  21.180  0.00  0.00    +0.000 A 
ATOM     11  C   UNL     1      -4.643  13.530  20.513  0.00  0.00    +0.000 C 
ATOM     12  C   UNL     1      -2.451  12.318  20.397  0.00  0.00    +0.000 A 
ATOM     13  C   UNL     1      -1.328  11.713  20.974  0.00  0.00    +0.000 A 
BRANCH   7  15
ATOM     14  C   UNL     1      -0.326   9.603  23.246  0.00  0.00    +0.000 C 
ATOM     15  O   UNL     1      -0.155  10.982  22.914  0.00  0.00    +0.000 OA
ENDBRANCH   7  15
ENDBRANCH   3  13
ENDBRANCH   2   4
ENDBRANCH   1   2
BRANCH   1  16
ATOM     16  C   UNL     1       2.176   8.759  17.708  0.00  0.00    +0.000 C 
BRANCH  16  17
ATOM     17  O   UNL     1       2.507   7.557  18.420  0.00  0.00    +0.000 OA
BRANCH  17  18
ATOM     18  C   UNL     1       3.390   6.680  17.813  0.00  0.00    +0.000 A 
ATOM     19  C   UNL     1       4.538   7.016  17.209  0.00  0.00    +0.000 A 
ATOM     20  C   UNL     1       5.422   6.026  16.560  0.00  0.00    +0.000 A 
ATOM     21  O   UNL     1       6.459   6.435  16.035  0.00  0.00    +0.000 OA
ATOM     22  N   UNL     1       5.023   4.699  16.581  0.00  0.00    +0.000 N 
ATOM     23  C   UNL     1       5.870   3.721  15.919  0.00  0.00    +0.000 C 
ATOM     24  C   UNL     1       3.818   4.287  17.227  0.00  0.00    +0.000 A 
ATOM     25  C   UNL     1       3.434   2.936  17.263  0.00  0.00    +0.000 A 
ATOM     26  C   UNL     1       2.253   2.543  17.898  0.00  0.00    +0.000 A 
ATOM     27  C   UNL     1       1.444   3.495  18.505  0.00  0.00    +0.000 A 
ATOM     28  C   UNL     1       1.813   4.841  18.478  0.00  0.00    +0.000 A 
ATOM     29  C   UNL     1       2.998   5.254  17.844  0.00  0.00    +0.000 A 
ENDBRANCH  17  18
ENDBRANCH  16  17
ENDBRANCH   1  16
TORSDOF 7
ENDMDL
MODEL 8
REMARK VINA RESULT:      -7.8      6.518     10.244
REMARK  Name = 
REMARK  10 active torsions:
REMARK  status: ('A' for Active; 'I' for Inactive)
REMARK    1  A    between atoms: C_1  and  O_2
REMARK    2  A    between atoms: O_2  and  C_3
REMARK    3  A    between atoms: C_6  and  C_7
REMARK    4  A    between atoms: C_9  and  N_10
REMARK    5  A    between atoms: C_11  and  C_13
REMARK    6  A    between atoms: C_13  and  C_14
REMARK    7  A    between atoms: C_14  and  C_15
REMARK    8  A    between atoms: C_15  and  O_16
REMARK    9  A    between atoms: O_16  and  C_17
REMARK   10  A    between atoms: N_21  and  C_22
REMARK                            x       y       z     vdW  Elec       q    Type
REMARK                         _______ _______ _______ _____ _____    ______ ____
ROOT
ATOM      1  C   UNL     1       1.558   9.237  17.966  0.00  0.00    +0.000 C 
ENDROOT
BRANCH   1   2
ATOM      2  C   UNL     1       1.328  10.652  18.498  0.00  0.00    +0.000 C 
BRANCH   2   4
ATOM      3  N   UNL     1      -0.061  11.677  20.236  0.00  0.00    +0.000 N 
ATOM      4  C   UNL     1      -0.030  10.813  19.153  0.00  0.00    +0.000 C 
ATOM      5  O   UNL     1      -0.977  10.168  18.708  0.00  0.00    +0.000 OA
ATOM      6  H   UNL     1       0.728  12.295  20.395  0.00  0.00    +0.000 HD
BRANCH   3  13
ATOM      7  C   UNL     1      -1.169  11.532  22.415  0.00  0.00    +0.000 A 
ATOM      8  C   UNL     1      -2.266  11.829  23.241  0.00  0.00    +0.000 A 
ATOM      9  C   UNL     1      -3.381  12.497  22.736  0.00  0.00    +0.000 A 
ATOM     10  C   UNL     1      -3.425  12.874  21.397  0.00  0.00    +0.000 A 
ATOM     11  C   UNL     1      -4.612  13.592  20.828  0.00  0.00    +0.000 C 
ATOM     12  C   UNL     1      -2.331  12.584  20.572  0.00  0.00    +0.000 A 
ATOM     13  C   UNL     1      -1.189  11.940  21.064  0.00  0.00    +0.000 A 
BRANCH   7  15
ATOM     14  C   UNL     1      -0.242   9.531  23.303  0.00  0.00    +0.000 C 
ATOM     15  O   UNL     1      -0.042  10.875  22.859  0.00  0.00    +0.000 OA
ENDBRANCH   7  15
ENDBRANCH   3  13
ENDBRANCH   2   4
ENDBRANCH   1   2
BRANCH   1  16
ATOM     16  C   UNL     1       1.848   8.209  19.065  0.00  0.00    +0.000 C 
BRANCH  16  17
ATOM     17  O   UNL     1       3.084   7.545  18.760  0.00  0.00    +0.000 OA
BRANCH  17  18
ATOM     18  C   UNL     1       3.051   6.167  18.626  0.00  0.00    +0.000 A 
ATOM     19  C   UNL     1       2.330   5.324  19.378  0.00  0.00    +0.000 A 
ATOM     20  C   UNL     1       2.362   3.858  19.192  0.00  0.00    +0.000 A 
ATOM     21  O   UNL     1       1.659   3.168  19.932  0.00  0.00    +0.000 OA
ATOM     22  N   UNL     1       3.186   3.355  18.198  0.00  0.00    +0.000 N 
ATOM     23  C   UNL     1       3.248   1.913  18.027  0.00  0.00    +0.000 C 
ATOM     24  C   UNL     1       3.960   4.213  17.358  0.00  0.00    +0.000 A 
ATOM     25  C   UNL     1       4.774   3.695  16.338  0.00  0.00    +0.000 A 
ATOM     26  C   UNL     1       5.528   4.541  15.522  0.00  0.00    +0.000 A 
ATOM     27  C   UNL     1       5.474   5.916  15.716  0.00  0.00    +0.000 A 
ATOM     28  C   UNL     1       4.669   6.446  16.724  0.00  0.00    +0.000 A 
ATOM     29  C   UNL     1       3.904   5.608  17.555  0.00  0.00    +0.000 A 
ENDBRANCH  17  18
ENDBRANCH  16  17
ENDBRANCH   1  16
TORSDOF 7
ENDMDL
MODEL 9
REMARK VINA RESULT:      -7.8      6.545     10.034
REMARK  Name = 
REMARK  10 active torsions:
REMARK  status: ('A' for Active; 'I' for Inactive)
REMARK    1  A    between atoms: C_1  and  O_2
REMARK    2  A    between atoms: O_2  and  C_3
REMARK    3  A    between atoms: C_6  and  C_7
REMARK    4  A    between atoms: C_9  and  N_10
REMARK    5  A    between atoms: C_11  and  C_13
REMARK    6  A    between atoms: C_13  and  C_14
REMARK    7  A    between atoms: C_14  and  C_15
REMARK    8  A    between atoms: C_15  and  O_16
REMARK    9  A    between atoms: O_16  and  C_17
REMARK   10  A    between atoms: N_21  and  C_22
REMARK                            x       y       z     vdW  Elec       q    Type
REMARK                         _______ _______ _______ _____ _____    ______ ____
ROOT
ATOM      1  C   UNL     1       1.969   9.248  17.842  0.00  0.00    +0.000 C 
ENDROOT
BRANCH   1   2
ATOM      2  C   UNL     1       1.559  10.610  18.405  0.00  0.00    +0.000 C 
BRANCH   2   4
ATOM      3  N   UNL     1      -0.769  11.070  17.796  0.00  0.00    +0.000 N 
ATOM      4  C   UNL     1       0.095  10.659  18.798  0.00  0.00    +0.000 C 
ATOM      5  O   UNL     1      -0.213  10.364  19.951  0.00  0.00    +0.000 OA
ATOM      6  H   UNL     1      -0.433  11.104  16.839  0.00  0.00    +0.000 HD
BRANCH   3  13
ATOM      7  C   UNL     1      -3.047  10.765  16.947  0.00  0.00    +0.000 A 
ATOM      8  C   UNL     1      -4.433  10.929  17.106  0.00  0.00    +0.000 A 
ATOM      9  C   UNL     1      -4.951  11.608  18.208  0.00  0.00    +0.000 A 
ATOM     10  C   UNL     1      -4.096  12.142  19.168  0.00  0.00    +0.000 A 
ATOM     11  C   UNL     1      -4.626  12.877  20.362  0.00  0.00    +0.000 C 
ATOM     12  C   UNL     1      -2.713  11.976  19.016  0.00  0.00    +0.000 A 
ATOM     13  C   UNL     1      -2.171  11.272  17.932  0.00  0.00    +0.000 A 
BRANCH   7  15
ATOM     14  C   UNL     1      -3.156  10.246  14.630  0.00  0.00    +0.000 C 
ATOM     15  O   UNL     1      -2.478  10.104  15.880  0.00  0.00    +0.000 OA
ENDBRANCH   7  15
ENDBRANCH   3  13
ENDBRANCH   2   4
ENDBRANCH   1   2
BRANCH   1  16
ATOM     16  C   UNL     1       1.604   8.073  18.755  0.00  0.00    +0.000 C 
BRANCH  16  17
ATOM     17  O   UNL     1       2.811   7.412  19.162  0.00  0.00    +0.000 OA
BRANCH  17  18
ATOM     18  C   UNL     1       2.900   6.049  18.934  0.00  0.00    +0.000 A 
ATOM     19  C   UNL     1       2.282   5.095  19.643  0.00  0.00    +0.000 A 
ATOM     20  C   UNL     1       2.442   3.654  19.355  0.00  0.00    +0.000 A 
ATOM     21  O   UNL     1       1.828   2.853  20.062  0.00  0.00    +0.000 OA
ATOM     22  N   UNL     1       3.278   3.297  18.309  0.00  0.00    +0.000 N 
ATOM     23  C   UNL     1       3.466   1.882  18.038  0.00  0.00    +0.000 C 
ATOM     24  C   UNL     1       3.944   4.277  17.513  0.00  0.00    +0.000 A 
ATOM     25  C   UNL     1       4.771   3.906  16.440  0.00  0.00    +0.000 A 
ATOM     26  C   UNL     1       5.419   4.872  15.666  0.00  0.00    +0.000 A 
ATOM     27  C   UNL     1       5.246   6.220  15.956  0.00  0.00    +0.000 A 
ATOM     28  C   UNL     1       4.427   6.604  17.018  0.00  0.00    +0.000 A 
ATOM     29  C   UNL     1       3.767   5.645  17.807  0.00  0.00    +0.000 A 
ENDBRANCH  17  18
ENDBRANCH  16  17
ENDBRANCH   1  16
TORSDOF 7
ENDMDL
