MODEL 1
REMARK VINA RESULT:      -7.4      0.000      0.000
REMARK  Name = 
REMARK  15 active torsions:
REMARK  status: ('A' for Active; 'I' for Inactive)
REMARK    1  A    between atoms: C_1  and  C_2
REMARK    2  A    between atoms: N_4  and  C_5
REMARK    3  A    between atoms: C_5  and  C_6
REMARK    4  A    between atoms: C_5  and  C_10
REMARK    5  A    between atoms: C_6  and  C_7
REMARK    6  A    between atoms: C_7  and  C_8
REMARK    7  A    between atoms: C_7  and  C_9
REMARK    8  A    between atoms: N_12  and  C_13
REMARK    9  A    between atoms: C_13  and  C_14
REMARK   10  A    between atoms: C_13  and  C_21
REMARK   11  A    between atoms: C_14  and  C_15
REMARK   12  A    between atoms: C_21  and  O_23
REMARK   13  A    between atoms: O_23  and  C_24
REMARK   14  A    between atoms: C_24  and  C_25
REMARK   15  A    between atoms: C_25  and  O_27
REMARK                            x       y       z     vdW  Elec       q    Type
REMARK                         _______ _______ _______ _____ _____    ______ ____
ROOT
ATOM      1  C   UNL     1       2.419   6.912  18.625  0.00  0.00    +0.000 C 
ENDROOT
BRANCH   1   4
ATOM      2  C   UNL     1       4.174   5.546  17.469  0.00  0.00    +0.000 C 
ATOM      3  O   UNL     1       3.385   4.639  17.207  0.00  0.00    +0.000 OA
ATOM      4  N   UNL     1       3.807   6.641  18.221  0.00  0.00    +0.000 N 
ATOM      5  H   UNL     1       4.491   7.358  18.436  0.00  0.00    +0.000 HD
BRANCH   2   6
ATOM      6  C   UNL     1       5.639   5.561  16.943  0.00  0.00    +0.000 C 
BRANCH   6  10
ATOM      7  C   UNL     1       6.541   4.227  13.474  0.00  0.00    +0.000 C 
ATOM      8  C   UNL     1       6.755   4.612  14.914  0.00  0.00    +0.000 C 
ATOM      9  O   UNL     1       7.859   4.514  15.446  0.00  0.00    +0.000 OA
ATOM     10  N   UNL     1       5.636   5.084  15.557  0.00  0.00    +0.000 N 
ATOM     11  H   UNL     1       4.727   4.945  15.131  0.00  0.00    +0.000 HD
ENDBRANCH   6  10
BRANCH   6  12
ATOM     12  C   UNL     1       6.170   7.007  17.028  0.00  0.00    +0.000 C 
BRANCH  12  13
ATOM     13  C   UNL     1       7.613   7.199  17.523  0.00  0.00    +0.000 C 
ATOM     14  C   UNL     1       7.852   8.692  17.792  0.00  0.00    +0.000 C 
ATOM     15  C   UNL     1       7.908   6.408  18.798  0.00  0.00    +0.000 C 
ENDBRANCH  12  13
ENDBRANCH   6  12
ENDBRANCH   2   6
ENDBRANCH   1   4
BRANCH   1  16
ATOM     16  C   UNL     1       2.094   8.375  18.290  0.00  0.00    +0.000 C 
ATOM     17  O   UNL     1       2.427   8.949  17.254  0.00  0.00    +0.000 OA
BRANCH  16  18
ATOM     18  O   UNL     1       1.296   8.950  19.227  0.00  0.00    +0.000 OA
BRANCH  18  19
ATOM     19  C   UNL     1       1.138  10.369  19.119  0.00  0.00    +0.000 C 
BRANCH  19  20
ATOM     20  C   UNL     1      -0.215  10.840  18.592  0.00  0.00    +0.000 C 
ATOM     21  O   UNL     1      -1.006  10.111  18.016  0.00  0.00    +0.000 OA
BRANCH  20  22
ATOM     22  O   UNL     1      -0.484  12.144  18.839  0.00  0.00    +0.000 OA
ATOM     23  H   UNL     1      -0.653  12.344  19.789  0.00  0.00    +0.000 HD
ENDBRANCH  20  22
ENDBRANCH  19  20
ENDBRANCH  18  19
ENDBRANCH  16  18
ENDBRANCH   1  16
BRANCH   1  24
ATOM     24  C   UNL     1       2.141   6.560  20.098  0.00  0.00    +0.000 C 
BRANCH  24  25
ATOM     25  C   UNL     1       1.917   5.084  20.339  0.00  0.00    +0.000 A 
ATOM     26  C   UNL     1       1.116   4.324  19.476  0.00  0.00    +0.000 A 
ATOM     27  C   UNL     1       0.840   2.986  19.765  0.00  0.00    +0.000 A 
ATOM     28  C   UNL     1       1.366   2.396  20.912  0.00  0.00    +0.000 A 
ATOM     29  C   UNL     1       2.196   3.131  21.754  0.00  0.00    +0.000 A 
ATOM     30  C   UNL     1       2.478   4.465  21.465  0.00  0.00    +0.000 A 
ENDBRANCH  24  25
ENDBRANCH   1  24
TORSDOF 12
ENDMDL
MODEL 2
REMARK VINA RESULT:      -7.4      3.195      7.386
REMARK  Name = 
REMARK  15 active torsions:
REMARK  status: ('A' for Active; 'I' for Inactive)
REMARK    1  A    between atoms: C_1  and  C_2
REMARK    2  A    between atoms: N_4  and  C_5
REMARK    3  A    between atoms: C_5  and  C_6
REMARK    4  A    between atoms: C_5  and  C_10
REMARK    5  A    between atoms: C_6  and  C_7
REMARK    6  A    between atoms: C_7  and  C_8
REMARK    7  A    between atoms: C_7  and  C_9
REMARK    8  A    between atoms: N_12  and  C_13
REMARK    9  A    between atoms: C_13  and  C_14
REMARK   10  A    between atoms: C_13  and  C_21
REMARK   11  A    between atoms: C_14  and  C_15
REMARK   12  A    between atoms: C_21  and  O_23
REMARK   13  A    between atoms: O_23  and  C_24
REMARK   14  A    between atoms: C_24  and  C_25
REMARK   15  A    between atoms: C_25  and  O_27
REMARK                            x       y       z     vdW  Elec       q    Type
REMARK                         _______ _______ _______ _____ _____    ______ ____
ROOT
ATOM      1  C   UNL     1       6.091   4.486  15.665  0.00  0.00    +0.000 C 
ENDROOT
BRANCH   1   4
ATOM      2  C   UNL     1       4.121   4.288  17.202  0.00  0.00    +0.000 C 
ATOM      3  O   UNL     1       4.521   3.227  17.680  0.00  0.00    +0.000 OA
ATOM      4  N   UNL     1       4.778   4.918  16.167  0.00  0.00    +0.000 N 
ATOM      5  H   UNL     1       4.405   5.779  15.782  0.00  0.00    +0.000 HD
BRANCH   2   6
ATOM      6  C   UNL     1       2.866   5.031  17.745  0.00  0.00    +0.000 C 
BRANCH   6  10
ATOM      7  C   UNL     1       1.202   2.908  20.455  0.00  0.00    +0.000 C 
ATOM      8  C   UNL     1       1.516   3.387  19.062  0.00  0.00    +0.000 C 
ATOM      9  O   UNL     1       0.954   2.911  18.079  0.00  0.00    +0.000 OA
ATOM     10  N   UNL     1       2.455   4.389  18.996  0.00  0.00    +0.000 N 
ATOM     11  H   UNL     1       3.023   4.588  19.812  0.00  0.00    +0.000 HD
ENDBRANCH   6  10
BRANCH   6  12
ATOM     12  C   UNL     1       3.242   6.508  17.980  0.00  0.00    +0.000 C 
BRANCH  12  13
ATOM     13  C   UNL     1       2.107   7.470  18.372  0.00  0.00    +0.000 C 
ATOM     14  C   UNL     1       2.043   7.566  19.902  0.00  0.00    +0.000 C 
ATOM     15  C   UNL     1       2.298   8.872  17.790  0.00  0.00    +0.000 C 
ENDBRANCH  12  13
ENDBRANCH   6  12
ENDBRANCH   2   6
ENDBRANCH   1   4
BRANCH   1  16
ATOM     16  C   UNL     1       7.152   4.843  16.716  0.00  0.00    +0.000 C 
ATOM     17  O   UNL     1       8.121   4.141  17.002  0.00  0.00    +0.000 OA
BRANCH  16  18
ATOM     18  O   UNL     1       6.965   6.087  17.231  0.00  0.00    +0.000 OA
BRANCH  18  19
ATOM     19  C   UNL     1       7.725   6.390  18.406  0.00  0.00    +0.000 C 
BRANCH  19  20
ATOM     20  C   UNL     1       7.348   5.595  19.654  0.00  0.00    +0.000 C 
ATOM     21  O   UNL     1       6.218   5.193  19.882  0.00  0.00    +0.000 OA
BRANCH  20  22
ATOM     22  O   UNL     1       8.384   5.347  20.488  0.00  0.00    +0.000 OA
ATOM     23  H   UNL     1       8.152   4.767  21.252  0.00  0.00    +0.000 HD
ENDBRANCH  20  22
ENDBRANCH  19  20
ENDBRANCH  18  19
ENDBRANCH  16  18
ENDBRANCH   1  16
BRANCH   1  24
ATOM     24  C   UNL     1       6.417   5.051  14.270  0.00  0.00    +0.000 C 
BRANCH  24  25
ATOM     25  C   UNL     1       6.127   4.088  13.141  0.00  0.00    +0.000 A 
ATOM     26  C   UNL     1       4.810   3.818  12.741  0.00  0.00    +0.000 A 
ATOM     27  C   UNL     1       4.554   2.854  11.764  0.00  0.00    +0.000 A 
ATOM     28  C   UNL     1       5.608   2.159  11.174  0.00  0.00    +0.000 A 
ATOM     29  C   UNL     1       6.921   2.450  11.533  0.00  0.00    +0.000 A 
ATOM     30  C   UNL     1       7.180   3.415  12.506  0.00  0.00    +0.000 A 
ENDBRANCH  24  25
ENDBRANCH   1  24
TORSDOF 12
ENDMDL
MODEL 3
REMARK VINA RESULT:      -7.1      2.601      7.349
REMARK  Name = 
REMARK  15 active torsions:
REMARK  status: ('A' for Active; 'I' for Inactive)
REMARK    1  A    between atoms: C_1  and  C_2
REMARK    2  A    between atoms: N_4  and  C_5
REMARK    3  A    between atoms: C_5  and  C_6
REMARK    4  A    between atoms: C_5  and  C_10
REMARK    5  A    between atoms: C_6  and  C_7
REMARK    6  A    between atoms: C_7  and  C_8
REMARK    7  A    between atoms: C_7  and  C_9
REMARK    8  A    between atoms: N_12  and  C_13
REMARK    9  A    between atoms: C_13  and  C_14
REMARK   10  A    between atoms: C_13  and  C_21
REMARK   11  A    between atoms: C_14  and  C_15
REMARK   12  A    between atoms: C_21  and  O_23
REMARK   13  A    between atoms: O_23  and  C_24
REMARK   14  A    between atoms: C_24  and  C_25
REMARK   15  A    between atoms: C_25  and  O_27
REMARK                            x       y       z     vdW  Elec       q    Type
REMARK                         _______ _______ _______ _____ _____    ______ ____
ROOT
ATOM      1  C   UNL     1       2.669   5.776  19.634  0.00  0.00    +0.000 C 
ENDROOT
BRANCH   1   4
ATOM      2  C   UNL     1       1.828   8.135  19.534  0.00  0.00    +0.000 C 
ATOM      3  O   UNL     1       1.808   8.143  18.304  0.00  0.00    +0.000 OA
ATOM      4  N   UNL     1       2.308   7.061  20.251  0.00  0.00    +0.000 N 
ATOM      5  H   UNL     1       2.331   7.099  21.265  0.00  0.00    +0.000 HD
BRANCH   2   6
ATOM      6  C   UNL     1       1.279   9.314  20.389  0.00  0.00    +0.000 C 
BRANCH   6  10
ATOM      7  C   UNL     1       0.740  12.764  18.829  0.00  0.00    +0.000 C 
ATOM      8  C   UNL     1       1.109  11.760  19.890  0.00  0.00    +0.000 C 
ATOM      9  O   UNL     1       1.452  12.114  21.016  0.00  0.00    +0.000 OA
ATOM     10  N   UNL     1       1.016  10.447  19.497  0.00  0.00    +0.000 N 
ATOM     11  H   UNL     1       0.931  10.232  18.510  0.00  0.00    +0.000 HD
ENDBRANCH   6  10
BRANCH   6  12
ATOM     12  C   UNL     1      -0.016   8.847  21.085  0.00  0.00    +0.000 C 
BRANCH  12  13
ATOM     13  C   UNL     1      -0.144   9.122  22.593  0.00  0.00    +0.000 C 
ATOM     14  C   UNL     1       1.262   9.264  23.193  0.00  0.00    +0.000 C 
ATOM     15  C   UNL     1      -0.947  10.388  22.894  0.00  0.00    +0.000 C 
ENDBRANCH  12  13
ENDBRANCH   6  12
ENDBRANCH   2   6
ENDBRANCH   1   4
BRANCH   1  16
ATOM     16  C   UNL     1       1.959   4.652  20.403  0.00  0.00    +0.000 C 
ATOM     17  O   UNL     1       2.247   4.291  21.544  0.00  0.00    +0.000 OA
BRANCH  16  18
ATOM     18  O   UNL     1       0.892   4.160  19.721  0.00  0.00    +0.000 OA
BRANCH  18  19
ATOM     19  C   UNL     1       0.992   2.788  19.322  0.00  0.00    +0.000 C 
BRANCH  19  20
ATOM     20  C   UNL     1       1.916   2.516  18.138  0.00  0.00    +0.000 C 
ATOM     21  O   UNL     1       1.955   3.215  17.138  0.00  0.00    +0.000 OA
BRANCH  20  22
ATOM     22  O   UNL     1       2.717   1.436  18.295  0.00  0.00    +0.000 OA
ATOM     23  H   UNL     1       3.676   1.657  18.364  0.00  0.00    +0.000 HD
ENDBRANCH  20  22
ENDBRANCH  19  20
ENDBRANCH  18  19
ENDBRANCH  16  18
ENDBRANCH   1  16
BRANCH   1  24
ATOM     24  C   UNL     1       4.190   5.563  19.532  0.00  0.00    +0.000 C 
BRANCH  24  25
ATOM     25  C   UNL     1       4.701   5.487  18.111  0.00  0.00    +0.000 A 
ATOM     26  C   UNL     1       4.684   6.613  17.276  0.00  0.00    +0.000 A 
ATOM     27  C   UNL     1       5.068   6.504  15.938  0.00  0.00    +0.000 A 
ATOM     28  C   UNL     1       5.477   5.274  15.426  0.00  0.00    +0.000 A 
ATOM     29  C   UNL     1       5.537   4.160  16.258  0.00  0.00    +0.000 A 
ATOM     30  C   UNL     1       5.159   4.267  17.596  0.00  0.00    +0.000 A 
ENDBRANCH  24  25
ENDBRANCH   1  24
TORSDOF 12
ENDMDL
MODEL 4
REMARK VINA RESULT:      -6.9      2.565      5.076
REMARK  Name = 
REMARK  15 active torsions:
REMARK  status: ('A' for Active; 'I' for Inactive)
REMARK    1  A    between atoms: C_1  and  C_2
REMARK    2  A    between atoms: N_4  and  C_5
REMARK    3  A    between atoms: C_5  and  C_6
REMARK    4  A    between atoms: C_5  and  C_10
REMARK    5  A    between atoms: C_6  and  C_7
REMARK    6  A    between atoms: C_7  and  C_8
REMARK    7  A    between atoms: C_7  and  C_9
REMARK    8  A    between atoms: N_12  and  C_13
REMARK    9  A    between atoms: C_13  and  C_14
REMARK   10  A    between atoms: C_13  and  C_21
REMARK   11  A    between atoms: C_14  and  C_15
REMARK   12  A    between atoms: C_21  and  O_23
REMARK   13  A    between atoms: O_23  and  C_24
REMARK   14  A    between atoms: C_24  and  C_25
REMARK   15  A    between atoms: C_25  and  O_27
REMARK                            x       y       z     vdW  Elec       q    Type
REMARK                         _______ _______ _______ _____ _____    ______ ____
ROOT
ATOM      1  C   UNL     1       3.048   4.779  19.333  0.00  0.00    +0.000 C 
ENDROOT
BRANCH   1   4
ATOM      2  C   UNL     1       5.422   4.943  18.545  0.00  0.00    +0.000 C 
ATOM      3  O   UNL     1       5.860   4.376  19.546  0.00  0.00    +0.000 OA
ATOM      4  N   UNL     1       4.087   5.249  18.403  0.00  0.00    +0.000 N 
ATOM      5  H   UNL     1       3.766   5.738  17.574  0.00  0.00    +0.000 HD
BRANCH   2   6
ATOM      6  C   UNL     1       6.326   5.328  17.338  0.00  0.00    +0.000 C 
BRANCH   6  10
ATOM      7  C   UNL     1       5.556   4.171  13.775  0.00  0.00    +0.000 C 
ATOM      8  C   UNL     1       6.377   4.726  14.910  0.00  0.00    +0.000 C 
ATOM      9  O   UNL     1       7.532   5.108  14.737  0.00  0.00    +0.000 OA
ATOM     10  N   UNL     1       5.727   4.776  16.119  0.00  0.00    +0.000 N 
ATOM     11  H   UNL     1       4.862   4.259  16.237  0.00  0.00    +0.000 HD
ENDBRANCH   6  10
BRANCH   6  12
ATOM     12  C   UNL     1       6.408   6.867  17.265  0.00  0.00    +0.000 C 
BRANCH  12  13
ATOM     13  C   UNL     1       7.764   7.516  17.585  0.00  0.00    +0.000 C 
ATOM     14  C   UNL     1       7.582   9.039  17.656  0.00  0.00    +0.000 C 
ATOM     15  C   UNL     1       8.356   7.021  18.905  0.00  0.00    +0.000 C 
ENDBRANCH  12  13
ENDBRANCH   6  12
ENDBRANCH   2   6
ENDBRANCH   1   4
BRANCH   1  16
ATOM     16  C   UNL     1       1.917   4.141  18.513  0.00  0.00    +0.000 C 
ATOM     17  O   UNL     1       1.423   4.630  17.498  0.00  0.00    +0.000 OA
BRANCH  16  18
ATOM     18  O   UNL     1       1.584   2.907  18.974  0.00  0.00    +0.000 OA
BRANCH  18  19
ATOM     19  C   UNL     1       2.562   2.274  19.807  0.00  0.00    +0.000 C 
BRANCH  19  20
ATOM     20  C   UNL     1       3.759   1.674  19.073  0.00  0.00    +0.000 C 
ATOM     21  O   UNL     1       3.700   1.227  17.938  0.00  0.00    +0.000 OA
BRANCH  20  22
ATOM     22  O   UNL     1       4.913   1.698  19.779  0.00  0.00    +0.000 OA
ATOM     23  H   UNL     1       5.201   2.604  20.043  0.00  0.00    +0.000 HD
ENDBRANCH  20  22
ENDBRANCH  19  20
ENDBRANCH  18  19
ENDBRANCH  16  18
ENDBRANCH   1  16
BRANCH   1  24
ATOM     24  C   UNL     1       2.549   5.881  20.285  0.00  0.00    +0.000 C 
BRANCH  24  25
ATOM     25  C   UNL     1       2.267   7.197  19.598  0.00  0.00    +0.000 A 
ATOM     26  C   UNL     1       1.475   8.178  20.210  0.00  0.00    +0.000 A 
ATOM     27  C   UNL     1       1.143   9.348  19.524  0.00  0.00    +0.000 A 
ATOM     28  C   UNL     1       1.606   9.550  18.225  0.00  0.00    +0.000 A 
ATOM     29  C   UNL     1       2.428   8.601  17.623  0.00  0.00    +0.000 A 
ATOM     30  C   UNL     1       2.764   7.435  18.308  0.00  0.00    +0.000 A 
ENDBRANCH  24  25
ENDBRANCH   1  24
TORSDOF 12
ENDMDL
MODEL 5
REMARK VINA RESULT:      -6.8      1.857      2.621
REMARK  Name = 
REMARK  15 active torsions:
REMARK  status: ('A' for Active; 'I' for Inactive)
REMARK    1  A    between atoms: C_1  and  C_2
REMARK    2  A    between atoms: N_4  and  C_5
REMARK    3  A    between atoms: C_5  and  C_6
REMARK    4  A    between atoms: C_5  and  C_10
REMARK    5  A    between atoms: C_6  and  C_7
REMARK    6  A    between atoms: C_7  and  C_8
REMARK    7  A    between atoms: C_7  and  C_9
REMARK    8  A    between atoms: N_12  and  C_13
REMARK    9  A    between atoms: C_13  and  C_14
REMARK   10  A    between atoms: C_13  and  C_21
REMARK   11  A    between atoms: C_14  and  C_15
REMARK   12  A    between atoms: C_21  and  O_23
REMARK   13  A    between atoms: O_23  and  C_24
REMARK   14  A    between atoms: C_24  and  C_25
REMARK   15  A    between atoms: C_25  and  O_27
REMARK                            x       y       z     vdW  Elec       q    Type
REMARK                         _______ _______ _______ _____ _____    ______ ____
ROOT
ATOM      1  C   UNL     1       3.138   5.249  17.618  0.00  0.00    +0.000 C 
ENDROOT
BRANCH   1   4
ATOM      2  C   UNL     1       5.268   5.330  16.298  0.00  0.00    +0.000 C 
ATOM      3  O   UNL     1       5.010   6.438  15.832  0.00  0.00    +0.000 OA
ATOM      4  N   UNL     1       4.379   4.651  17.103  0.00  0.00    +0.000 N 
ATOM      5  H   UNL     1       4.616   3.728  17.451  0.00  0.00    +0.000 HD
BRANCH   2   6
ATOM      6  C   UNL     1       6.629   4.613  16.057  0.00  0.00    +0.000 C 
BRANCH   6  10
ATOM      7  C   UNL     1       7.906   5.454  12.552  0.00  0.00    +0.000 C 
ATOM      8  C   UNL     1       7.122   4.718  13.606  0.00  0.00    +0.000 C 
ATOM      9  O   UNL     1       6.427   3.744  13.325  0.00  0.00    +0.000 OA
ATOM     10  N   UNL     1       7.263   5.213  14.880  0.00  0.00    +0.000 N 
ATOM     11  H   UNL     1       7.677   6.130  15.010  0.00  0.00    +0.000 HD
ENDBRANCH   6  10
BRANCH   6  12
ATOM     12  C   UNL     1       7.505   4.801  17.312  0.00  0.00    +0.000 C 
BRANCH  12  13
ATOM     13  C   UNL     1       7.228   6.036  18.186  0.00  0.00    +0.000 C 
ATOM     14  C   UNL     1       7.852   5.815  19.571  0.00  0.00    +0.000 C 
ATOM     15  C   UNL     1       7.793   7.323  17.582  0.00  0.00    +0.000 C 
ENDBRANCH  12  13
ENDBRANCH   6  12
ENDBRANCH   2   6
ENDBRANCH   1   4
BRANCH   1  16
ATOM     16  C   UNL     1       3.482   6.090  18.856  0.00  0.00    +0.000 C 
ATOM     17  O   UNL     1       4.456   5.903  19.583  0.00  0.00    +0.000 OA
BRANCH  16  18
ATOM     18  O   UNL     1       2.642   7.147  19.006  0.00  0.00    +0.000 OA
BRANCH  18  19
ATOM     19  C   UNL     1       1.888   7.169  20.224  0.00  0.00    +0.000 C 
BRANCH  19  20
ATOM     20  C   UNL     1       1.388   8.544  20.661  0.00  0.00    +0.000 C 
ATOM     21  O   UNL     1       1.431   8.943  21.814  0.00  0.00    +0.000 OA
BRANCH  20  22
ATOM     22  O   UNL     1       0.908   9.307  19.651  0.00  0.00    +0.000 OA
ATOM     23  H   UNL     1       0.950   8.872  18.767  0.00  0.00    +0.000 HD
ENDBRANCH  20  22
ENDBRANCH  19  20
ENDBRANCH  18  19
ENDBRANCH  16  18
ENDBRANCH   1  16
BRANCH   1  24
ATOM     24  C   UNL     1       2.035   4.209  17.889  0.00  0.00    +0.000 C 
BRANCH  24  25
ATOM     25  C   UNL     1       2.126   3.568  19.255  0.00  0.00    +0.000 A 
ATOM     26  C   UNL     1       3.262   2.841  19.639  0.00  0.00    +0.000 A 
ATOM     27  C   UNL     1       3.291   2.175  20.865  0.00  0.00    +0.000 A 
ATOM     28  C   UNL     1       2.192   2.235  21.720  0.00  0.00    +0.000 A 
ATOM     29  C   UNL     1       1.076   2.989  21.367  0.00  0.00    +0.000 A 
ATOM     30  C   UNL     1       1.046   3.659  20.145  0.00  0.00    +0.000 A 
ENDBRANCH  24  25
ENDBRANCH   1  24
TORSDOF 12
ENDMDL
MODEL 6
REMARK VINA RESULT:      -6.8      2.543      5.040
REMARK  Name = 
REMARK  15 active torsions:
REMARK  status: ('A' for Active; 'I' for Inactive)
REMARK    1  A    between atoms: C_1  and  C_2
REMARK    2  A    between atoms: N_4  and  C_5
REMARK    3  A    between atoms: C_5  and  C_6
REMARK    4  A    between atoms: C_5  and  C_10
REMARK    5  A    between atoms: C_6  and  C_7
REMARK    6  A    between atoms: C_7  and  C_8
REMARK    7  A    between atoms: C_7  and  C_9
REMARK    8  A    between atoms: N_12  and  C_13
REMARK    9  A    between atoms: C_13  and  C_14
REMARK   10  A    between atoms: C_13  and  C_21
REMARK   11  A    between atoms: C_14  and  C_15
REMARK   12  A    between atoms: C_21  and  O_23
REMARK   13  A    between atoms: O_23  and  C_24
REMARK   14  A    between atoms: C_24  and  C_25
REMARK   15  A    between atoms: C_25  and  O_27
REMARK                            x       y       z     vdW  Elec       q    Type
REMARK                         _______ _______ _______ _____ _____    ______ ____
ROOT
ATOM      1  C   UNL     1       3.063   5.776  18.437  0.00  0.00    +0.000 C 
ENDROOT
BRANCH   1   4
ATOM      2  C   UNL     1       4.952   6.185  16.840  0.00  0.00    +0.000 C 
ATOM      3  O   UNL     1       4.433   7.206  16.390  0.00  0.00    +0.000 OA
ATOM      4  N   UNL     1       4.317   5.392  17.772  0.00  0.00    +0.000 N 
ATOM      5  H   UNL     1       4.766   4.544  18.103  0.00  0.00    +0.000 HD
BRANCH   2   6
ATOM      6  C   UNL     1       6.380   5.720  16.432  0.00  0.00    +0.000 C 
BRANCH   6  10
ATOM      7  C   UNL     1       6.161   3.778  13.144  0.00  0.00    +0.000 C 
ATOM      8  C   UNL     1       6.096   4.005  14.632  0.00  0.00    +0.000 C 
ATOM      9  O   UNL     1       5.851   3.086  15.410  0.00  0.00    +0.000 OA
ATOM     10  N   UNL     1       6.343   5.297  15.029  0.00  0.00    +0.000 N 
ATOM     11  H   UNL     1       6.332   6.037  14.336  0.00  0.00    +0.000 HD
ENDBRANCH   6  10
BRANCH   6  12
ATOM     12  C   UNL     1       7.350   6.903  16.627  0.00  0.00    +0.000 C 
BRANCH  12  13
ATOM     13  C   UNL     1       7.476   7.485  18.045  0.00  0.00    +0.000 C 
ATOM     14  C   UNL     1       8.080   6.417  18.968  0.00  0.00    +0.000 C 
ATOM     15  C   UNL     1       8.350   8.739  18.091  0.00  0.00    +0.000 C 
ENDBRANCH  12  13
ENDBRANCH   6  12
ENDBRANCH   2   6
ENDBRANCH   1   4
BRANCH   1  16
ATOM     16  C   UNL     1       2.105   4.576  18.394  0.00  0.00    +0.000 C 
ATOM     17  O   UNL     1       1.466   4.222  17.405  0.00  0.00    +0.000 OA
BRANCH  16  18
ATOM     18  O   UNL     1       2.118   3.870  19.555  0.00  0.00    +0.000 OA
BRANCH  18  19
ATOM     19  C   UNL     1       2.534   2.504  19.443  0.00  0.00    +0.000 C 
BRANCH  19  20
ATOM     20  C   UNL     1       4.037   2.286  19.285  0.00  0.00    +0.000 C 
ATOM     21  O   UNL     1       4.795   2.105  20.225  0.00  0.00    +0.000 OA
BRANCH  20  22
ATOM     22  O   UNL     1       4.466   2.287  18.002  0.00  0.00    +0.000 OA
ATOM     23  H   UNL     1       5.171   2.952  17.816  0.00  0.00    +0.000 HD
ENDBRANCH  20  22
ENDBRANCH  19  20
ENDBRANCH  18  19
ENDBRANCH  16  18
ENDBRANCH   1  16
BRANCH   1  24
ATOM     24  C   UNL     1       2.441   7.059  17.855  0.00  0.00    +0.000 C 
BRANCH  24  25
ATOM     25  C   UNL     1       1.920   8.012  18.906  0.00  0.00    +0.000 A 
ATOM     26  C   UNL     1       1.861   7.639  20.257  0.00  0.00    +0.000 A 
ATOM     27  C   UNL     1       1.288   8.494  21.200  0.00  0.00    +0.000 A 
ATOM     28  C   UNL     1       0.776   9.728  20.805  0.00  0.00    +0.000 A 
ATOM     29  C   UNL     1       0.868  10.126  19.474  0.00  0.00    +0.000 A 
ATOM     30  C   UNL     1       1.444   9.277  18.530  0.00  0.00    +0.000 A 
ENDBRANCH  24  25
ENDBRANCH   1  24
TORSDOF 12
ENDMDL
MODEL 7
REMARK VINA RESULT:      -6.8      2.264      7.515
REMARK  Name = 
REMARK  15 active torsions:
REMARK  status: ('A' for Active; 'I' for Inactive)
REMARK    1  A    between atoms: C_1  and  C_2
REMARK    2  A    between atoms: N_4  and  C_5
REMARK    3  A    between atoms: C_5  and  C_6
REMARK    4  A    between atoms: C_5  and  C_10
REMARK    5  A    between atoms: C_6  and  C_7
REMARK    6  A    between atoms: C_7  and  C_8
REMARK    7  A    between atoms: C_7  and  C_9
REMARK    8  A    between atoms: N_12  and  C_13
REMARK    9  A    between atoms: C_13  and  C_14
REMARK   10  A    between atoms: C_13  and  C_21
REMARK   11  A    between atoms: C_14  and  C_15
REMARK   12  A    between atoms: C_21  and  O_23
REMARK   13  A    between atoms: O_23  and  C_24
REMARK   14  A    between atoms: C_24  and  C_25
REMARK   15  A    between atoms: C_25  and  O_27
REMARK                            x       y       z     vdW  Elec       q    Type
REMARK                         _______ _______ _______ _____ _____    ______ ____
ROOT
ATOM      1  C   UNL     1       2.952   6.392  18.337  0.00  0.00    +0.000 C 
ENDROOT
BRANCH   1   4
ATOM      2  C   UNL     1       1.939   8.685  18.394  0.00  0.00    +0.000 C 
ATOM      3  O   UNL     1       2.432   8.998  17.312  0.00  0.00    +0.000 OA
ATOM      4  N   UNL     1       2.208   7.476  18.998  0.00  0.00    +0.000 N 
ATOM      5  H   UNL     1       1.801   7.261  19.902  0.00  0.00    +0.000 HD
BRANCH   2   6
ATOM      6  C   UNL     1       0.941   9.603  19.158  0.00  0.00    +0.000 C 
BRANCH   6  10
ATOM      7  C   UNL     1      -2.417  10.339  17.480  0.00  0.00    +0.000 C 
ATOM      8  C   UNL     1      -1.080  10.639  18.107  0.00  0.00    +0.000 C 
ATOM      9  O   UNL     1      -0.694  11.794  18.269  0.00  0.00    +0.000 OA
ATOM     10  N   UNL     1      -0.359   9.532  18.484  0.00  0.00    +0.000 N 
ATOM     11  H   UNL     1      -0.637   8.620  18.138  0.00  0.00    +0.000 HD
ENDBRANCH   6  10
BRANCH   6  12
ATOM     12  C   UNL     1       0.836   9.101  20.613  0.00  0.00    +0.000 C 
BRANCH  12  13
ATOM     13  C   UNL     1      -0.052   9.908  21.574  0.00  0.00    +0.000 C 
ATOM     14  C   UNL     1       0.184   9.408  23.007  0.00  0.00    +0.000 C 
ATOM     15  C   UNL     1       0.230  11.410  21.516  0.00  0.00    +0.000 C 
ENDBRANCH  12  13
ENDBRANCH   6  12
ENDBRANCH   2   6
ENDBRANCH   1   4
BRANCH   1  16
ATOM     16  C   UNL     1       2.306   5.054  18.726  0.00  0.00    +0.000 C 
ATOM     17  O   UNL     1       1.434   4.480  18.077  0.00  0.00    +0.000 OA
BRANCH  16  18
ATOM     18  O   UNL     1       2.885   4.509  19.829  0.00  0.00    +0.000 OA
BRANCH  18  19
ATOM     19  C   UNL     1       2.744   3.090  19.962  0.00  0.00    +0.000 C 
BRANCH  19  20
ATOM     20  C   UNL     1       3.801   2.256  19.241  0.00  0.00    +0.000 C 
ATOM     21  O   UNL     1       3.552   1.519  18.300  0.00  0.00    +0.000 OA
BRANCH  20  22
ATOM     22  O   UNL     1       5.057   2.418  19.718  0.00  0.00    +0.000 OA
ATOM     23  H   UNL     1       5.763   2.242  19.052  0.00  0.00    +0.000 HD
ENDBRANCH  20  22
ENDBRANCH  19  20
ENDBRANCH  18  19
ENDBRANCH  16  18
ENDBRANCH   1  16
BRANCH   1  24
ATOM     24  C   UNL     1       4.463   6.435  18.628  0.00  0.00    +0.000 C 
BRANCH  24  25
ATOM     25  C   UNL     1       5.306   5.770  17.563  0.00  0.00    +0.000 A 
ATOM     26  C   UNL     1       6.464   5.055  17.899  0.00  0.00    +0.000 A 
ATOM     27  C   UNL     1       7.284   4.530  16.899  0.00  0.00    +0.000 A 
ATOM     28  C   UNL     1       6.951   4.709  15.558  0.00  0.00    +0.000 A 
ATOM     29  C   UNL     1       5.781   5.381  15.214  0.00  0.00    +0.000 A 
ATOM     30  C   UNL     1       4.958   5.902  16.211  0.00  0.00    +0.000 A 
ENDBRANCH  24  25
ENDBRANCH   1  24
TORSDOF 12
ENDMDL
MODEL 8
REMARK VINA RESULT:      -6.8      2.412      5.670
REMARK  Name = 
REMARK  15 active torsions:
REMARK  status: ('A' for Active; 'I' for Inactive)
REMARK    1  A    between atoms: C_1  and  C_2
REMARK    2  A    between atoms: N_4  and  C_5
REMARK    3  A    between atoms: C_5  and  C_6
REMARK    4  A    between atoms: C_5  and  C_10
REMARK    5  A    between atoms: C_6  and  C_7
REMARK    6  A    between atoms: C_7  and  C_8
REMARK    7  A    between atoms: C_7  and  C_9
REMARK    8  A    between atoms: N_12  and  C_13
REMARK    9  A    between atoms: C_13  and  C_14
REMARK   10  A    between atoms: C_13  and  C_21
REMARK   11  A    between atoms: C_14  and  C_15
REMARK   12  A    between atoms: C_21  and  O_23
REMARK   13  A    between atoms: O_23  and  C_24
REMARK   14  A    between atoms: C_24  and  C_25
REMARK   15  A    between atoms: C_25  and  O_27
REMARK                            x       y       z     vdW  Elec       q    Type
REMARK                         _______ _______ _______ _____ _____    ______ ____
ROOT
ATOM      1  C   UNL     1       2.719   7.431  18.427  0.00  0.00    +0.000 C 
ENDROOT
BRANCH   1   4
ATOM      2  C   UNL     1       4.675   6.335  17.305  0.00  0.00    +0.000 C 
ATOM      3  O   UNL     1       5.408   7.305  17.495  0.00  0.00    +0.000 OA
ATOM      4  N   UNL     1       3.341   6.347  17.650  0.00  0.00    +0.000 N 
ATOM      5  H   UNL     1       2.761   5.538  17.457  0.00  0.00    +0.000 HD
BRANCH   2   6
ATOM      6  C   UNL     1       5.192   4.999  16.696  0.00  0.00    +0.000 C 
BRANCH   6  10
ATOM      7  C   UNL     1       3.305   2.131  18.381  0.00  0.00    +0.000 C 
ATOM      8  C   UNL     1       4.335   3.220  18.233  0.00  0.00    +0.000 C 
ATOM      9  O   UNL     1       5.179   3.426  19.102  0.00  0.00    +0.000 OA
ATOM     10  N   UNL     1       4.255   3.933  17.061  0.00  0.00    +0.000 N 
ATOM     11  H   UNL     1       3.421   3.853  16.490  0.00  0.00    +0.000 HD
ENDBRANCH   6  10
BRANCH   6  12
ATOM     12  C   UNL     1       5.273   5.163  15.165  0.00  0.00    +0.000 C 
BRANCH  12  13
ATOM     13  C   UNL     1       6.306   4.302  14.418  0.00  0.00    +0.000 C 
ATOM     14  C   UNL     1       5.621   3.636  13.216  0.00  0.00    +0.000 C 
ATOM     15  C   UNL     1       7.503   5.116  13.924  0.00  0.00    +0.000 C 
ENDBRANCH  12  13
ENDBRANCH   6  12
ENDBRANCH   2   6
ENDBRANCH   1   4
BRANCH   1  16
ATOM     16  C   UNL     1       2.202   6.845  19.748  0.00  0.00    +0.000 C 
ATOM     17  O   UNL     1       1.785   7.509  20.696  0.00  0.00    +0.000 OA
BRANCH  16  18
ATOM     18  O   UNL     1       2.154   5.487  19.721  0.00  0.00    +0.000 OA
BRANCH  18  19
ATOM     19  C   UNL     1       2.329   4.837  20.986  0.00  0.00    +0.000 C 
BRANCH  19  20
ATOM     20  C   UNL     1       1.510   3.565  21.188  0.00  0.00    +0.000 C 
ATOM     21  O   UNL     1       1.741   2.746  22.064  0.00  0.00    +0.000 OA
BRANCH  20  22
ATOM     22  O   UNL     1       0.479   3.424  20.323  0.00  0.00    +0.000 OA
ATOM     23  H   UNL     1       0.523   2.602  19.779  0.00  0.00    +0.000 HD
ENDBRANCH  20  22
ENDBRANCH  19  20
ENDBRANCH  18  19
ENDBRANCH  16  18
ENDBRANCH   1  16
BRANCH   1  24
ATOM     24  C   UNL     1       1.632   8.187  17.642  0.00  0.00    +0.000 C 
BRANCH  24  25
ATOM     25  C   UNL     1       1.394   9.597  18.135  0.00  0.00    +0.000 A 
ATOM     26  C   UNL     1       0.170   9.965  18.711  0.00  0.00    +0.000 A 
ATOM     27  C   UNL     1      -0.069  11.291  19.073  0.00  0.00    +0.000 A 
ATOM     28  C   UNL     1       0.914  12.259  18.871  0.00  0.00    +0.000 A 
ATOM     29  C   UNL     1       2.149  11.896  18.339  0.00  0.00    +0.000 A 
ATOM     30  C   UNL     1       2.391  10.570  17.981  0.00  0.00    +0.000 A 
ENDBRANCH  24  25
ENDBRANCH   1  24
TORSDOF 12
ENDMDL
MODEL 9
REMARK VINA RESULT:      -6.8      2.465      4.711
REMARK  Name = 
REMARK  15 active torsions:
REMARK  status: ('A' for Active; 'I' for Inactive)
REMARK    1  A    between atoms: C_1  and  C_2
REMARK    2  A    between atoms: N_4  and  C_5
REMARK    3  A    between atoms: C_5  and  C_6
REMARK    4  A    between atoms: C_5  and  C_10
REMARK    5  A    between atoms: C_6  and  C_7
REMARK    6  A    between atoms: C_7  and  C_8
REMARK    7  A    between atoms: C_7  and  C_9
REMARK    8  A    between atoms: N_12  and  C_13
REMARK    9  A    between atoms: C_13  and  C_14
REMARK   10  A    between atoms: C_13  and  C_21
REMARK   11  A    between atoms: C_14  and  C_15
REMARK   12  A    between atoms: C_21  and  O_23
REMARK   13  A    between atoms: O_23  and  C_24
REMARK   14  A    between atoms: C_24  and  C_25
REMARK   15  A    between atoms: C_25  and  O_27
REMARK                            x       y       z     vdW  Elec       q    Type
REMARK                         _______ _______ _______ _____ _____    ______ ____
ROOT
ATOM      1  C   UNL     1       3.018   6.128  18.343  0.00  0.00    +0.000 C 
ENDROOT
BRANCH   1   4
ATOM      2  C   UNL     1       5.287   5.079  18.156  0.00  0.00    +0.000 C 
ATOM      3  O   UNL     1       5.204   4.552  19.265  0.00  0.00    +0.000 OA
ATOM      4  N   UNL     1       4.310   5.922  17.672  0.00  0.00    +0.000 N 
ATOM      5  H   UNL     1       4.424   6.357  16.762  0.00  0.00    +0.000 HD
BRANCH   2   6
ATOM      6  C   UNL     1       6.476   4.812  17.188  0.00  0.00    +0.000 C 
BRANCH   6  10
ATOM      7  C   UNL     1       5.773   3.840  13.556  0.00  0.00    +0.000 C 
ATOM      8  C   UNL     1       6.521   4.453  14.712  0.00  0.00    +0.000 C 
ATOM      9  O   UNL     1       7.560   5.085  14.540  0.00  0.00    +0.000 OA
ATOM     10  N   UNL     1       5.940   4.257  15.942  0.00  0.00    +0.000 N 
ATOM     11  H   UNL     1       5.209   3.561  16.037  0.00  0.00    +0.000 HD
ENDBRANCH   6  10
BRANCH   6  12
ATOM     12  C   UNL     1       7.200   6.149  16.930  0.00  0.00    +0.000 C 
BRANCH  12  13
ATOM     13  C   UNL     1       7.397   7.087  18.132  0.00  0.00    +0.000 C 
ATOM     14  C   UNL     1       8.281   6.384  19.172  0.00  0.00    +0.000 C 
ATOM     15  C   UNL     1       8.045   8.416  17.741  0.00  0.00    +0.000 C 
ENDBRANCH  12  13
ENDBRANCH   6  12
ENDBRANCH   2   6
ENDBRANCH   1   4
BRANCH   1  16
ATOM     16  C   UNL     1       2.168   4.863  18.155  0.00  0.00    +0.000 C 
ATOM     17  O   UNL     1       2.274   4.078  17.215  0.00  0.00    +0.000 OA
BRANCH  16  18
ATOM     18  O   UNL     1       1.342   4.641  19.212  0.00  0.00    +0.000 OA
BRANCH  18  19
ATOM     19  C   UNL     1       1.983   4.203  20.416  0.00  0.00    +0.000 C 
BRANCH  19  20
ATOM     20  C   UNL     1       1.768   2.736  20.777  0.00  0.00    +0.000 C 
ATOM     21  O   UNL     1       1.719   1.837  19.952  0.00  0.00    +0.000 OA
BRANCH  20  22
ATOM     22  O   UNL     1       1.658   2.501  22.106  0.00  0.00    +0.000 OA
ATOM     23  H   UNL     1       1.438   3.303  22.636  0.00  0.00    +0.000 HD
ENDBRANCH  20  22
ENDBRANCH  19  20
ENDBRANCH  18  19
ENDBRANCH  16  18
ENDBRANCH   1  16
BRANCH   1  24
ATOM     24  C   UNL     1       2.296   7.407  17.880  0.00  0.00    +0.000 C 
BRANCH  24  25
ATOM     25  C   UNL     1       1.778   8.258  19.018  0.00  0.00    +0.000 A 
ATOM     26  C   UNL     1       1.818   7.799  20.342  0.00  0.00    +0.000 A 
ATOM     27  C   UNL     1       1.248   8.554  21.368  0.00  0.00    +0.000 A 
ATOM     28  C   UNL     1       0.641   9.776  21.082  0.00  0.00    +0.000 A 
ATOM     29  C   UNL     1       0.633  10.261  19.777  0.00  0.00    +0.000 A 
ATOM     30  C   UNL     1       1.206   9.511  18.751  0.00  0.00    +0.000 A 
ENDBRANCH  24  25
ENDBRANCH   1  24
TORSDOF 12
ENDMDL
