MODEL 1
REMARK VINA RESULT:      -9.2      0.000      0.000
REMARK  Name = 
REMARK  3 active torsions:
REMARK  status: ('A' for Active; 'I' for Inactive)
REMARK    1  A    between atoms: N_2  and  C_4
REMARK    2  A    between atoms: C_8  and  C_9
REMARK    3  A    between atoms: N_16  and  C_17
REMARK                            x       y       z     vdW  Elec       q    Type
REMARK                         _______ _______ _______ _____ _____    ______ ____
ROOT
ATOM      1  C   UNL     1       2.669   7.305  19.725  0.00  0.00    +0.000 C 
ATOM      2  C   UNL     1       2.468   5.996  19.927  0.00  0.00    +0.000 C 
ATOM      3  C   UNL     1       1.180   5.364  20.521  0.00  0.00    +0.000 C 
ATOM      4  C   UNL     1       1.486   3.816  20.566  0.00  0.00    +0.000 C 
ATOM      5  C   UNL     1       2.859   3.725  20.028  0.00  0.00    +0.000 A 
ATOM      6  C   UNL     1       3.840   2.785  19.753  0.00  0.00    +0.000 A 
ATOM      7  N   UNL     1       4.931   3.373  19.250  0.00  0.00    +0.000 NA
ATOM      8  N   UNL     1       4.628   4.699  19.179  0.00  0.00    +0.000 N 
ATOM      9  C   UNL     1       3.383   4.942  19.671  0.00  0.00    +0.000 A 
ENDROOT
BRANCH   8  10
ATOM     10  C   UNL     1       5.640   5.568  18.597  0.00  0.00    +0.000 C 
ATOM     11  C   UNL     1       5.056   6.530  17.536  0.00  0.00    +0.000 C 
ATOM     12  C   UNL     1       4.986   5.782  16.207  0.00  0.00    +0.000 C 
ATOM     13  S   UNL     1       6.489   4.835  16.173  0.00  0.00    +0.000 S 
ATOM     14  O   UNL     1       7.522   5.683  15.603  0.00  0.00    +0.000 OA
ATOM     15  O   UNL     1       6.232   3.511  15.656  0.00  0.00    +0.000 OA
ATOM     16  C   UNL     1       6.767   4.767  17.934  0.00  0.00    +0.000 C 
ENDBRANCH   8  10
BRANCH   1  21
ATOM     17  C   UNL     1       0.299   9.581  21.606  0.00  0.00    +0.000 A 
ATOM     18  C   UNL     1      -0.355  10.243  20.559  0.00  0.00    +0.000 A 
ATOM     19  C   UNL     1       0.034   9.983  19.247  0.00  0.00    +0.000 A 
ATOM     20  C   UNL     1       1.050   9.056  18.982  0.00  0.00    +0.000 A 
ATOM     21  C   UNL     1       1.692   8.372  20.026  0.00  0.00    +0.000 A 
ATOM     22  C   UNL     1       1.326   8.655  21.347  0.00  0.00    +0.000 A 
BRANCH  17  24
ATOM     23  O   UNL     1       0.643   9.507  23.906  0.00  0.00    +0.000 OA
ATOM     24  N   UNL     1      -0.125   9.840  22.992  0.00  0.00    +0.000 N 
ATOM     25  O   UNL     1      -1.228  10.380  23.161  0.00  0.00    +0.000 OA
ENDBRANCH  17  24
ENDBRANCH   1  21
TORSDOF 3
ENDMDL
MODEL 2
REMARK VINA RESULT:      -8.8      1.826      2.068
REMARK  Name = 
REMARK  3 active torsions:
REMARK  status: ('A' for Active; 'I' for Inactive)
REMARK    1  A    between atoms: N_2  and  C_4
REMARK    2  A    between atoms: C_8  and  C_9
REMARK    3  A    between atoms: N_16  and  C_17
REMARK                            x       y       z     vdW  Elec       q    Type
REMARK                         _______ _______ _______ _____ _____    ______ ____
ROOT
ATOM      1  C   UNL     1       2.600   7.057  19.820  0.00  0.00    +0.000 C 
ATOM      2  C   UNL     1       2.469   5.731  19.955  0.00  0.00    +0.000 C 
ATOM      3  C   UNL     1       1.220   5.002  20.521  0.00  0.00    +0.000 C 
ATOM      4  C   UNL     1       1.606   3.472  20.485  0.00  0.00    +0.000 C 
ATOM      5  C   UNL     1       2.979   3.481  19.937  0.00  0.00    +0.000 A 
ATOM      6  C   UNL     1       4.005   2.609  19.611  0.00  0.00    +0.000 A 
ATOM      7  N   UNL     1       5.061   3.279  19.134  0.00  0.00    +0.000 NA
ATOM      8  N   UNL     1       4.688   4.589  19.133  0.00  0.00    +0.000 N 
ATOM      9  C   UNL     1       3.435   4.740  19.642  0.00  0.00    +0.000 A 
ENDROOT
BRANCH   8  10
ATOM     10  C   UNL     1       5.650   5.539  18.592  0.00  0.00    +0.000 C 
ATOM     11  C   UNL     1       5.019   6.490  17.549  0.00  0.00    +0.000 C 
ATOM     12  C   UNL     1       5.018   5.779  16.199  0.00  0.00    +0.000 C 
ATOM     13  S   UNL     1       6.581   4.934  16.163  0.00  0.00    +0.000 S 
ATOM     14  O   UNL     1       7.564   5.863  15.634  0.00  0.00    +0.000 OA
ATOM     15  O   UNL     1       6.419   3.611  15.604  0.00  0.00    +0.000 OA
ATOM     16  C   UNL     1       6.837   4.833  17.926  0.00  0.00    +0.000 C 
ENDBRANCH   8  10
BRANCH   1  21
ATOM     17  C   UNL     1       0.242  10.014  19.635  0.00  0.00    +0.000 A 
ATOM     18  C   UNL     1      -0.211  10.102  20.957  0.00  0.00    +0.000 A 
ATOM     19  C   UNL     1       0.211   9.151  21.883  0.00  0.00    +0.000 A 
ATOM     20  C   UNL     1       1.094   8.134  21.497  0.00  0.00    +0.000 A 
ATOM     21  C   UNL     1       1.571   8.055  20.180  0.00  0.00    +0.000 A 
ATOM     22  C   UNL     1       1.123   8.991  19.239  0.00  0.00    +0.000 A 
BRANCH  17  24
ATOM     23  O   UNL     1       0.452  12.093  18.613  0.00  0.00    +0.000 OA
ATOM     24  N   UNL     1      -0.187  11.032  18.662  0.00  0.00    +0.000 N 
ATOM     25  O   UNL     1      -1.162  10.763  17.945  0.00  0.00    +0.000 OA
ENDBRANCH  17  24
ENDBRANCH   1  21
TORSDOF 3
ENDMDL
MODEL 3
REMARK VINA RESULT:      -8.7      0.916      1.260
REMARK  Name = 
REMARK  3 active torsions:
REMARK  status: ('A' for Active; 'I' for Inactive)
REMARK    1  A    between atoms: N_2  and  C_4
REMARK    2  A    between atoms: C_8  and  C_9
REMARK    3  A    between atoms: N_16  and  C_17
REMARK                            x       y       z     vdW  Elec       q    Type
REMARK                         _______ _______ _______ _____ _____    ______ ____
ROOT
ATOM      1  C   UNL     1       2.327   7.534  19.062  0.00  0.00    +0.000 C 
ATOM      2  C   UNL     1       2.422   6.320  19.620  0.00  0.00    +0.000 C 
ATOM      3  C   UNL     1       1.629   5.837  20.865  0.00  0.00    +0.000 C 
ATOM      4  C   UNL     1       2.137   4.362  21.108  0.00  0.00    +0.000 C 
ATOM      5  C   UNL     1       3.131   4.164  20.032  0.00  0.00    +0.000 A 
ATOM      6  C   UNL     1       4.012   3.207  19.553  0.00  0.00    +0.000 A 
ATOM      7  N   UNL     1       4.675   3.667  18.486  0.00  0.00    +0.000 NA
ATOM      8  N   UNL     1       4.189   4.921  18.270  0.00  0.00    +0.000 N 
ATOM      9  C   UNL     1       3.268   5.256  19.213  0.00  0.00    +0.000 A 
ENDROOT
BRANCH   8  10
ATOM     10  C   UNL     1       4.709   5.629  17.109  0.00  0.00    +0.000 C 
ATOM     11  C   UNL     1       4.651   4.777  15.821  0.00  0.00    +0.000 C 
ATOM     12  C   UNL     1       5.890   3.887  15.786  0.00  0.00    +0.000 C 
ATOM     13  S   UNL     1       7.187   4.941  16.391  0.00  0.00    +0.000 S 
ATOM     14  O   UNL     1       7.720   5.668  15.252  0.00  0.00    +0.000 OA
ATOM     15  O   UNL     1       8.051   4.204  17.284  0.00  0.00    +0.000 OA
ATOM     16  C   UNL     1       6.163   6.072  17.314  0.00  0.00    +0.000 C 
ENDBRANCH   8  10
BRANCH   1  21
ATOM     17  C   UNL     1       0.262   9.760  21.324  0.00  0.00    +0.000 A 
ATOM     18  C   UNL     1      -0.437  10.542  20.396  0.00  0.00    +0.000 A 
ATOM     19  C   UNL     1      -0.176  10.376  19.038  0.00  0.00    +0.000 A 
ATOM     20  C   UNL     1       0.758   9.425  18.610  0.00  0.00    +0.000 A 
ATOM     21  C   UNL     1       1.444   8.621  19.534  0.00  0.00    +0.000 A 
ATOM     22  C   UNL     1       1.206   8.808  20.901  0.00  0.00    +0.000 A 
BRANCH  17  24
ATOM     23  O   UNL     1      -1.139  10.370  23.078  0.00  0.00    +0.000 OA
ATOM     24  N   UNL     1      -0.029   9.920  22.758  0.00  0.00    +0.000 N 
ATOM     25  O   UNL     1       0.855   9.590  23.562  0.00  0.00    +0.000 OA
ENDBRANCH  17  24
ENDBRANCH   1  21
TORSDOF 3
ENDMDL
MODEL 4
REMARK VINA RESULT:      -8.5      1.323      1.454
REMARK  Name = 
REMARK  3 active torsions:
REMARK  status: ('A' for Active; 'I' for Inactive)
REMARK    1  A    between atoms: N_2  and  C_4
REMARK    2  A    between atoms: C_8  and  C_9
REMARK    3  A    between atoms: N_16  and  C_17
REMARK                            x       y       z     vdW  Elec       q    Type
REMARK                         _______ _______ _______ _____ _____    ______ ____
ROOT
ATOM      1  C   UNL     1       2.925   6.998  18.662  0.00  0.00    +0.000 C 
ATOM      2  C   UNL     1       2.582   5.705  18.590  0.00  0.00    +0.000 C 
ATOM      3  C   UNL     1       1.203   5.116  18.996  0.00  0.00    +0.000 C 
ATOM      4  C   UNL     1       1.347   3.564  18.742  0.00  0.00    +0.000 C 
ATOM      5  C   UNL     1       2.735   3.429  18.250  0.00  0.00    +0.000 A 
ATOM      6  C   UNL     1       3.630   2.457  17.831  0.00  0.00    +0.000 A 
ATOM      7  N   UNL     1       4.803   3.008  17.497  0.00  0.00    +0.000 NA
ATOM      8  N   UNL     1       4.640   4.347  17.682  0.00  0.00    +0.000 N 
ATOM      9  C   UNL     1       3.398   4.626  18.164  0.00  0.00    +0.000 A 
ENDROOT
BRANCH   8  10
ATOM     10  C   UNL     1       5.767   5.195  17.325  0.00  0.00    +0.000 C 
ATOM     11  C   UNL     1       5.358   6.368  16.403  0.00  0.00    +0.000 C 
ATOM     12  C   UNL     1       5.336   5.855  14.966  0.00  0.00    +0.000 C 
ATOM     13  S   UNL     1       6.751   4.783  14.876  0.00  0.00    +0.000 S 
ATOM     14  O   UNL     1       7.896   5.606  14.528  0.00  0.00    +0.000 OA
ATOM     15  O   UNL     1       6.426   3.591  14.127  0.00  0.00    +0.000 OA
ATOM     16  C   UNL     1       6.874   4.405  16.615  0.00  0.00    +0.000 C 
ENDBRANCH   8  10
BRANCH   1  21
ATOM     17  C   UNL     1       0.782   9.173  20.900  0.00  0.00    +0.000 A 
ATOM     18  C   UNL     1       0.169  10.024  19.971  0.00  0.00    +0.000 A 
ATOM     19  C   UNL     1       0.514   9.918  18.626  0.00  0.00    +0.000 A 
ATOM     20  C   UNL     1       1.446   8.959  18.209  0.00  0.00    +0.000 A 
ATOM     21  C   UNL     1       2.045   8.087  19.131  0.00  0.00    +0.000 A 
ATOM     22  C   UNL     1       1.724   8.213  20.489  0.00  0.00    +0.000 A 
BRANCH  17  24
ATOM     23  O   UNL     1      -0.750   8.936  22.634  0.00  0.00    +0.000 OA
ATOM     24  N   UNL     1       0.401   9.270  22.318  0.00  0.00    +0.000 N 
ATOM     25  O   UNL     1       1.260   9.677  23.114  0.00  0.00    +0.000 OA
ENDBRANCH  17  24
ENDBRANCH   1  21
TORSDOF 3
ENDMDL
MODEL 5
REMARK VINA RESULT:      -8.3      2.067      2.470
REMARK  Name = 
REMARK  3 active torsions:
REMARK  status: ('A' for Active; 'I' for Inactive)
REMARK    1  A    between atoms: N_2  and  C_4
REMARK    2  A    between atoms: C_8  and  C_9
REMARK    3  A    between atoms: N_16  and  C_17
REMARK                            x       y       z     vdW  Elec       q    Type
REMARK                         _______ _______ _______ _____ _____    ______ ____
ROOT
ATOM      1  C   UNL     1       2.449   7.062  19.115  0.00  0.00    +0.000 C 
ATOM      2  C   UNL     1       2.351   5.750  19.370  0.00  0.00    +0.000 C 
ATOM      3  C   UNL     1       1.451   5.109  20.461  0.00  0.00    +0.000 C 
ATOM      4  C   UNL     1       1.739   3.561  20.350  0.00  0.00    +0.000 C 
ATOM      5  C   UNL     1       2.738   3.479  19.263  0.00  0.00    +0.000 A 
ATOM      6  C   UNL     1       3.496   2.544  18.576  0.00  0.00    +0.000 A 
ATOM      7  N   UNL     1       4.259   3.139  17.652  0.00  0.00    +0.000 NA
ATOM      8  N   UNL     1       3.960   4.466  17.737  0.00  0.00    +0.000 N 
ATOM      9  C   UNL     1       3.057   4.700  18.727  0.00  0.00    +0.000 A 
ENDROOT
BRANCH   8  10
ATOM     10  C   UNL     1       4.618   5.343  16.780  0.00  0.00    +0.000 C 
ATOM     11  C   UNL     1       5.626   4.590  15.882  0.00  0.00    +0.000 C 
ATOM     12  C   UNL     1       6.948   4.483  16.638  0.00  0.00    +0.000 C 
ATOM     13  S   UNL     1       7.105   6.061  17.442  0.00  0.00    +0.000 S 
ATOM     14  O   UNL     1       7.753   6.961  16.505  0.00  0.00    +0.000 OA
ATOM     15  O   UNL     1       7.604   5.886  18.786  0.00  0.00    +0.000 OA
ATOM     16  C   UNL     1       5.372   6.484  17.476  0.00  0.00    +0.000 C 
ENDBRANCH   8  10
BRANCH   1  21
ATOM     17  C   UNL     1       0.641  10.307  19.850  0.00  0.00    +0.000 A 
ATOM     18  C   UNL     1       0.509  10.253  21.243  0.00  0.00    +0.000 A 
ATOM     19  C   UNL     1       0.956   9.121  21.921  0.00  0.00    +0.000 A 
ATOM     20  C   UNL     1       1.549   8.065  21.219  0.00  0.00    +0.000 A 
ATOM     21  C   UNL     1       1.706   8.124  19.825  0.00  0.00    +0.000 A 
ATOM     22  C   UNL     1       1.228   9.246  19.137  0.00  0.00    +0.000 A 
BRANCH  17  24
ATOM     23  O   UNL     1       1.052  12.265  18.663  0.00  0.00    +0.000 OA
ATOM     24  N   UNL     1       0.188  11.511  19.135  0.00  0.00    +0.000 N 
ATOM     25  O   UNL     1      -1.034  11.697  19.044  0.00  0.00    +0.000 OA
ENDBRANCH  17  24
ENDBRANCH   1  21
TORSDOF 3
ENDMDL
MODEL 6
REMARK VINA RESULT:      -8.2      1.987      2.261
REMARK  Name = 
REMARK  3 active torsions:
REMARK  status: ('A' for Active; 'I' for Inactive)
REMARK    1  A    between atoms: N_2  and  C_4
REMARK    2  A    between atoms: C_8  and  C_9
REMARK    3  A    between atoms: N_16  and  C_17
REMARK                            x       y       z     vdW  Elec       q    Type
REMARK                         _______ _______ _______ _____ _____    ______ ____
ROOT
ATOM      1  C   UNL     1       2.806   6.850  19.284  0.00  0.00    +0.000 C 
ATOM      2  C   UNL     1       2.508   5.550  19.158  0.00  0.00    +0.000 C 
ATOM      3  C   UNL     1       1.172   4.886  19.591  0.00  0.00    +0.000 C 
ATOM      4  C   UNL     1       1.362   3.357  19.249  0.00  0.00    +0.000 C 
ATOM      5  C   UNL     1       2.730   3.302  18.690  0.00  0.00    +0.000 A 
ATOM      6  C   UNL     1       3.641   2.390  18.180  0.00  0.00    +0.000 A 
ATOM      7  N   UNL     1       4.776   3.003  17.826  0.00  0.00    +0.000 NA
ATOM      8  N   UNL     1       4.571   4.324  18.089  0.00  0.00    +0.000 N 
ATOM      9  C   UNL     1       3.344   4.528  18.639  0.00  0.00    +0.000 A 
ENDROOT
BRANCH   8  10
ATOM     10  C   UNL     1       5.649   5.234  17.729  0.00  0.00    +0.000 C 
ATOM     11  C   UNL     1       5.180   6.361  16.779  0.00  0.00    +0.000 C 
ATOM     12  C   UNL     1       5.208   5.821  15.352  0.00  0.00    +0.000 C 
ATOM     13  S   UNL     1       6.688   4.837  15.300  0.00  0.00    +0.000 S 
ATOM     14  O   UNL     1       7.785   5.723  14.950  0.00  0.00    +0.000 OA
ATOM     15  O   UNL     1       6.447   3.614  14.571  0.00  0.00    +0.000 OA
ATOM     16  C   UNL     1       6.812   4.501  17.048  0.00  0.00    +0.000 C 
ENDBRANCH   8  10
BRANCH   1  21
ATOM     17  C   UNL     1       0.725   9.991  19.659  0.00  0.00    +0.000 A 
ATOM     18  C   UNL     1       0.396   9.956  21.020  0.00  0.00    +0.000 A 
ATOM     19  C   UNL     1       0.806   8.869  21.787  0.00  0.00    +0.000 A 
ATOM     20  C   UNL     1       1.554   7.836  21.207  0.00  0.00    +0.000 A 
ATOM     21  C   UNL     1       1.908   7.878  19.850  0.00  0.00    +0.000 A 
ATOM     22  C   UNL     1       1.470   8.955  19.068  0.00  0.00    +0.000 A 
BRANCH  17  24
ATOM     23  O   UNL     1      -0.855  11.178  18.432  0.00  0.00    +0.000 OA
ATOM     24  N   UNL     1       0.311  11.150  18.852  0.00  0.00    +0.000 N 
ATOM     25  O   UNL     1       1.155  12.034  18.645  0.00  0.00    +0.000 OA
ENDBRANCH  17  24
ENDBRANCH   1  21
TORSDOF 3
ENDMDL
MODEL 7
REMARK VINA RESULT:      -8.1      1.557      1.847
REMARK  Name = 
REMARK  3 active torsions:
REMARK  status: ('A' for Active; 'I' for Inactive)
REMARK    1  A    between atoms: N_2  and  C_4
REMARK    2  A    between atoms: C_8  and  C_9
REMARK    3  A    between atoms: N_16  and  C_17
REMARK                            x       y       z     vdW  Elec       q    Type
REMARK                         _______ _______ _______ _____ _____    ______ ____
ROOT
ATOM      1  C   UNL     1       2.335   7.823  18.291  0.00  0.00    +0.000 C 
ATOM      2  C   UNL     1       2.443   6.720  19.044  0.00  0.00    +0.000 C 
ATOM      3  C   UNL     1       1.634   6.432  20.338  0.00  0.00    +0.000 C 
ATOM      4  C   UNL     1       2.167   5.030  20.831  0.00  0.00    +0.000 C 
ATOM      5  C   UNL     1       3.188   4.680  19.821  0.00  0.00    +0.000 A 
ATOM      6  C   UNL     1       4.098   3.679  19.523  0.00  0.00    +0.000 A 
ATOM      7  N   UNL     1       4.774   3.971  18.406  0.00  0.00    +0.000 NA
ATOM      8  N   UNL     1       4.267   5.159  17.976  0.00  0.00    +0.000 N 
ATOM      9  C   UNL     1       3.319   5.624  18.835  0.00  0.00    +0.000 A 
ENDROOT
BRANCH   8  10
ATOM     10  C   UNL     1       4.796   5.678  16.724  0.00  0.00    +0.000 C 
ATOM     11  C   UNL     1       4.724   4.644  15.577  0.00  0.00    +0.000 C 
ATOM     12  C   UNL     1       5.948   3.738  15.677  0.00  0.00    +0.000 C 
ATOM     13  S   UNL     1       7.263   4.850  16.119  0.00  0.00    +0.000 S 
ATOM     14  O   UNL     1       7.806   5.390  14.885  0.00  0.00    +0.000 OA
ATOM     15  O   UNL     1       8.116   4.241  17.113  0.00  0.00    +0.000 OA
ATOM     16  C   UNL     1       6.258   6.123  16.862  0.00  0.00    +0.000 C 
ENDBRANCH   8  10
BRANCH   1  21
ATOM     17  C   UNL     1       0.626  10.734  20.006  0.00  0.00    +0.000 A 
ATOM     18  C   UNL     1      -0.485  10.942  19.180  0.00  0.00    +0.000 A 
ATOM     19  C   UNL     1      -0.628  10.168  18.031  0.00  0.00    +0.000 A 
ATOM     20  C   UNL     1       0.318   9.181  17.722  0.00  0.00    +0.000 A 
ATOM     21  C   UNL     1       1.420   8.951  18.559  0.00  0.00    +0.000 A 
ATOM     22  C   UNL     1       1.583   9.750  19.699  0.00  0.00    +0.000 A 
BRANCH  17  24
ATOM     23  O   UNL     1       1.527  12.515  21.201  0.00  0.00    +0.000 OA
ATOM     24  N   UNL     1       0.766  11.537  21.232  0.00  0.00    +0.000 N 
ATOM     25  O   UNL     1       0.110  11.187  22.223  0.00  0.00    +0.000 OA
ENDBRANCH  17  24
ENDBRANCH   1  21
TORSDOF 3
ENDMDL
MODEL 8
REMARK VINA RESULT:      -8.0      1.481      1.898
REMARK  Name = 
REMARK  3 active torsions:
REMARK  status: ('A' for Active; 'I' for Inactive)
REMARK    1  A    between atoms: N_2  and  C_4
REMARK    2  A    between atoms: C_8  and  C_9
REMARK    3  A    between atoms: N_16  and  C_17
REMARK                            x       y       z     vdW  Elec       q    Type
REMARK                         _______ _______ _______ _____ _____    ______ ____
ROOT
ATOM      1  C   UNL     1       2.420   7.528  18.508  0.00  0.00    +0.000 C 
ATOM      2  C   UNL     1       2.419   6.409  19.246  0.00  0.00    +0.000 C 
ATOM      3  C   UNL     1       1.507   6.142  20.475  0.00  0.00    +0.000 C 
ATOM      4  C   UNL     1       1.933   4.707  20.977  0.00  0.00    +0.000 C 
ATOM      5  C   UNL     1       3.004   4.322  20.034  0.00  0.00    +0.000 A 
ATOM      6  C   UNL     1       3.881   3.279  19.781  0.00  0.00    +0.000 A 
ATOM      7  N   UNL     1       4.649   3.554  18.720  0.00  0.00    +0.000 NA
ATOM      8  N   UNL     1       4.234   4.774  18.279  0.00  0.00    +0.000 N 
ATOM      9  C   UNL     1       3.252   5.273  19.078  0.00  0.00    +0.000 A 
ENDROOT
BRANCH   8  10
ATOM     10  C   UNL     1       4.876   5.284  17.077  0.00  0.00    +0.000 C 
ATOM     11  C   UNL     1       5.923   4.302  16.503  0.00  0.00    +0.000 C 
ATOM     12  C   UNL     1       7.235   4.518  17.251  0.00  0.00    +0.000 C 
ATOM     13  S   UNL     1       7.325   6.282  17.450  0.00  0.00    +0.000 S 
ATOM     14  O   UNL     1       7.956   6.821  16.257  0.00  0.00    +0.000 OA
ATOM     15  O   UNL     1       7.809   6.611  18.770  0.00  0.00    +0.000 OA
ATOM     16  C   UNL     1       5.578   6.624  17.329  0.00  0.00    +0.000 C 
ENDBRANCH   8  10
BRANCH   1  21
ATOM     17  C   UNL     1       0.660  10.427  20.191  0.00  0.00    +0.000 A 
ATOM     18  C   UNL     1      -0.304  10.771  19.236  0.00  0.00    +0.000 A 
ATOM     19  C   UNL     1      -0.325  10.090  18.020  0.00  0.00    +0.000 A 
ATOM     20  C   UNL     1       0.593   9.062  17.771  0.00  0.00    +0.000 A 
ATOM     21  C   UNL     1       1.546   8.697  18.734  0.00  0.00    +0.000 A 
ATOM     22  C   UNL     1       1.590   9.401  19.944  0.00  0.00    +0.000 A 
BRANCH  17  24
ATOM     23  O   UNL     1       0.170  10.555  22.462  0.00  0.00    +0.000 OA
ATOM     24  N   UNL     1       0.669  11.131  21.484  0.00  0.00    +0.000 N 
ATOM     25  O   UNL     1       1.180  12.259  21.517  0.00  0.00    +0.000 OA
ENDBRANCH  17  24
ENDBRANCH   1  21
TORSDOF 3
ENDMDL
MODEL 9
REMARK VINA RESULT:      -7.9      2.041      2.280
REMARK  Name = 
REMARK  3 active torsions:
REMARK  status: ('A' for Active; 'I' for Inactive)
REMARK    1  A    between atoms: N_2  and  C_4
REMARK    2  A    between atoms: C_8  and  C_9
REMARK    3  A    between atoms: N_16  and  C_17
REMARK                            x       y       z     vdW  Elec       q    Type
REMARK                         _______ _______ _______ _____ _____    ______ ____
ROOT
ATOM      1  C   UNL     1       2.888   7.212  18.259  0.00  0.00    +0.000 C 
ATOM      2  C   UNL     1       2.595   5.917  18.081  0.00  0.00    +0.000 C 
ATOM      3  C   UNL     1       1.243   5.243  18.437  0.00  0.00    +0.000 C 
ATOM      4  C   UNL     1       1.446   3.724  18.056  0.00  0.00    +0.000 C 
ATOM      5  C   UNL     1       2.836   3.685  17.554  0.00  0.00    +0.000 A 
ATOM      6  C   UNL     1       3.768   2.787  17.056  0.00  0.00    +0.000 A 
ATOM      7  N   UNL     1       4.917   3.409  16.768  0.00  0.00    +0.000 NA
ATOM      8  N   UNL     1       4.702   4.721  17.063  0.00  0.00    +0.000 N 
ATOM      9  C   UNL     1       3.452   4.910  17.567  0.00  0.00    +0.000 A 
ENDROOT
BRANCH   8  10
ATOM     10  C   UNL     1       5.794   5.640  16.777  0.00  0.00    +0.000 C 
ATOM     11  C   UNL     1       7.113   4.905  16.442  0.00  0.00    +0.000 C 
ATOM     12  C   UNL     1       7.804   4.550  17.756  0.00  0.00    +0.000 C 
ATOM     13  S   UNL     1       7.530   5.978  18.779  0.00  0.00    +0.000 S 
ATOM     14  O   UNL     1       8.604   6.918  18.508  0.00  0.00    +0.000 OA
ATOM     15  O   UNL     1       7.210   5.570  20.127  0.00  0.00    +0.000 OA
ATOM     16  C   UNL     1       6.069   6.584  17.954  0.00  0.00    +0.000 C 
ENDBRANCH   8  10
BRANCH   1  21
ATOM     17  C   UNL     1       0.759   9.176  20.698  0.00  0.00    +0.000 A 
ATOM     18  C   UNL     1       0.022   9.998  19.837  0.00  0.00    +0.000 A 
ATOM     19  C   UNL     1       0.277   9.947  18.469  0.00  0.00    +0.000 A 
ATOM     20  C   UNL     1       1.243   9.068  17.963  0.00  0.00    +0.000 A 
ATOM     21  C   UNL     1       1.968   8.224  18.818  0.00  0.00    +0.000 A 
ATOM     22  C   UNL     1       1.736   8.296  20.197  0.00  0.00    +0.000 A 
BRANCH  17  24
ATOM     23  O   UNL     1       1.404   9.507  22.908  0.00  0.00    +0.000 OA
ATOM     24  N   UNL     1       0.475   9.214  22.142  0.00  0.00    +0.000 N 
ATOM     25  O   UNL     1      -0.682   8.953  22.504  0.00  0.00    +0.000 OA
ENDBRANCH  17  24
ENDBRANCH   1  21
TORSDOF 3
ENDMDL
