MODEL 1
REMARK VINA RESULT:      -7.4      0.000      0.000
REMARK  Name = 
REMARK  10 active torsions:
REMARK  status: ('A' for Active; 'I' for Inactive)
REMARK    1  A    between atoms: C_1  and  C_2
REMARK    2  A    between atoms: C_2  and  C_3
REMARK    3  A    between atoms: C_2  and  C_4
REMARK    4  A    between atoms: C_2  and  C_5
REMARK    5  A    between atoms: C_8  and  C_9
REMARK    6  A    between atoms: C_9  and  C_11
REMARK    7  A    between atoms: C_11  and  S_12
REMARK    8  A    between atoms: S_12  and  C_13
REMARK    9  A    between atoms: C_16  and  O_17
REMARK   10  A    between atoms: C_19  and  O_20
REMARK                            x       y       z     vdW  Elec       q    Type
REMARK                         _______ _______ _______ _____ _____    ______ ____
ROOT
ATOM      1  C   UNL     1       3.184   5.810  18.991  0.00  0.00    +0.000 C 
ATOM      2  O   UNL     1       4.039   5.539  19.837  0.00  0.00    +0.000 OA
ENDROOT
BRANCH   1   6
ATOM      3  C   UNL     1       0.996   9.548  19.259  0.00  0.00    +0.000 A 
ATOM      4  C   UNL     1       1.542   9.085  18.053  0.00  0.00    +0.000 A 
ATOM      5  C   UNL     1       2.242   7.875  17.990  0.00  0.00    +0.000 A 
ATOM      6  C   UNL     1       2.425   7.091  19.134  0.00  0.00    +0.000 A 
ATOM      7  C   UNL     1       1.893   7.540  20.344  0.00  0.00    +0.000 A 
ATOM      8  C   UNL     1       1.196   8.754  20.403  0.00  0.00    +0.000 A 
BRANCH   3  10
ATOM      9  C   UNL     1      -0.453  11.087  20.736  0.00  0.00    +0.000 C 
ATOM     10  C   UNL     1       0.197  10.859  19.354  0.00  0.00    +0.000 C 
ATOM     11  C   UNL     1      -0.930  10.857  18.302  0.00  0.00    +0.000 C 
ATOM     12  C   UNL     1       1.133  12.061  19.092  0.00  0.00    +0.000 C 
ENDBRANCH   3  10
ENDBRANCH   1   6
BRANCH   1  13
ATOM     13  C   UNL     1       2.911   4.924  17.790  0.00  0.00    +0.000 C 
BRANCH  13  14
ATOM     14  S   UNL     1       4.008   3.473  17.730  0.00  0.00    +0.000 S 
BRANCH  14  15
ATOM     15  C   UNL     1       5.247   4.040  16.583  0.00  0.00    +0.000 A 
ATOM     16  N   UNL     1       4.921   4.224  15.283  0.00  0.00    +0.000 NA
ATOM     17  N   UNL     1       5.873   4.700  14.424  0.00  0.00    +0.000 NA
ATOM     18  C   UNL     1       7.104   4.974  14.909  0.00  0.00    +0.000 A 
ATOM     19  N   UNL     1       7.503   4.831  16.174  0.00  0.00    +0.000 NA
ATOM     20  C   UNL     1       6.536   4.361  16.983  0.00  0.00    +0.000 A 
BRANCH  18  21
ATOM     21  O   UNL     1       8.020   5.446  14.020  0.00  0.00    +0.000 OA
ATOM     22  H   UNL     1       7.730   5.003  13.204  0.00  0.00    +0.000 HD
ENDBRANCH  18  21
BRANCH  20  23
ATOM     23  O   UNL     1       6.956   4.233  18.271  0.00  0.00    +0.000 OA
ATOM     24  H   UNL     1       6.705   5.099  18.635  0.00  0.00    +0.000 HD
ENDBRANCH  20  23
ENDBRANCH  14  15
ENDBRANCH  13  14
ENDBRANCH   1  13
TORSDOF 7
ENDMDL
MODEL 2
REMARK VINA RESULT:      -7.4      0.804      1.630
REMARK  Name = 
REMARK  10 active torsions:
REMARK  status: ('A' for Active; 'I' for Inactive)
REMARK    1  A    between atoms: C_1  and  C_2
REMARK    2  A    between atoms: C_2  and  C_3
REMARK    3  A    between atoms: C_2  and  C_4
REMARK    4  A    between atoms: C_2  and  C_5
REMARK    5  A    between atoms: C_8  and  C_9
REMARK    6  A    between atoms: C_9  and  C_11
REMARK    7  A    between atoms: C_11  and  S_12
REMARK    8  A    between atoms: S_12  and  C_13
REMARK    9  A    between atoms: C_16  and  O_17
REMARK   10  A    between atoms: C_19  and  O_20
REMARK                            x       y       z     vdW  Elec       q    Type
REMARK                         _______ _______ _______ _____ _____    ______ ____
ROOT
ATOM      1  C   UNL     1       2.950   5.725  19.544  0.00  0.00    +0.000 C 
ATOM      2  O   UNL     1       2.262   4.769  19.907  0.00  0.00    +0.000 OA
ENDROOT
BRANCH   1   6
ATOM      3  C   UNL     1       1.030   9.611  19.348  0.00  0.00    +0.000 A 
ATOM      4  C   UNL     1       1.105   8.874  20.538  0.00  0.00    +0.000 A 
ATOM      5  C   UNL     1       1.732   7.623  20.578  0.00  0.00    +0.000 A 
ATOM      6  C   UNL     1       2.297   7.066  19.426  0.00  0.00    +0.000 A 
ATOM      7  C   UNL     1       2.226   7.784  18.231  0.00  0.00    +0.000 A 
ATOM      8  C   UNL     1       1.594   9.034  18.195  0.00  0.00    +0.000 A 
BRANCH   3  10
ATOM      9  C   UNL     1       1.320  12.106  18.762  0.00  0.00    +0.000 C 
ATOM     10  C   UNL     1       0.373  11.001  19.279  0.00  0.00    +0.000 C 
ATOM     11  C   UNL     1      -0.109  11.418  20.683  0.00  0.00    +0.000 C 
ATOM     12  C   UNL     1      -0.837  10.960  18.319  0.00  0.00    +0.000 C 
ENDBRANCH   3  10
ENDBRANCH   1   6
BRANCH   1  13
ATOM     13  C   UNL     1       4.437   5.603  19.263  0.00  0.00    +0.000 C 
BRANCH  13  14
ATOM     14  S   UNL     1       4.909   3.932  18.720  0.00  0.00    +0.000 S 
BRANCH  14  15
ATOM     15  C   UNL     1       5.678   4.297  17.155  0.00  0.00    +0.000 A 
ATOM     16  N   UNL     1       4.906   4.513  16.065  0.00  0.00    +0.000 NA
ATOM     17  N   UNL     1       5.511   4.833  14.881  0.00  0.00    +0.000 NA
ATOM     18  C   UNL     1       6.859   4.926  14.846  0.00  0.00    +0.000 A 
ATOM     19  N   UNL     1       7.689   4.738  15.874  0.00  0.00    +0.000 NA
ATOM     20  C   UNL     1       7.052   4.426  17.017  0.00  0.00    +0.000 A 
BRANCH  18  21
ATOM     21  O   UNL     1       7.419   5.247  13.648  0.00  0.00    +0.000 OA
ATOM     22  H   UNL     1       6.891   6.026  13.401  0.00  0.00    +0.000 HD
ENDBRANCH  18  21
BRANCH  20  23
ATOM     23  O   UNL     1       7.912   4.250  18.057  0.00  0.00    +0.000 OA
ATOM     24  H   UNL     1       8.286   5.143  18.141  0.00  0.00    +0.000 HD
ENDBRANCH  20  23
ENDBRANCH  14  15
ENDBRANCH  13  14
ENDBRANCH   1  13
TORSDOF 7
ENDMDL
MODEL 3
REMARK VINA RESULT:      -7.3      0.862      1.308
REMARK  Name = 
REMARK  10 active torsions:
REMARK  status: ('A' for Active; 'I' for Inactive)
REMARK    1  A    between atoms: C_1  and  C_2
REMARK    2  A    between atoms: C_2  and  C_3
REMARK    3  A    between atoms: C_2  and  C_4
REMARK    4  A    between atoms: C_2  and  C_5
REMARK    5  A    between atoms: C_8  and  C_9
REMARK    6  A    between atoms: C_9  and  C_11
REMARK    7  A    between atoms: C_11  and  S_12
REMARK    8  A    between atoms: S_12  and  C_13
REMARK    9  A    between atoms: C_16  and  O_17
REMARK   10  A    between atoms: C_19  and  O_20
REMARK                            x       y       z     vdW  Elec       q    Type
REMARK                         _______ _______ _______ _____ _____    ______ ____
ROOT
ATOM      1  C   UNL     1       2.827   5.604  19.755  0.00  0.00    +0.000 C 
ATOM      2  O   UNL     1       2.125   4.655  20.110  0.00  0.00    +0.000 OA
ENDROOT
BRANCH   1   6
ATOM      3  C   UNL     1       1.070   9.560  19.452  0.00  0.00    +0.000 A 
ATOM      4  C   UNL     1       1.745   8.958  18.381  0.00  0.00    +0.000 A 
ATOM      5  C   UNL     1       2.302   7.679  18.501  0.00  0.00    +0.000 A 
ATOM      6  C   UNL     1       2.207   6.965  19.700  0.00  0.00    +0.000 A 
ATOM      7  C   UNL     1       1.544   7.552  20.778  0.00  0.00    +0.000 A 
ATOM      8  C   UNL     1       0.991   8.834  20.654  0.00  0.00    +0.000 A 
BRANCH   3  10
ATOM      9  C   UNL     1       1.333  12.004  18.671  0.00  0.00    +0.000 C 
ATOM     10  C   UNL     1       0.422  10.951  19.341  0.00  0.00    +0.000 C 
ATOM     11  C   UNL     1       0.064  11.471  20.748  0.00  0.00    +0.000 C 
ATOM     12  C   UNL     1      -0.865  10.862  18.490  0.00  0.00    +0.000 C 
ENDBRANCH   3  10
ENDBRANCH   1   6
BRANCH   1  13
ATOM     13  C   UNL     1       4.301   5.453  19.423  0.00  0.00    +0.000 C 
BRANCH  13  14
ATOM     14  S   UNL     1       4.702   3.803  18.770  0.00  0.00    +0.000 S 
BRANCH  14  15
ATOM     15  C   UNL     1       5.602   4.239  17.295  0.00  0.00    +0.000 A 
ATOM     16  N   UNL     1       4.947   4.330  16.115  0.00  0.00    +0.000 NA
ATOM     17  N   UNL     1       5.645   4.707  15.000  0.00  0.00    +0.000 NA
ATOM     18  C   UNL     1       6.962   4.980  15.122  0.00  0.00    +0.000 A 
ATOM     19  N   UNL     1       7.678   4.924  16.247  0.00  0.00    +0.000 NA
ATOM     20  C   UNL     1       6.954   4.550  17.317  0.00  0.00    +0.000 A 
BRANCH  18  21
ATOM     21  O   UNL     1       7.617   5.351  13.989  0.00  0.00    +0.000 OA
ATOM     22  H   UNL     1       7.411   4.602  13.404  0.00  0.00    +0.000 HD
ENDBRANCH  18  21
BRANCH  20  23
ATOM     23  O   UNL     1       7.696   4.510  18.457  0.00  0.00    +0.000 OA
ATOM     24  H   UNL     1       7.009   4.654  19.130  0.00  0.00    +0.000 HD
ENDBRANCH  20  23
ENDBRANCH  14  15
ENDBRANCH  13  14
ENDBRANCH   1  13
TORSDOF 7
ENDMDL
MODEL 4
REMARK VINA RESULT:      -7.3      3.113      4.406
REMARK  Name = 
REMARK  10 active torsions:
REMARK  status: ('A' for Active; 'I' for Inactive)
REMARK    1  A    between atoms: C_1  and  C_2
REMARK    2  A    between atoms: C_2  and  C_3
REMARK    3  A    between atoms: C_2  and  C_4
REMARK    4  A    between atoms: C_2  and  C_5
REMARK    5  A    between atoms: C_8  and  C_9
REMARK    6  A    between atoms: C_9  and  C_11
REMARK    7  A    between atoms: C_11  and  S_12
REMARK    8  A    between atoms: S_12  and  C_13
REMARK    9  A    between atoms: C_16  and  O_17
REMARK   10  A    between atoms: C_19  and  O_20
REMARK                            x       y       z     vdW  Elec       q    Type
REMARK                         _______ _______ _______ _____ _____    ______ ____
ROOT
ATOM      1  C   UNL     1       4.205   6.452  17.353  0.00  0.00    +0.000 C 
ATOM      2  O   UNL     1       4.517   6.862  16.234  0.00  0.00    +0.000 OA
ENDROOT
BRANCH   1   6
ATOM      3  C   UNL     1       1.309   8.832  19.540  0.00  0.00    +0.000 A 
ATOM      4  C   UNL     1       1.747   9.182  18.255  0.00  0.00    +0.000 A 
ATOM      5  C   UNL     1       2.680   8.398  17.567  0.00  0.00    +0.000 A 
ATOM      6  C   UNL     1       3.211   7.241  18.147  0.00  0.00    +0.000 A 
ATOM      7  C   UNL     1       2.791   6.881  19.428  0.00  0.00    +0.000 A 
ATOM      8  C   UNL     1       1.859   7.672  20.114  0.00  0.00    +0.000 A 
BRANCH   3  10
ATOM      9  C   UNL     1      -0.386   8.893  21.482  0.00  0.00    +0.000 C 
ATOM     10  C   UNL     1       0.263   9.659  20.308  0.00  0.00    +0.000 C 
ATOM     11  C   UNL     1      -0.865  10.089  19.349  0.00  0.00    +0.000 C 
ATOM     12  C   UNL     1       0.930  10.919  20.906  0.00  0.00    +0.000 C 
ENDBRANCH   3  10
ENDBRANCH   1   6
BRANCH   1  13
ATOM     13  C   UNL     1       4.748   5.158  17.933  0.00  0.00    +0.000 C 
BRANCH  13  14
ATOM     14  S   UNL     1       3.747   3.712  17.469  0.00  0.00    +0.000 S 
BRANCH  14  15
ATOM     15  C   UNL     1       2.978   3.326  19.028  0.00  0.00    +0.000 A 
ATOM     16  N   UNL     1       1.671   3.618  19.220  0.00  0.00    +0.000 NA
ATOM     17  N   UNL     1       1.086   3.275  20.409  0.00  0.00    +0.000 NA
ATOM     18  C   UNL     1       1.836   2.653  21.345  0.00  0.00    +0.000 A 
ATOM     19  N   UNL     1       3.123   2.322  21.231  0.00  0.00    +0.000 NA
ATOM     20  C   UNL     1       3.658   2.676  20.049  0.00  0.00    +0.000 A 
BRANCH  18  21
ATOM     21  O   UNL     1       1.214   2.331  22.511  0.00  0.00    +0.000 OA
ATOM     22  H   UNL     1       0.713   3.147  22.683  0.00  0.00    +0.000 HD
ENDBRANCH  18  21
BRANCH  20  23
ATOM     23  O   UNL     1       4.967   2.320  19.944  0.00  0.00    +0.000 OA
ATOM     24  H   UNL     1       5.268   2.922  19.242  0.00  0.00    +0.000 HD
ENDBRANCH  20  23
ENDBRANCH  14  15
ENDBRANCH  13  14
ENDBRANCH   1  13
TORSDOF 7
ENDMDL
MODEL 5
REMARK VINA RESULT:      -7.2      2.936      4.440
REMARK  Name = 
REMARK  10 active torsions:
REMARK  status: ('A' for Active; 'I' for Inactive)
REMARK    1  A    between atoms: C_1  and  C_2
REMARK    2  A    between atoms: C_2  and  C_3
REMARK    3  A    between atoms: C_2  and  C_4
REMARK    4  A    between atoms: C_2  and  C_5
REMARK    5  A    between atoms: C_8  and  C_9
REMARK    6  A    between atoms: C_9  and  C_11
REMARK    7  A    between atoms: C_11  and  S_12
REMARK    8  A    between atoms: S_12  and  C_13
REMARK    9  A    between atoms: C_16  and  O_17
REMARK   10  A    between atoms: C_19  and  O_20
REMARK                            x       y       z     vdW  Elec       q    Type
REMARK                         _______ _______ _______ _____ _____    ______ ____
ROOT
ATOM      1  C   UNL     1       4.066   5.685  18.329  0.00  0.00    +0.000 C 
ATOM      2  O   UNL     1       5.040   5.501  19.060  0.00  0.00    +0.000 OA
ENDROOT
BRANCH   1   6
ATOM      3  C   UNL     1       1.349   8.892  19.407  0.00  0.00    +0.000 A 
ATOM      4  C   UNL     1       1.619   7.820  20.268  0.00  0.00    +0.000 A 
ATOM      5  C   UNL     1       2.501   6.798  19.900  0.00  0.00    +0.000 A 
ATOM      6  C   UNL     1       3.136   6.811  18.654  0.00  0.00    +0.000 A 
ATOM      7  C   UNL     1       2.874   7.868  17.781  0.00  0.00    +0.000 A 
ATOM      8  C   UNL     1       1.987   8.888  18.153  0.00  0.00    +0.000 A 
BRANCH   3  10
ATOM      9  C   UNL     1      -0.787  10.218  18.829  0.00  0.00    +0.000 C 
ATOM     10  C   UNL     1       0.407  10.045  19.794  0.00  0.00    +0.000 C 
ATOM     11  C   UNL     1       1.191  11.373  19.810  0.00  0.00    +0.000 C 
ATOM     12  C   UNL     1      -0.183   9.788  21.199  0.00  0.00    +0.000 C 
ENDBRANCH   3  10
ENDBRANCH   1   6
BRANCH   1  13
ATOM     13  C   UNL     1       3.802   4.849  17.090  0.00  0.00    +0.000 C 
BRANCH  13  14
ATOM     14  S   UNL     1       3.944   3.063  17.411  0.00  0.00    +0.000 S 
BRANCH  14  15
ATOM     15  C   UNL     1       3.106   2.940  18.978  0.00  0.00    +0.000 A 
ATOM     16  N   UNL     1       1.770   3.141  19.039  0.00  0.00    +0.000 NA
ATOM     17  N   UNL     1       1.136   3.000  20.244  0.00  0.00    +0.000 NA
ATOM     18  C   UNL     1       1.870   2.661  21.326  0.00  0.00    +0.000 A 
ATOM     19  N   UNL     1       3.185   2.436  21.349  0.00  0.00    +0.000 NA
ATOM     20  C   UNL     1       3.767   2.585  20.145  0.00  0.00    +0.000 A 
BRANCH  18  21
ATOM     21  O   UNL     1       1.199   2.532  22.503  0.00  0.00    +0.000 OA
ATOM     22  H   UNL     1       1.828   2.945  23.119  0.00  0.00    +0.000 HD
ENDBRANCH  18  21
BRANCH  20  23
ATOM     23  O   UNL     1       5.105   2.340  20.183  0.00  0.00    +0.000 OA
ATOM     24  H   UNL     1       5.168   1.776  20.972  0.00  0.00    +0.000 HD
ENDBRANCH  20  23
ENDBRANCH  14  15
ENDBRANCH  13  14
ENDBRANCH   1  13
TORSDOF 7
ENDMDL
MODEL 6
REMARK VINA RESULT:      -7.2      1.346      1.627
REMARK  Name = 
REMARK  10 active torsions:
REMARK  status: ('A' for Active; 'I' for Inactive)
REMARK    1  A    between atoms: C_1  and  C_2
REMARK    2  A    between atoms: C_2  and  C_3
REMARK    3  A    between atoms: C_2  and  C_4
REMARK    4  A    between atoms: C_2  and  C_5
REMARK    5  A    between atoms: C_8  and  C_9
REMARK    6  A    between atoms: C_9  and  C_11
REMARK    7  A    between atoms: C_11  and  S_12
REMARK    8  A    between atoms: S_12  and  C_13
REMARK    9  A    between atoms: C_16  and  O_17
REMARK   10  A    between atoms: C_19  and  O_20
REMARK                            x       y       z     vdW  Elec       q    Type
REMARK                         _______ _______ _______ _____ _____    ______ ____
ROOT
ATOM      1  C   UNL     1       2.847   4.654  19.875  0.00  0.00    +0.000 C 
ATOM      2  O   UNL     1       2.278   3.960  20.719  0.00  0.00    +0.000 OA
ENDROOT
BRANCH   1   6
ATOM      3  C   UNL     1       1.541   8.736  19.193  0.00  0.00    +0.000 A 
ATOM      4  C   UNL     1       2.035   7.926  18.160  0.00  0.00    +0.000 A 
ATOM      5  C   UNL     1       2.448   6.611  18.403  0.00  0.00    +0.000 A 
ATOM      6  C   UNL     1       2.387   6.066  19.690  0.00  0.00    +0.000 A 
ATOM      7  C   UNL     1       1.904   6.860  20.731  0.00  0.00    +0.000 A 
ATOM      8  C   UNL     1       1.494   8.177  20.483  0.00  0.00    +0.000 A 
BRANCH   3  10
ATOM      9  C   UNL     1      -0.307  10.251  18.222  0.00  0.00    +0.000 C 
ATOM     10  C   UNL     1       1.053  10.175  18.951  0.00  0.00    +0.000 C 
ATOM     11  C   UNL     1       2.085  10.937  18.096  0.00  0.00    +0.000 C 
ATOM     12  C   UNL     1       0.880  10.902  20.304  0.00  0.00    +0.000 C 
ENDBRANCH   3  10
ENDBRANCH   1   6
BRANCH   1  13
ATOM     13  C   UNL     1       4.021   4.150  19.056  0.00  0.00    +0.000 C 
BRANCH  13  14
ATOM     14  S   UNL     1       5.463   5.256  19.153  0.00  0.00    +0.000 S 
BRANCH  14  15
ATOM     15  C   UNL     1       6.022   5.223  17.462  0.00  0.00    +0.000 A 
ATOM     16  N   UNL     1       5.287   5.834  16.504  0.00  0.00    +0.000 NA
ATOM     17  N   UNL     1       5.752   5.836  15.217  0.00  0.00    +0.000 NA
ATOM     18  C   UNL     1       6.932   5.231  14.953  0.00  0.00    +0.000 A 
ATOM     19  N   UNL     1       7.719   4.618  15.839  0.00  0.00    +0.000 NA
ATOM     20  C   UNL     1       7.224   4.639  17.090  0.00  0.00    +0.000 A 
BRANCH  18  21
ATOM     21  O   UNL     1       7.356   5.257  13.661  0.00  0.00    +0.000 OA
ATOM     22  H   UNL     1       6.507   5.206  13.188  0.00  0.00    +0.000 HD
ENDBRANCH  18  21
BRANCH  20  23
ATOM     23  O   UNL     1       8.044   4.021  17.982  0.00  0.00    +0.000 OA
ATOM     24  H   UNL     1       8.510   4.784  18.366  0.00  0.00    +0.000 HD
ENDBRANCH  20  23
ENDBRANCH  14  15
ENDBRANCH  13  14
ENDBRANCH   1  13
TORSDOF 7
ENDMDL
MODEL 7
REMARK VINA RESULT:      -7.1      3.073      4.580
REMARK  Name = 
REMARK  10 active torsions:
REMARK  status: ('A' for Active; 'I' for Inactive)
REMARK    1  A    between atoms: C_1  and  C_2
REMARK    2  A    between atoms: C_2  and  C_3
REMARK    3  A    between atoms: C_2  and  C_4
REMARK    4  A    between atoms: C_2  and  C_5
REMARK    5  A    between atoms: C_8  and  C_9
REMARK    6  A    between atoms: C_9  and  C_11
REMARK    7  A    between atoms: C_11  and  S_12
REMARK    8  A    between atoms: S_12  and  C_13
REMARK    9  A    between atoms: C_16  and  O_17
REMARK   10  A    between atoms: C_19  and  O_20
REMARK                            x       y       z     vdW  Elec       q    Type
REMARK                         _______ _______ _______ _____ _____    ______ ____
ROOT
ATOM      1  C   UNL     1       4.283   6.435  17.380  0.00  0.00    +0.000 C 
ATOM      2  O   UNL     1       4.555   6.823  16.243  0.00  0.00    +0.000 OA
ENDROOT
BRANCH   1   6
ATOM      3  C   UNL     1       1.357   8.777  19.568  0.00  0.00    +0.000 A 
ATOM      4  C   UNL     1       1.825   9.158  18.302  0.00  0.00    +0.000 A 
ATOM      5  C   UNL     1       2.767   8.386  17.614  0.00  0.00    +0.000 A 
ATOM      6  C   UNL     1       3.278   7.209  18.173  0.00  0.00    +0.000 A 
ATOM      7  C   UNL     1       2.827   6.819  19.435  0.00  0.00    +0.000 A 
ATOM      8  C   UNL     1       1.886   7.597  20.122  0.00  0.00    +0.000 A 
BRANCH   3  10
ATOM      9  C   UNL     1      -0.358   8.808  21.494  0.00  0.00    +0.000 C 
ATOM     10  C   UNL     1       0.300   9.590  20.336  0.00  0.00    +0.000 C 
ATOM     11  C   UNL     1      -0.820  10.028  19.371  0.00  0.00    +0.000 C 
ATOM     12  C   UNL     1       0.956  10.845  20.955  0.00  0.00    +0.000 C 
ENDBRANCH   3  10
ENDBRANCH   1   6
BRANCH   1  13
ATOM     13  C   UNL     1       4.886   5.180  17.983  0.00  0.00    +0.000 C 
BRANCH  13  14
ATOM     14  S   UNL     1       4.039   3.666  17.434  0.00  0.00    +0.000 S 
BRANCH  14  15
ATOM     15  C   UNL     1       3.146   3.230  18.913  0.00  0.00    +0.000 A 
ATOM     16  N   UNL     1       3.828   2.884  20.028  0.00  0.00    +0.000 NA
ATOM     17  N   UNL     1       3.127   2.593  21.167  0.00  0.00    +0.000 NA
ATOM     18  C   UNL     1       1.778   2.669  21.134  0.00  0.00    +0.000 A 
ATOM     19  N   UNL     1       1.033   3.011  20.082  0.00  0.00    +0.000 NA
ATOM     20  C   UNL     1       1.761   3.288  18.985  0.00  0.00    +0.000 A 
BRANCH  18  21
ATOM     21  O   UNL     1       1.122   2.372  22.288  0.00  0.00    +0.000 OA
ATOM     22  H   UNL     1       1.352   3.142  22.835  0.00  0.00    +0.000 HD
ENDBRANCH  18  21
BRANCH  20  23
ATOM     23  O   UNL     1       0.987   3.647  17.925  0.00  0.00    +0.000 OA
ATOM     24  H   UNL     1       1.606   3.507  17.188  0.00  0.00    +0.000 HD
ENDBRANCH  20  23
ENDBRANCH  14  15
ENDBRANCH  13  14
ENDBRANCH   1  13
TORSDOF 7
ENDMDL
MODEL 8
REMARK VINA RESULT:      -7.1      2.127      3.264
REMARK  Name = 
REMARK  10 active torsions:
REMARK  status: ('A' for Active; 'I' for Inactive)
REMARK    1  A    between atoms: C_1  and  C_2
REMARK    2  A    between atoms: C_2  and  C_3
REMARK    3  A    between atoms: C_2  and  C_4
REMARK    4  A    between atoms: C_2  and  C_5
REMARK    5  A    between atoms: C_8  and  C_9
REMARK    6  A    between atoms: C_9  and  C_11
REMARK    7  A    between atoms: C_11  and  S_12
REMARK    8  A    between atoms: S_12  and  C_13
REMARK    9  A    between atoms: C_16  and  O_17
REMARK   10  A    between atoms: C_19  and  O_20
REMARK                            x       y       z     vdW  Elec       q    Type
REMARK                         _______ _______ _______ _____ _____    ______ ____
ROOT
ATOM      1  C   UNL     1       3.501   4.256  18.349  0.00  0.00    +0.000 C 
ATOM      2  O   UNL     1       3.832   3.306  19.061  0.00  0.00    +0.000 OA
ENDROOT
BRANCH   1   6
ATOM      3  C   UNL     1       1.546   7.579  20.342  0.00  0.00    +0.000 A 
ATOM      4  C   UNL     1       1.551   6.283  20.879  0.00  0.00    +0.000 A 
ATOM      5  C   UNL     1       2.191   5.227  20.219  0.00  0.00    +0.000 A 
ATOM      6  C   UNL     1       2.840   5.432  18.997  0.00  0.00    +0.000 A 
ATOM      7  C   UNL     1       2.838   6.714  18.445  0.00  0.00    +0.000 A 
ATOM      8  C   UNL     1       2.193   7.767  19.107  0.00  0.00    +0.000 A 
BRANCH   3  10
ATOM      9  C   UNL     1       0.725  10.017  20.166  0.00  0.00    +0.000 C 
ATOM     10  C   UNL     1       0.876   8.765  21.057  0.00  0.00    +0.000 C 
ATOM     11  C   UNL     1       1.712   9.167  22.289  0.00  0.00    +0.000 C 
ATOM     12  C   UNL     1      -0.544   8.364  21.516  0.00  0.00    +0.000 C 
ENDBRANCH   3  10
ENDBRANCH   1   6
BRANCH   1  13
ATOM     13  C   UNL     1       3.784   4.301  16.859  0.00  0.00    +0.000 C 
BRANCH  13  14
ATOM     14  S   UNL     1       5.477   3.771  16.455  0.00  0.00    +0.000 S 
BRANCH  14  15
ATOM     15  C   UNL     1       6.425   5.059  17.239  0.00  0.00    +0.000 A 
ATOM     16  N   UNL     1       7.152   4.775  18.343  0.00  0.00    +0.000 NA
ATOM     17  N   UNL     1       7.908   5.766  18.909  0.00  0.00    +0.000 NA
ATOM     18  C   UNL     1       7.902   6.991  18.338  0.00  0.00    +0.000 A 
ATOM     19  N   UNL     1       7.222   7.349  17.247  0.00  0.00    +0.000 NA
ATOM     20  C   UNL     1       6.494   6.346  16.725  0.00  0.00    +0.000 A 
BRANCH  18  21
ATOM     21  O   UNL     1       8.667   7.945  18.933  0.00  0.00    +0.000 OA
ATOM     22  H   UNL     1       8.227   8.755  18.621  0.00  0.00    +0.000 HD
ENDBRANCH  18  21
BRANCH  20  23
ATOM     23  O   UNL     1       5.817   6.724  15.607  0.00  0.00    +0.000 OA
ATOM     24  H   UNL     1       6.473   6.526  14.917  0.00  0.00    +0.000 HD
ENDBRANCH  20  23
ENDBRANCH  14  15
ENDBRANCH  13  14
ENDBRANCH   1  13
TORSDOF 7
ENDMDL
MODEL 9
REMARK VINA RESULT:      -7.1      1.583      2.102
REMARK  Name = 
REMARK  10 active torsions:
REMARK  status: ('A' for Active; 'I' for Inactive)
REMARK    1  A    between atoms: C_1  and  C_2
REMARK    2  A    between atoms: C_2  and  C_3
REMARK    3  A    between atoms: C_2  and  C_4
REMARK    4  A    between atoms: C_2  and  C_5
REMARK    5  A    between atoms: C_8  and  C_9
REMARK    6  A    between atoms: C_9  and  C_11
REMARK    7  A    between atoms: C_11  and  S_12
REMARK    8  A    between atoms: S_12  and  C_13
REMARK    9  A    between atoms: C_16  and  O_17
REMARK   10  A    between atoms: C_19  and  O_20
REMARK                            x       y       z     vdW  Elec       q    Type
REMARK                         _______ _______ _______ _____ _____    ______ ____
ROOT
ATOM      1  C   UNL     1       2.832   5.390  19.239  0.00  0.00    +0.000 C 
ATOM      2  O   UNL     1       3.332   4.980  20.289  0.00  0.00    +0.000 OA
ENDROOT
BRANCH   1   6
ATOM      3  C   UNL     1       1.323   9.458  19.259  0.00  0.00    +0.000 A 
ATOM      4  C   UNL     1       1.278   8.638  20.395  0.00  0.00    +0.000 A 
ATOM      5  C   UNL     1       1.773   7.329  20.366  0.00  0.00    +0.000 A 
ATOM      6  C   UNL     1       2.323   6.796  19.196  0.00  0.00    +0.000 A 
ATOM      7  C   UNL     1       2.370   7.596  18.054  0.00  0.00    +0.000 A 
ATOM      8  C   UNL     1       1.870   8.905  18.087  0.00  0.00    +0.000 A 
BRANCH   3  10
ATOM      9  C   UNL     1      -0.564  11.084  18.591  0.00  0.00    +0.000 C 
ATOM     10  C   UNL     1       0.813  10.910  19.268  0.00  0.00    +0.000 C 
ATOM     11  C   UNL     1       1.816  11.817  18.528  0.00  0.00    +0.000 C 
ATOM     12  C   UNL     1       0.664  11.402  20.726  0.00  0.00    +0.000 C 
ENDBRANCH   3  10
ENDBRANCH   1   6
BRANCH   1  13
ATOM     13  C   UNL     1       2.761   4.543  17.981  0.00  0.00    +0.000 C 
BRANCH  13  14
ATOM     14  S   UNL     1       4.310   3.645  17.657  0.00  0.00    +0.000 S 
BRANCH  14  15
ATOM     15  C   UNL     1       5.454   5.002  17.497  0.00  0.00    +0.000 A 
ATOM     16  N   UNL     1       5.446   5.754  16.373  0.00  0.00    +0.000 NA
ATOM     17  N   UNL     1       6.301   6.818  16.285  0.00  0.00    +0.000 NA
ATOM     18  C   UNL     1       7.119   7.080  17.328  0.00  0.00    +0.000 A 
ATOM     19  N   UNL     1       7.183   6.396  18.471  0.00  0.00    +0.000 NA
ATOM     20  C   UNL     1       6.326   5.360  18.516  0.00  0.00    +0.000 A 
BRANCH  18  21
ATOM     21  O   UNL     1       7.954   8.147  17.197  0.00  0.00    +0.000 OA
ATOM     22  H   UNL     1       7.781   8.403  16.274  0.00  0.00    +0.000 HD
ENDBRANCH  18  21
BRANCH  20  23
ATOM     23  O   UNL     1       6.394   4.681  19.693  0.00  0.00    +0.000 OA
ATOM     24  H   UNL     1       6.107   5.367  20.319  0.00  0.00    +0.000 HD
ENDBRANCH  20  23
ENDBRANCH  14  15
ENDBRANCH  13  14
ENDBRANCH   1  13
TORSDOF 7
ENDMDL
