MODEL 1
REMARK VINA RESULT:      -8.6      0.000      0.000
REMARK  Name = 
REMARK  10 active torsions:
REMARK  status: ('A' for Active; 'I' for Inactive)
REMARK    1  A    between atoms: C_1  and  C_2
REMARK    2  A    between atoms: C_7  and  C_8
REMARK    3  A    between atoms: C_8  and  C_9
REMARK    4  A    between atoms: C_8  and  N_11
REMARK    5  A    between atoms: C_15  and  C_17
REMARK    6  A    between atoms: C_17  and  C_18
REMARK    7  A    between atoms: C_18  and  N_19
REMARK    8  A    between atoms: C_18  and  C_29
REMARK    9  A    between atoms: C_20  and  C_22
REMARK   10  A    between atoms: C_27  and  O_28
REMARK                            x       y       z     vdW  Elec       q    Type
REMARK                         _______ _______ _______ _____ _____    ______ ____
ROOT
ATOM      1  C   UNL     1       2.394   7.239  19.444  0.00  0.00    +0.000 C 
ENDROOT
BRANCH   1   6
ATOM      2  N   UNL     1      -0.051  11.723  20.411  0.00  0.00    +0.000 NA
ATOM      3  C   UNL     1      -0.250  11.534  18.995  0.00  0.00    +0.000 C 
ATOM      4  C   UNL     1       0.769  10.548  18.406  0.00  0.00    +0.000 C 
ATOM      5  N   UNL     1       1.059   9.346  19.200  0.00  0.00    +0.000 N 
ATOM      6  C   UNL     1       2.009   8.472  18.644  0.00  0.00    +0.000 C 
ATOM      7  O   UNL     1       2.459   8.642  17.508  0.00  0.00    +0.000 OA
ATOM      8  C   UNL     1       0.670   9.305  20.621  0.00  0.00    +0.000 C 
ATOM      9  C   UNL     1      -0.157  10.495  21.176  0.00  0.00    +0.000 C 
BRANCH   2  10
ATOM     10  C   UNL     1       0.392  12.984  21.003  0.00  0.00    +0.000 C 
BRANCH  10  17
ATOM     11  C   UNL     1       2.800  13.772  19.280  0.00  0.00    +0.000 C 
ATOM     12  C   UNL     1       1.555  14.599  19.340  0.00  0.00    +0.000 A 
ATOM     13  N   UNL     1       1.636  15.752  18.613  0.00  0.00    +0.000 NA
ATOM     14  C   UNL     1       0.552  16.540  18.547  0.00  0.00    +0.000 A 
ATOM     15  C   UNL     1      -0.636  16.236  19.174  0.00  0.00    +0.000 A 
ATOM     16  C   UNL     1      -0.707  15.053  19.919  0.00  0.00    +0.000 A 
ATOM     17  C   UNL     1       0.409  14.205  20.052  0.00  0.00    +0.000 A 
ENDBRANCH  10  17
BRANCH  10  18
ATOM     18  C   UNL     1      -0.290  13.320  22.319  0.00  0.00    +0.000 C 
ATOM     19  N   UNL     1      -0.855  13.599  23.412  0.00  0.00    +0.000 NA
ENDBRANCH  10  18
ENDBRANCH   2  10
ENDBRANCH   1   6
BRANCH   1  20
ATOM     20  C   UNL     1       2.103   5.903  18.720  0.00  0.00    +0.000 C 
BRANCH  20  21
ATOM     21  C   UNL     1       1.849   4.732  19.688  0.00  0.00    +0.000 A 
ATOM     22  C   UNL     1       2.275   4.748  21.028  0.00  0.00    +0.000 A 
ATOM     23  C   UNL     1       2.117   3.643  21.866  0.00  0.00    +0.000 A 
ATOM     24  C   UNL     1       1.513   2.488  21.383  0.00  0.00    +0.000 A 
ATOM     25  C   UNL     1       1.047   2.451  20.073  0.00  0.00    +0.000 A 
ATOM     26  C   UNL     1       1.205   3.563  19.233  0.00  0.00    +0.000 A 
ENDBRANCH  20  21
BRANCH  20  27
ATOM     27  N   UNL     1       3.155   5.562  17.751  0.00  0.00    +0.000 N 
ATOM     28  C   UNL     1       4.481   5.404  18.094  0.00  0.00    +0.000 C 
ATOM     29  O   UNL     1       4.906   5.546  19.234  0.00  0.00    +0.000 OA
ATOM     30  H   UNL     1       2.966   5.698  16.763  0.00  0.00    +0.000 HD
BRANCH  28  31
ATOM     31  C   UNL     1       5.406   5.096  16.951  0.00  0.00    +0.000 A 
ATOM     32  N   UNL     1       4.915   5.402  15.715  0.00  0.00    +0.000 NA
ATOM     33  C   UNL     1       5.786   5.286  14.684  0.00  0.00    +0.000 A 
ATOM     34  C   UNL     1       7.091   4.837  14.811  0.00  0.00    +0.000 A 
ATOM     35  C   UNL     1       7.552   4.478  16.075  0.00  0.00    +0.000 A 
ATOM     36  C   UNL     1       6.702   4.616  17.171  0.00  0.00    +0.000 A 
BRANCH  36  37
ATOM     37  O   UNL     1       7.141   4.246  18.407  0.00  0.00    +0.000 OA
ATOM     38  H   UNL     1       6.705   4.786  19.084  0.00  0.00    +0.000 HD
ENDBRANCH  36  37
ENDBRANCH  28  31
ENDBRANCH  20  27
ENDBRANCH   1  20
TORSDOF 9
ENDMDL
MODEL 2
REMARK VINA RESULT:      -8.4      2.571      9.379
REMARK  Name = 
REMARK  10 active torsions:
REMARK  status: ('A' for Active; 'I' for Inactive)
REMARK    1  A    between atoms: C_1  and  C_2
REMARK    2  A    between atoms: C_7  and  C_8
REMARK    3  A    between atoms: C_8  and  C_9
REMARK    4  A    between atoms: C_8  and  N_11
REMARK    5  A    between atoms: C_15  and  C_17
REMARK    6  A    between atoms: C_17  and  C_18
REMARK    7  A    between atoms: C_18  and  N_19
REMARK    8  A    between atoms: C_18  and  C_29
REMARK    9  A    between atoms: C_20  and  C_22
REMARK   10  A    between atoms: C_27  and  O_28
REMARK                            x       y       z     vdW  Elec       q    Type
REMARK                         _______ _______ _______ _____ _____    ______ ____
ROOT
ATOM      1  C   UNL     1       1.475   9.071  18.747  0.00  0.00    +0.000 C 
ENDROOT
BRANCH   1   6
ATOM      2  N   UNL     1       3.013   4.107  18.824  0.00  0.00    +0.000 NA
ATOM      3  C   UNL     1       2.295   4.252  20.067  0.00  0.00    +0.000 C 
ATOM      4  C   UNL     1       2.166   5.726  20.478  0.00  0.00    +0.000 C 
ATOM      5  N   UNL     1       1.844   6.683  19.411  0.00  0.00    +0.000 N 
ATOM      6  C   UNL     1       1.751   8.027  19.814  0.00  0.00    +0.000 C 
ATOM      7  O   UNL     1       1.803   8.350  21.003  0.00  0.00    +0.000 OA
ATOM      8  C   UNL     1       2.009   6.281  18.002  0.00  0.00    +0.000 C 
ATOM      9  C   UNL     1       2.391   4.805  17.715  0.00  0.00    +0.000 C 
BRANCH   2  10
ATOM     10  C   UNL     1       4.327   3.477  18.720  0.00  0.00    +0.000 C 
BRANCH  10  17
ATOM     11  C   UNL     1       5.558   3.825  15.935  0.00  0.00    +0.000 C 
ATOM     12  C   UNL     1       6.114   4.505  17.145  0.00  0.00    +0.000 A 
ATOM     13  N   UNL     1       7.245   5.227  16.889  0.00  0.00    +0.000 NA
ATOM     14  C   UNL     1       7.793   5.929  17.893  0.00  0.00    +0.000 A 
ATOM     15  C   UNL     1       7.264   5.958  19.164  0.00  0.00    +0.000 A 
ATOM     16  C   UNL     1       6.107   5.213  19.416  0.00  0.00    +0.000 A 
ATOM     17  C   UNL     1       5.508   4.430  18.412  0.00  0.00    +0.000 A 
ENDBRANCH  10  17
BRANCH  10  18
ATOM     18  C   UNL     1       4.659   2.546  19.875  0.00  0.00    +0.000 C 
ATOM     19  N   UNL     1       4.934   1.774  20.833  0.00  0.00    +0.000 NA
ENDBRANCH  10  18
ENDBRANCH   2  10
ENDBRANCH   1   6
BRANCH   1  20
ATOM     20  C   UNL     1       0.698  10.307  19.261  0.00  0.00    +0.000 C 
BRANCH  20  21
ATOM     21  C   UNL     1      -0.697  10.454  18.625  0.00  0.00    +0.000 A 
ATOM     22  C   UNL     1      -1.084   9.746  17.472  0.00  0.00    +0.000 A 
ATOM     23  C   UNL     1      -2.319   9.959  16.857  0.00  0.00    +0.000 A 
ATOM     24  C   UNL     1      -3.209  10.883  17.389  0.00  0.00    +0.000 A 
ATOM     25  C   UNL     1      -2.872  11.574  18.548  0.00  0.00    +0.000 A 
ATOM     26  C   UNL     1      -1.632  11.359  19.167  0.00  0.00    +0.000 A 
ENDBRANCH  20  21
BRANCH  20  27
ATOM     27  N   UNL     1       1.474  11.546  19.111  0.00  0.00    +0.000 N 
ATOM     28  C   UNL     1       1.697  12.433  20.144  0.00  0.00    +0.000 C 
ATOM     29  O   UNL     1       1.257  12.276  21.275  0.00  0.00    +0.000 OA
ATOM     30  H   UNL     1       1.638  11.906  18.176  0.00  0.00    +0.000 HD
BRANCH  28  31
ATOM     31  C   UNL     1       2.481  13.660  19.776  0.00  0.00    +0.000 A 
ATOM     32  N   UNL     1       2.199  14.176  18.544  0.00  0.00    +0.000 NA
ATOM     33  C   UNL     1       2.771  15.369  18.254  0.00  0.00    +0.000 A 
ATOM     34  C   UNL     1       3.639  16.044  19.097  0.00  0.00    +0.000 A 
ATOM     35  C   UNL     1       3.955  15.471  20.326  0.00  0.00    +0.000 A 
ATOM     36  C   UNL     1       3.361  14.261  20.683  0.00  0.00    +0.000 A 
BRANCH  36  37
ATOM     37  O   UNL     1       3.682  13.686  21.875  0.00  0.00    +0.000 OA
ATOM     38  H   UNL     1       3.660  14.354  22.578  0.00  0.00    +0.000 HD
ENDBRANCH  36  37
ENDBRANCH  28  31
ENDBRANCH  20  27
ENDBRANCH   1  20
TORSDOF 9
ENDMDL
MODEL 3
REMARK VINA RESULT:      -8.4      0.728      1.070
REMARK  Name = 
REMARK  10 active torsions:
REMARK  status: ('A' for Active; 'I' for Inactive)
REMARK    1  A    between atoms: C_1  and  C_2
REMARK    2  A    between atoms: C_7  and  C_8
REMARK    3  A    between atoms: C_8  and  C_9
REMARK    4  A    between atoms: C_8  and  N_11
REMARK    5  A    between atoms: C_15  and  C_17
REMARK    6  A    between atoms: C_17  and  C_18
REMARK    7  A    between atoms: C_18  and  N_19
REMARK    8  A    between atoms: C_18  and  C_29
REMARK    9  A    between atoms: C_20  and  C_22
REMARK   10  A    between atoms: C_27  and  O_28
REMARK                            x       y       z     vdW  Elec       q    Type
REMARK                         _______ _______ _______ _____ _____    ______ ____
ROOT
ATOM      1  C   UNL     1       2.286   7.233  19.691  0.00  0.00    +0.000 C 
ENDROOT
BRANCH   1   6
ATOM      2  N   UNL     1      -0.067  11.814  20.394  0.00  0.00    +0.000 NA
ATOM      3  C   UNL     1      -0.179  11.597  18.973  0.00  0.00    +0.000 C 
ATOM      4  C   UNL     1       0.843  10.565  18.475  0.00  0.00    +0.000 C 
ATOM      5  N   UNL     1       1.041   9.374  19.312  0.00  0.00    +0.000 N 
ATOM      6  C   UNL     1       1.996   8.457  18.840  0.00  0.00    +0.000 C 
ATOM      7  O   UNL     1       2.523   8.585  17.733  0.00  0.00    +0.000 OA
ATOM      8  C   UNL     1       0.558   9.380  20.706  0.00  0.00    +0.000 C 
ATOM      9  C   UNL     1      -0.263  10.609  21.178  0.00  0.00    +0.000 C 
BRANCH   2  10
ATOM     10  C   UNL     1       0.378  13.074  20.987  0.00  0.00    +0.000 C 
BRANCH  10  17
ATOM     11  C   UNL     1       2.785  13.939  19.299  0.00  0.00    +0.000 C 
ATOM     12  C   UNL     1       1.517  14.729  19.347  0.00  0.00    +0.000 A 
ATOM     13  N   UNL     1       1.575  15.888  18.626  0.00  0.00    +0.000 NA
ATOM     14  C   UNL     1       0.470  16.646  18.550  0.00  0.00    +0.000 A 
ATOM     15  C   UNL     1      -0.717  16.305  19.160  0.00  0.00    +0.000 A 
ATOM     16  C   UNL     1      -0.764  15.118  19.898  0.00  0.00    +0.000 A 
ATOM     17  C   UNL     1       0.373  14.300  20.042  0.00  0.00    +0.000 A 
ENDBRANCH  10  17
BRANCH  10  18
ATOM     18  C   UNL     1      -0.285  13.400  22.315  0.00  0.00    +0.000 C 
ATOM     19  N   UNL     1      -0.836  13.670  23.416  0.00  0.00    +0.000 NA
ENDBRANCH  10  18
ENDBRANCH   2  10
ENDBRANCH   1   6
BRANCH   1  20
ATOM     20  C   UNL     1       2.295   5.903  18.899  0.00  0.00    +0.000 C 
BRANCH  20  21
ATOM     21  C   UNL     1       1.974   4.676  19.773  0.00  0.00    +0.000 A 
ATOM     22  C   UNL     1       1.002   3.723  19.417  0.00  0.00    +0.000 A 
ATOM     23  C   UNL     1       0.660   2.668  20.265  0.00  0.00    +0.000 A 
ATOM     24  C   UNL     1       1.295   2.530  21.492  0.00  0.00    +0.000 A 
ATOM     25  C   UNL     1       2.287   3.434  21.860  0.00  0.00    +0.000 A 
ATOM     26  C   UNL     1       2.631   4.494  21.008  0.00  0.00    +0.000 A 
ENDBRANCH  20  21
BRANCH  20  27
ATOM     27  N   UNL     1       3.552   5.708  18.165  0.00  0.00    +0.000 N 
ATOM     28  C   UNL     1       3.743   4.707  17.236  0.00  0.00    +0.000 C 
ATOM     29  O   UNL     1       2.886   3.880  16.949  0.00  0.00    +0.000 OA
ATOM     30  H   UNL     1       4.396   6.146  18.522  0.00  0.00    +0.000 HD
BRANCH  28  31
ATOM     31  C   UNL     1       5.114   4.653  16.625  0.00  0.00    +0.000 A 
ATOM     32  N   UNL     1       5.159   4.910  15.285  0.00  0.00    +0.000 NA
ATOM     33  C   UNL     1       6.394   5.026  14.743  0.00  0.00    +0.000 A 
ATOM     34  C   UNL     1       7.575   4.852  15.447  0.00  0.00    +0.000 A 
ATOM     35  C   UNL     1       7.504   4.535  16.800  0.00  0.00    +0.000 A 
ATOM     36  C   UNL     1       6.253   4.441  17.410  0.00  0.00    +0.000 A 
BRANCH  36  37
ATOM     37  O   UNL     1       6.177   4.111  18.729  0.00  0.00    +0.000 OA
ATOM     38  H   UNL     1       5.821   4.859  19.234  0.00  0.00    +0.000 HD
ENDBRANCH  36  37
ENDBRANCH  28  31
ENDBRANCH  20  27
ENDBRANCH   1  20
TORSDOF 9
ENDMDL
MODEL 4
REMARK VINA RESULT:      -8.4      2.731      9.400
REMARK  Name = 
REMARK  10 active torsions:
REMARK  status: ('A' for Active; 'I' for Inactive)
REMARK    1  A    between atoms: C_1  and  C_2
REMARK    2  A    between atoms: C_7  and  C_8
REMARK    3  A    between atoms: C_8  and  C_9
REMARK    4  A    between atoms: C_8  and  N_11
REMARK    5  A    between atoms: C_15  and  C_17
REMARK    6  A    between atoms: C_17  and  C_18
REMARK    7  A    between atoms: C_18  and  N_19
REMARK    8  A    between atoms: C_18  and  C_29
REMARK    9  A    between atoms: C_20  and  C_22
REMARK   10  A    between atoms: C_27  and  O_28
REMARK                            x       y       z     vdW  Elec       q    Type
REMARK                         _______ _______ _______ _____ _____    ______ ____
ROOT
ATOM      1  C   UNL     1       0.294   9.215  19.354  0.00  0.00    +0.000 C 
ENDROOT
BRANCH   1   6
ATOM      2  N   UNL     1       4.072   5.829  18.221  0.00  0.00    +0.000 NA
ATOM      3  C   UNL     1       4.588   7.081  17.727  0.00  0.00    +0.000 C 
ATOM      4  C   UNL     1       3.471   8.113  17.521  0.00  0.00    +0.000 C 
ATOM      5  N   UNL     1       2.439   8.188  18.565  0.00  0.00    +0.000 N 
ATOM      6  C   UNL     1       1.420   9.129  18.338  0.00  0.00    +0.000 C 
ATOM      7  O   UNL     1       1.470   9.924  17.397  0.00  0.00    +0.000 OA
ATOM      8  C   UNL     1       2.309   7.086  19.535  0.00  0.00    +0.000 C 
ATOM      9  C   UNL     1       3.368   5.953  19.484  0.00  0.00    +0.000 C 
BRANCH   2  10
ATOM     10  C   UNL     1       4.089   4.588  17.450  0.00  0.00    +0.000 C 
BRANCH  10  17
ATOM     11  C   UNL     1       7.088   4.679  18.071  0.00  0.00    +0.000 C 
ATOM     12  C   UNL     1       6.563   4.615  16.672  0.00  0.00    +0.000 A 
ATOM     13  N   UNL     1       7.544   4.669  15.723  0.00  0.00    +0.000 NA
ATOM     14  C   UNL     1       7.189   4.557  14.434  0.00  0.00    +0.000 A 
ATOM     15  C   UNL     1       5.884   4.384  14.027  0.00  0.00    +0.000 A 
ATOM     16  C   UNL     1       4.887   4.333  15.007  0.00  0.00    +0.000 A 
ATOM     17  C   UNL     1       5.196   4.480  16.373  0.00  0.00    +0.000 A 
ENDBRANCH  10  17
BRANCH  10  18
ATOM     18  C   UNL     1       4.025   3.330  18.301  0.00  0.00    +0.000 C 
ATOM     19  N   UNL     1       3.972   2.287  19.008  0.00  0.00    +0.000 NA
ENDBRANCH  10  18
ENDBRANCH   2  10
ENDBRANCH   1   6
BRANCH   1  20
ATOM     20  C   UNL     1      -0.443  10.575  19.365  0.00  0.00    +0.000 C 
BRANCH  20  21
ATOM     21  C   UNL     1      -1.656  10.615  18.417  0.00  0.00    +0.000 A 
ATOM     22  C   UNL     1      -1.742   9.820  17.260  0.00  0.00    +0.000 A 
ATOM     23  C   UNL     1      -2.806   9.935  16.363  0.00  0.00    +0.000 A 
ATOM     24  C   UNL     1      -3.825  10.847  16.610  0.00  0.00    +0.000 A 
ATOM     25  C   UNL     1      -3.789  11.624  17.763  0.00  0.00    +0.000 A 
ATOM     26  C   UNL     1      -2.720  11.507  18.664  0.00  0.00    +0.000 A 
ENDBRANCH  20  21
BRANCH  20  27
ATOM     27  N   UNL     1       0.468  11.697  19.097  0.00  0.00    +0.000 N 
ATOM     28  C   UNL     1       1.265  12.276  20.062  0.00  0.00    +0.000 C 
ATOM     29  O   UNL     1       1.276  11.918  21.233  0.00  0.00    +0.000 OA
ATOM     30  H   UNL     1       0.331  12.242  18.251  0.00  0.00    +0.000 HD
BRANCH  28  31
ATOM     31  C   UNL     1       2.096  13.437  19.595  0.00  0.00    +0.000 A 
ATOM     32  N   UNL     1       2.154  14.490  20.460  0.00  0.00    +0.000 NA
ATOM     33  C   UNL     1       3.022  15.478  20.138  0.00  0.00    +0.000 A 
ATOM     34  C   UNL     1       3.791  15.496  18.985  0.00  0.00    +0.000 A 
ATOM     35  C   UNL     1       3.674  14.437  18.089  0.00  0.00    +0.000 A 
ATOM     36  C   UNL     1       2.819  13.379  18.398  0.00  0.00    +0.000 A 
BRANCH  36  37
ATOM     37  O   UNL     1       2.685  12.349  17.515  0.00  0.00    +0.000 OA
ATOM     38  H   UNL     1       2.982  12.631  16.636  0.00  0.00    +0.000 HD
ENDBRANCH  36  37
ENDBRANCH  28  31
ENDBRANCH  20  27
ENDBRANCH   1  20
TORSDOF 9
ENDMDL
MODEL 5
REMARK VINA RESULT:      -8.2      0.775      1.099
REMARK  Name = 
REMARK  10 active torsions:
REMARK  status: ('A' for Active; 'I' for Inactive)
REMARK    1  A    between atoms: C_1  and  C_2
REMARK    2  A    between atoms: C_7  and  C_8
REMARK    3  A    between atoms: C_8  and  C_9
REMARK    4  A    between atoms: C_8  and  N_11
REMARK    5  A    between atoms: C_15  and  C_17
REMARK    6  A    between atoms: C_17  and  C_18
REMARK    7  A    between atoms: C_18  and  N_19
REMARK    8  A    between atoms: C_18  and  C_29
REMARK    9  A    between atoms: C_20  and  C_22
REMARK   10  A    between atoms: C_27  and  O_28
REMARK                            x       y       z     vdW  Elec       q    Type
REMARK                         _______ _______ _______ _____ _____    ______ ____
ROOT
ATOM      1  C   UNL     1       2.395   7.228  19.388  0.00  0.00    +0.000 C 
ENDROOT
BRANCH   1   6
ATOM      2  N   UNL     1      -0.077  11.713  20.284  0.00  0.00    +0.000 NA
ATOM      3  C   UNL     1      -0.194  11.547  18.856  0.00  0.00    +0.000 C 
ATOM      4  C   UNL     1       0.851  10.564  18.312  0.00  0.00    +0.000 C 
ATOM      5  N   UNL     1       1.088   9.347  19.101  0.00  0.00    +0.000 N 
ATOM      6  C   UNL     1       2.064   8.476  18.587  0.00  0.00    +0.000 C 
ATOM      7  O   UNL     1       2.579   8.660  17.482  0.00  0.00    +0.000 OA
ATOM      8  C   UNL     1       0.617   9.287  20.497  0.00  0.00    +0.000 C 
ATOM      9  C   UNL     1      -0.233  10.473  21.022  0.00  0.00    +0.000 C 
BRANCH   2  10
ATOM     10  C   UNL     1       0.339  12.961  20.921  0.00  0.00    +0.000 C 
BRANCH  10  17
ATOM     11  C   UNL     1       2.874  13.780  19.407  0.00  0.00    +0.000 C 
ATOM     12  C   UNL     1       1.624  14.601  19.378  0.00  0.00    +0.000 A 
ATOM     13  N   UNL     1       1.758  15.765  18.674  0.00  0.00    +0.000 NA
ATOM     14  C   UNL     1       0.679  16.550  18.531  0.00  0.00    +0.000 A 
ATOM     15  C   UNL     1      -0.554  16.233  19.057  0.00  0.00    +0.000 A 
ATOM     16  C   UNL     1      -0.679  15.041  19.779  0.00  0.00    +0.000 A 
ATOM     17  C   UNL     1       0.426  14.195  19.990  0.00  0.00    +0.000 A 
ENDBRANCH  10  17
BRANCH  10  18
ATOM     18  C   UNL     1      -0.423  13.286  22.196  0.00  0.00    +0.000 C 
ATOM     19  N   UNL     1      -1.054  13.555  23.253  0.00  0.00    +0.000 NA
ENDBRANCH  10  18
ENDBRANCH   2  10
ENDBRANCH   1   6
BRANCH   1  20
ATOM     20  C   UNL     1       2.020   5.905  18.678  0.00  0.00    +0.000 C 
BRANCH  20  21
ATOM     21  C   UNL     1       1.828   4.728  19.651  0.00  0.00    +0.000 A 
ATOM     22  C   UNL     1       2.259   4.771  20.990  0.00  0.00    +0.000 A 
ATOM     23  C   UNL     1       2.160   3.662  21.832  0.00  0.00    +0.000 A 
ATOM     24  C   UNL     1       1.611   2.477  21.357  0.00  0.00    +0.000 A 
ATOM     25  C   UNL     1       1.142   2.411  20.049  0.00  0.00    +0.000 A 
ATOM     26  C   UNL     1       1.242   3.526  19.204  0.00  0.00    +0.000 A 
ENDBRANCH  20  21
BRANCH  20  27
ATOM     27  N   UNL     1       2.980   5.559  17.620  0.00  0.00    +0.000 N 
ATOM     28  C   UNL     1       4.318   5.325  17.855  0.00  0.00    +0.000 C 
ATOM     29  O   UNL     1       4.832   5.398  18.964  0.00  0.00    +0.000 OA
ATOM     30  H   UNL     1       2.726   5.747  16.654  0.00  0.00    +0.000 HD
BRANCH  28  31
ATOM     31  C   UNL     1       5.140   5.025  16.634  0.00  0.00    +0.000 A 
ATOM     32  N   UNL     1       5.604   3.744  16.551  0.00  0.00    +0.000 NA
ATOM     33  C   UNL     1       6.208   3.403  15.389  0.00  0.00    +0.000 A 
ATOM     34  C   UNL     1       6.417   4.277  14.332  0.00  0.00    +0.000 A 
ATOM     35  C   UNL     1       5.985   5.593  14.461  0.00  0.00    +0.000 A 
ATOM     36  C   UNL     1       5.325   5.980  15.628  0.00  0.00    +0.000 A 
BRANCH  36  37
ATOM     37  O   UNL     1       4.917   7.272  15.767  0.00  0.00    +0.000 OA
ATOM     38  H   UNL     1       4.714   7.648  14.897  0.00  0.00    +0.000 HD
ENDBRANCH  36  37
ENDBRANCH  28  31
ENDBRANCH  20  27
ENDBRANCH   1  20
TORSDOF 9
ENDMDL
MODEL 6
REMARK VINA RESULT:      -8.2      2.619      9.302
REMARK  Name = 
REMARK  10 active torsions:
REMARK  status: ('A' for Active; 'I' for Inactive)
REMARK    1  A    between atoms: C_1  and  C_2
REMARK    2  A    between atoms: C_7  and  C_8
REMARK    3  A    between atoms: C_8  and  C_9
REMARK    4  A    between atoms: C_8  and  N_11
REMARK    5  A    between atoms: C_15  and  C_17
REMARK    6  A    between atoms: C_17  and  C_18
REMARK    7  A    between atoms: C_18  and  N_19
REMARK    8  A    between atoms: C_18  and  C_29
REMARK    9  A    between atoms: C_20  and  C_22
REMARK   10  A    between atoms: C_27  and  O_28
REMARK                            x       y       z     vdW  Elec       q    Type
REMARK                         _______ _______ _______ _____ _____    ______ ____
ROOT
ATOM      1  C   UNL     1       1.463   9.167  19.280  0.00  0.00    +0.000 C 
ENDROOT
BRANCH   1   6
ATOM      2  N   UNL     1       2.951   4.213  18.775  0.00  0.00    +0.000 NA
ATOM      3  C   UNL     1       2.206   4.212  20.009  0.00  0.00    +0.000 C 
ATOM      4  C   UNL     1       2.081   5.625  20.597  0.00  0.00    +0.000 C 
ATOM      5  N   UNL     1       1.793   6.711  19.651  0.00  0.00    +0.000 N 
ATOM      6  C   UNL     1       1.703   7.995  20.215  0.00  0.00    +0.000 C 
ATOM      7  O   UNL     1       1.730   8.169  21.436  0.00  0.00    +0.000 OA
ATOM      8  C   UNL     1       1.987   6.484  18.207  0.00  0.00    +0.000 C 
ATOM      9  C   UNL     1       2.362   5.051  17.747  0.00  0.00    +0.000 C 
BRANCH   2  10
ATOM     10  C   UNL     1       4.261   3.584  18.622  0.00  0.00    +0.000 C 
BRANCH  10  17
ATOM     11  C   UNL     1       5.377   4.082  15.812  0.00  0.00    +0.000 C 
ATOM     12  C   UNL     1       5.990   4.688  17.034  0.00  0.00    +0.000 A 
ATOM     13  N   UNL     1       7.116   5.415  16.771  0.00  0.00    +0.000 NA
ATOM     14  C   UNL     1       7.713   6.055  17.789  0.00  0.00    +0.000 A 
ATOM     15  C   UNL     1       7.239   6.014  19.081  0.00  0.00    +0.000 A 
ATOM     16  C   UNL     1       6.086   5.265  19.340  0.00  0.00    +0.000 A 
ATOM     17  C   UNL     1       5.437   4.545  18.319  0.00  0.00    +0.000 A 
ENDBRANCH  10  17
BRANCH  10  18
ATOM     18  C   UNL     1       4.616   2.617  19.740  0.00  0.00    +0.000 C 
ATOM     19  N   UNL     1       4.910   1.815  20.668  0.00  0.00    +0.000 NA
ENDBRANCH  10  18
ENDBRANCH   2  10
ENDBRANCH   1   6
BRANCH   1  20
ATOM     20  C   UNL     1       0.493  10.234  19.843  0.00  0.00    +0.000 C 
BRANCH  20  21
ATOM     21  C   UNL     1      -0.720  10.492  18.930  0.00  0.00    +0.000 A 
ATOM     22  C   UNL     1      -1.747  11.392  19.267  0.00  0.00    +0.000 A 
ATOM     23  C   UNL     1      -2.884  11.546  18.471  0.00  0.00    +0.000 A 
ATOM     24  C   UNL     1      -3.017  10.806  17.303  0.00  0.00    +0.000 A 
ATOM     25  C   UNL     1      -2.003   9.934  16.921  0.00  0.00    +0.000 A 
ATOM     26  C   UNL     1      -0.861   9.781  17.720  0.00  0.00    +0.000 A 
ENDBRANCH  20  21
BRANCH  20  27
ATOM     27  N   UNL     1       1.184  11.491  20.164  0.00  0.00    +0.000 N 
ATOM     28  C   UNL     1       1.950  12.190  19.255  0.00  0.00    +0.000 C 
ATOM     29  O   UNL     1       2.136  11.821  18.103  0.00  0.00    +0.000 OA
ATOM     30  H   UNL     1       1.327  11.730  21.140  0.00  0.00    +0.000 HD
BRANCH  28  31
ATOM     31  C   UNL     1       2.606  13.431  19.791  0.00  0.00    +0.000 A 
ATOM     32  N   UNL     1       2.636  13.525  21.152  0.00  0.00    +0.000 NA
ATOM     33  C   UNL     1       3.360  14.548  21.662  0.00  0.00    +0.000 A 
ATOM     34  C   UNL     1       4.009  15.504  20.895  0.00  0.00    +0.000 A 
ATOM     35  C   UNL     1       3.918  15.419  19.509  0.00  0.00    +0.000 A 
ATOM     36  C   UNL     1       3.213  14.360  18.938  0.00  0.00    +0.000 A 
BRANCH  36  37
ATOM     37  O   UNL     1       3.104  14.283  17.583  0.00  0.00    +0.000 OA
ATOM     38  H   UNL     1       2.806  15.135  17.229  0.00  0.00    +0.000 HD
ENDBRANCH  36  37
ENDBRANCH  28  31
ENDBRANCH  20  27
ENDBRANCH   1  20
TORSDOF 9
ENDMDL
MODEL 7
REMARK VINA RESULT:      -8.1      2.473      9.331
REMARK  Name = 
REMARK  10 active torsions:
REMARK  status: ('A' for Active; 'I' for Inactive)
REMARK    1  A    between atoms: C_1  and  C_2
REMARK    2  A    between atoms: C_7  and  C_8
REMARK    3  A    between atoms: C_8  and  C_9
REMARK    4  A    between atoms: C_8  and  N_11
REMARK    5  A    between atoms: C_15  and  C_17
REMARK    6  A    between atoms: C_17  and  C_18
REMARK    7  A    between atoms: C_18  and  N_19
REMARK    8  A    between atoms: C_18  and  C_29
REMARK    9  A    between atoms: C_20  and  C_22
REMARK   10  A    between atoms: C_27  and  O_28
REMARK                            x       y       z     vdW  Elec       q    Type
REMARK                         _______ _______ _______ _____ _____    ______ ____
ROOT
ATOM      1  C   UNL     1       1.525   9.301  18.534  0.00  0.00    +0.000 C 
ENDROOT
BRANCH   1   6
ATOM      2  N   UNL     1       2.928   4.302  18.783  0.00  0.00    +0.000 NA
ATOM      3  C   UNL     1       2.217   4.510  20.020  0.00  0.00    +0.000 C 
ATOM      4  C   UNL     1       2.129   6.000  20.379  0.00  0.00    +0.000 C 
ATOM      5  N   UNL     1       1.830   6.928  19.280  0.00  0.00    +0.000 N 
ATOM      6  C   UNL     1       1.774   8.287  19.637  0.00  0.00    +0.000 C 
ATOM      7  O   UNL     1       1.837   8.650  20.813  0.00  0.00    +0.000 OA
ATOM      8  C   UNL     1       1.982   6.473  17.886  0.00  0.00    +0.000 C 
ATOM      9  C   UNL     1       2.323   4.978  17.650  0.00  0.00    +0.000 C 
BRANCH   2  10
ATOM     10  C   UNL     1       4.225   3.634  18.699  0.00  0.00    +0.000 C 
BRANCH  10  17
ATOM     11  C   UNL     1       5.391   3.964  15.885  0.00  0.00    +0.000 C 
ATOM     12  C   UNL     1       6.005   4.610  17.086  0.00  0.00    +0.000 A 
ATOM     13  N   UNL     1       7.155   5.292  16.804  0.00  0.00    +0.000 NA
ATOM     14  C   UNL     1       7.757   5.963  17.799  0.00  0.00    +0.000 A 
ATOM     15  C   UNL     1       7.264   5.998  19.084  0.00  0.00    +0.000 A 
ATOM     16  C   UNL     1       6.087   5.295  19.362  0.00  0.00    +0.000 A 
ATOM     17  C   UNL     1       5.432   4.545  18.367  0.00  0.00    +0.000 A 
ENDBRANCH  10  17
BRANCH  10  18
ATOM     18  C   UNL     1       4.529   2.727  19.881  0.00  0.00    +0.000 C 
ATOM     19  N   UNL     1       4.782   1.974  20.861  0.00  0.00    +0.000 NA
ENDBRANCH  10  18
ENDBRANCH   2  10
ENDBRANCH   1   6
BRANCH   1  20
ATOM     20  C   UNL     1       0.658  10.506  18.970  0.00  0.00    +0.000 C 
BRANCH  20  21
ATOM     21  C   UNL     1      -0.784  10.443  18.430  0.00  0.00    +0.000 A 
ATOM     22  C   UNL     1      -1.147   9.650  17.327  0.00  0.00    +0.000 A 
ATOM     23  C   UNL     1      -2.438   9.675  16.794  0.00  0.00    +0.000 A 
ATOM     24  C   UNL     1      -3.407  10.491  17.364  0.00  0.00    +0.000 A 
ATOM     25  C   UNL     1      -3.091  11.261  18.478  0.00  0.00    +0.000 A 
ATOM     26  C   UNL     1      -1.794  11.235  19.013  0.00  0.00    +0.000 A 
ENDBRANCH  20  21
BRANCH  20  27
ATOM     27  N   UNL     1       1.288  11.789  18.630  0.00  0.00    +0.000 N 
ATOM     28  C   UNL     1       1.457  12.816  19.535  0.00  0.00    +0.000 C 
ATOM     29  O   UNL     1       1.085  12.758  20.699  0.00  0.00    +0.000 OA
ATOM     30  H   UNL     1       1.372  12.044  17.650  0.00  0.00    +0.000 HD
BRANCH  28  31
ATOM     31  C   UNL     1       2.088  14.061  18.979  0.00  0.00    +0.000 A 
ATOM     32  N   UNL     1       1.526  15.230  19.403  0.00  0.00    +0.000 NA
ATOM     33  C   UNL     1       2.173  16.365  19.047  0.00  0.00    +0.000 A 
ATOM     34  C   UNL     1       3.312  16.399  18.257  0.00  0.00    +0.000 A 
ATOM     35  C   UNL     1       3.835  15.197  17.790  0.00  0.00    +0.000 A 
ATOM     36  C   UNL     1       3.222  14.001  18.162  0.00  0.00    +0.000 A 
BRANCH  36  37
ATOM     37  O   UNL     1       3.718  12.822  17.692  0.00  0.00    +0.000 OA
ATOM     38  H   UNL     1       3.046  12.128  17.773  0.00  0.00    +0.000 HD
ENDBRANCH  36  37
ENDBRANCH  28  31
ENDBRANCH  20  27
ENDBRANCH   1  20
TORSDOF 9
ENDMDL
MODEL 8
REMARK VINA RESULT:      -8.1      2.647      9.396
REMARK  Name = 
REMARK  10 active torsions:
REMARK  status: ('A' for Active; 'I' for Inactive)
REMARK    1  A    between atoms: C_1  and  C_2
REMARK    2  A    between atoms: C_7  and  C_8
REMARK    3  A    between atoms: C_8  and  C_9
REMARK    4  A    between atoms: C_8  and  N_11
REMARK    5  A    between atoms: C_15  and  C_17
REMARK    6  A    between atoms: C_17  and  C_18
REMARK    7  A    between atoms: C_18  and  N_19
REMARK    8  A    between atoms: C_18  and  C_29
REMARK    9  A    between atoms: C_20  and  C_22
REMARK   10  A    between atoms: C_27  and  O_28
REMARK                            x       y       z     vdW  Elec       q    Type
REMARK                         _______ _______ _______ _____ _____    ______ ____
ROOT
ATOM      1  C   UNL     1       1.622   9.301  18.728  0.00  0.00    +0.000 C 
ENDROOT
BRANCH   1   6
ATOM      2  N   UNL     1       2.965   4.280  18.758  0.00  0.00    +0.000 NA
ATOM      3  C   UNL     1       2.185   4.423  19.962  0.00  0.00    +0.000 C 
ATOM      4  C   UNL     1       2.088   5.890  20.404  0.00  0.00    +0.000 C 
ATOM      5  N   UNL     1       1.862   6.885  19.347  0.00  0.00    +0.000 N 
ATOM      6  C   UNL     1       1.798   8.221  19.780  0.00  0.00    +0.000 C 
ATOM      7  O   UNL     1       1.794   8.513  20.978  0.00  0.00    +0.000 OA
ATOM      8  C   UNL     1       2.092   6.511  17.939  0.00  0.00    +0.000 C 
ATOM      9  C   UNL     1       2.434   5.029  17.635  0.00  0.00    +0.000 C 
BRANCH   2  10
ATOM     10  C   UNL     1       4.259   3.602  18.711  0.00  0.00    +0.000 C 
BRANCH  10  17
ATOM     11  C   UNL     1       5.505   3.901  15.927  0.00  0.00    +0.000 C 
ATOM     12  C   UNL     1       6.089   4.554  17.138  0.00  0.00    +0.000 A 
ATOM     13  N   UNL     1       7.251   5.226  16.883  0.00  0.00    +0.000 NA
ATOM     14  C   UNL     1       7.829   5.902  17.888  0.00  0.00    +0.000 A 
ATOM     15  C   UNL     1       7.302   5.951  19.160  0.00  0.00    +0.000 A 
ATOM     16  C   UNL     1       6.113   5.257  19.411  0.00  0.00    +0.000 A 
ATOM     17  C   UNL     1       5.480   4.503  18.404  0.00  0.00    +0.000 A 
ENDBRANCH  10  17
BRANCH  10  18
ATOM     18  C   UNL     1       4.527   2.699  19.904  0.00  0.00    +0.000 C 
ATOM     19  N   UNL     1       4.749   1.950  20.893  0.00  0.00    +0.000 NA
ENDBRANCH  10  18
ENDBRANCH   2  10
ENDBRANCH   1   6
BRANCH   1  20
ATOM     20  C   UNL     1       0.843  10.543  19.223  0.00  0.00    +0.000 C 
BRANCH  20  21
ATOM     21  C   UNL     1      -0.589  10.623  18.663  0.00  0.00    +0.000 A 
ATOM     22  C   UNL     1      -1.570  11.474  19.204  0.00  0.00    +0.000 A 
ATOM     23  C   UNL     1      -2.888  11.467  18.743  0.00  0.00    +0.000 A 
ATOM     24  C   UNL     1      -3.258  10.611  17.713  0.00  0.00    +0.000 A 
ATOM     25  C   UNL     1      -2.304   9.782  17.131  0.00  0.00    +0.000 A 
ATOM     26  C   UNL     1      -0.980   9.791  17.594  0.00  0.00    +0.000 A 
ENDBRANCH  20  21
BRANCH  20  27
ATOM     27  N   UNL     1       1.576  11.791  18.966  0.00  0.00    +0.000 N 
ATOM     28  C   UNL     1       1.863  12.719  19.944  0.00  0.00    +0.000 C 
ATOM     29  O   UNL     1       1.522  12.595  21.113  0.00  0.00    +0.000 OA
ATOM     30  H   UNL     1       1.654  12.119  18.008  0.00  0.00    +0.000 HD
BRANCH  28  31
ATOM     31  C   UNL     1       2.586  13.948  19.469  0.00  0.00    +0.000 A 
ATOM     32  N   UNL     1       3.499  13.732  18.478  0.00  0.00    +0.000 NA
ATOM     33  C   UNL     1       4.046  14.839  17.922  0.00  0.00    +0.000 A 
ATOM     34  C   UNL     1       3.771  16.135  18.331  0.00  0.00    +0.000 A 
ATOM     35  C   UNL     1       2.879  16.327  19.381  0.00  0.00    +0.000 A 
ATOM     36  C   UNL     1       2.263  15.218  19.961  0.00  0.00    +0.000 A 
BRANCH  36  37
ATOM     37  O   UNL     1       1.404  15.399  21.002  0.00  0.00    +0.000 OA
ATOM     38  H   UNL     1       1.434  16.323  21.295  0.00  0.00    +0.000 HD
ENDBRANCH  36  37
ENDBRANCH  28  31
ENDBRANCH  20  27
ENDBRANCH   1  20
TORSDOF 9
ENDMDL
MODEL 9
REMARK VINA RESULT:      -8.1      1.503      2.596
REMARK  Name = 
REMARK  10 active torsions:
REMARK  status: ('A' for Active; 'I' for Inactive)
REMARK    1  A    between atoms: C_1  and  C_2
REMARK    2  A    between atoms: C_7  and  C_8
REMARK    3  A    between atoms: C_8  and  C_9
REMARK    4  A    between atoms: C_8  and  N_11
REMARK    5  A    between atoms: C_15  and  C_17
REMARK    6  A    between atoms: C_17  and  C_18
REMARK    7  A    between atoms: C_18  and  N_19
REMARK    8  A    between atoms: C_18  and  C_29
REMARK    9  A    between atoms: C_20  and  C_22
REMARK   10  A    between atoms: C_27  and  O_28
REMARK                            x       y       z     vdW  Elec       q    Type
REMARK                         _______ _______ _______ _____ _____    ______ ____
ROOT
ATOM      1  C   UNL     1       2.256   7.449  19.586  0.00  0.00    +0.000 C 
ENDROOT
BRANCH   1   6
ATOM      2  N   UNL     1      -0.702  11.684  20.161  0.00  0.00    +0.000 NA
ATOM      3  C   UNL     1      -0.824  11.381  18.756  0.00  0.00    +0.000 C 
ATOM      4  C   UNL     1       0.318  10.479  18.270  0.00  0.00    +0.000 C 
ATOM      5  N   UNL     1       0.708   9.372  19.154  0.00  0.00    +0.000 N 
ATOM      6  C   UNL     1       1.769   8.575  18.691  0.00  0.00    +0.000 C 
ATOM      7  O   UNL     1       2.240   8.718  17.560  0.00  0.00    +0.000 OA
ATOM      8  C   UNL     1       0.271   9.382  20.563  0.00  0.00    +0.000 C 
ATOM      9  C   UNL     1      -0.701  10.506  21.007  0.00  0.00    +0.000 C 
BRANCH   2  10
ATOM     10  C   UNL     1      -0.423  13.023  20.677  0.00  0.00    +0.000 C 
BRANCH  10  17
ATOM     11  C   UNL     1      -3.479  13.211  20.532  0.00  0.00    +0.000 C 
ATOM     12  C   UNL     1      -2.706  13.655  21.733  0.00  0.00    +0.000 A 
ATOM     13  N   UNL     1      -3.490  14.204  22.708  0.00  0.00    +0.000 NA
ATOM     14  C   UNL     1      -2.908  14.580  23.857  0.00  0.00    +0.000 A 
ATOM     15  C   UNL     1      -1.560  14.433  24.097  0.00  0.00    +0.000 A 
ATOM     16  C   UNL     1      -0.765  13.872  23.091  0.00  0.00    +0.000 A 
ATOM     17  C   UNL     1      -1.315  13.491  21.852  0.00  0.00    +0.000 A 
ENDBRANCH  10  17
BRANCH  10  18
ATOM     18  C   UNL     1       1.047  13.279  20.966  0.00  0.00    +0.000 C 
ATOM     19  N   UNL     1       2.266  13.491  21.206  0.00  0.00    +0.000 NA
ENDBRANCH  10  18
ENDBRANCH   2  10
ENDBRANCH   1   6
BRANCH   1  20
ATOM     20  C   UNL     1       2.276   6.062  18.900  0.00  0.00    +0.000 C 
BRANCH  20  21
ATOM     21  C   UNL     1       1.953   4.904  19.864  0.00  0.00    +0.000 A 
ATOM     22  C   UNL     1       2.687   4.667  21.040  0.00  0.00    +0.000 A 
ATOM     23  C   UNL     1       2.439   3.561  21.854  0.00  0.00    +0.000 A 
ATOM     24  C   UNL     1       1.434   2.663  21.515  0.00  0.00    +0.000 A 
ATOM     25  C   UNL     1       0.665   2.887  20.378  0.00  0.00    +0.000 A 
ATOM     26  C   UNL     1       0.914   4.000  19.562  0.00  0.00    +0.000 A 
ENDBRANCH  20  21
BRANCH  20  27
ATOM     27  N   UNL     1       3.541   5.817  18.194  0.00  0.00    +0.000 N 
ATOM     28  C   UNL     1       3.715   4.801  17.277  0.00  0.00    +0.000 C 
ATOM     29  O   UNL     1       2.836   4.002  16.980  0.00  0.00    +0.000 OA
ATOM     30  H   UNL     1       4.392   6.228  18.565  0.00  0.00    +0.000 HD
BRANCH  28  31
ATOM     31  C   UNL     1       5.096   4.693  16.695  0.00  0.00    +0.000 A 
ATOM     32  N   UNL     1       5.176   4.930  15.354  0.00  0.00    +0.000 NA
ATOM     33  C   UNL     1       6.424   4.998  14.835  0.00  0.00    +0.000 A 
ATOM     34  C   UNL     1       7.585   4.795  15.565  0.00  0.00    +0.000 A 
ATOM     35  C   UNL     1       7.476   4.500  16.921  0.00  0.00    +0.000 A 
ATOM     36  C   UNL     1       6.211   4.455  17.506  0.00  0.00    +0.000 A 
BRANCH  36  37
ATOM     37  O   UNL     1       6.097   4.147  18.828  0.00  0.00    +0.000 OA
ATOM     38  H   UNL     1       6.851   3.603  19.104  0.00  0.00    +0.000 HD
ENDBRANCH  36  37
ENDBRANCH  28  31
ENDBRANCH  20  27
ENDBRANCH   1  20
TORSDOF 9
ENDMDL
