MODEL 1
REMARK VINA RESULT:      -8.5      0.000      0.000
REMARK  Name = 
REMARK  8 active torsions:
REMARK  status: ('A' for Active; 'I' for Inactive)
REMARK    1  A    between atoms: C_1  and  C_2
REMARK    2  A    between atoms: C_2  and  N_3
REMARK    3  A    between atoms: C_4  and  C_6
REMARK    4  A    between atoms: C_6  and  C_7
REMARK    5  A    between atoms: C_6  and  C_8
REMARK    6  A    between atoms: C_11  and  C_12
REMARK    7  A    between atoms: C_17  and  C_18
REMARK    8  A    between atoms: C_20  and  O_21
REMARK                            x       y       z     vdW  Elec       q    Type
REMARK                         _______ _______ _______ _____ _____    ______ ____
ROOT
ATOM      1  C   UNL     1       5.374   4.942  17.527  0.00  0.00    +0.000 C 
ATOM      2  C   UNL     1       4.601   6.045  16.748  0.00  0.00    +0.000 C 
ATOM      3  C   UNL     1       3.729   6.947  17.667  0.00  0.00    +0.000 C 
ATOM      4  C   UNL     1       2.887   6.124  18.682  0.00  0.00    +0.000 C 
ATOM      5  C   UNL     1       2.238   7.013  19.763  0.00  0.00    +0.000 C 
ATOM      6  C   UNL     1       1.754   5.517  17.872  0.00  0.00    +0.000 C 
ATOM      7  C   UNL     1       1.592   4.207  17.679  0.00  0.00    +0.000 C 
ATOM      8  C   UNL     1       2.478   3.258  18.369  0.00  0.00    +0.000 C 
ATOM      9  O   UNL     1       2.526   2.085  18.020  0.00  0.00    +0.000 OA
ATOM     10  C   UNL     1       3.305   3.782  19.502  0.00  0.00    +0.000 C 
ATOM     11  C   UNL     1       2.815   3.191  20.793  0.00  0.00    +0.000 C 
ATOM     12  C   UNL     1       3.762   5.060  19.395  0.00  0.00    +0.000 C 
ATOM     13  C   UNL     1       5.271   5.247  19.045  0.00  0.00    +0.000 C 
ENDROOT
BRANCH   1  14
ATOM     14  C   UNL     1       6.620   4.340  16.812  0.00  0.00    +0.000 C 
ATOM     15  C   UNL     1       7.933   4.475  17.586  0.00  0.00    +0.000 C 
BRANCH  14  17
ATOM     16  N   UNL     1       6.345   3.739  14.491  0.00  0.00    +0.000 N 
ATOM     17  C   UNL     1       6.884   4.679  15.350  0.00  0.00    +0.000 C 
ATOM     18  O   UNL     1       7.519   5.658  14.999  0.00  0.00    +0.000 OA
ATOM     19  H   UNL     1       5.879   2.932  14.886  0.00  0.00    +0.000 HD
BRANCH  16  21
ATOM     20  C   UNL     1       5.080   3.373  12.407  0.00  0.00    +0.000 C 
ATOM     21  C   UNL     1       6.388   3.806  13.044  0.00  0.00    +0.000 C 
ENDBRANCH  16  21
ENDBRANCH  14  17
ENDBRANCH   1  14
BRANCH  13  22
ATOM     22  O   UNL     1       6.072   4.422  19.867  0.00  0.00    +0.000 OA
ATOM     23  H   UNL     1       6.869   4.942  20.078  0.00  0.00    +0.000 HD
ENDBRANCH  13  22
TORSDOF 4
ENDMDL
MODEL 2
REMARK VINA RESULT:      -8.5      1.667      2.993
REMARK  Name = 
REMARK  8 active torsions:
REMARK  status: ('A' for Active; 'I' for Inactive)
REMARK    1  A    between atoms: C_1  and  C_2
REMARK    2  A    between atoms: C_2  and  N_3
REMARK    3  A    between atoms: C_4  and  C_6
REMARK    4  A    between atoms: C_6  and  C_7
REMARK    5  A    between atoms: C_6  and  C_8
REMARK    6  A    between atoms: C_11  and  C_12
REMARK    7  A    between atoms: C_17  and  C_18
REMARK    8  A    between atoms: C_20  and  O_21
REMARK                            x       y       z     vdW  Elec       q    Type
REMARK                         _______ _______ _______ _____ _____    ______ ____
ROOT
ATOM      1  C   UNL     1       3.540   5.631  18.806  0.00  0.00    +0.000 C 
ATOM      2  C   UNL     1       2.254   6.047  19.577  0.00  0.00    +0.000 C 
ATOM      3  C   UNL     1       1.999   5.191  20.849  0.00  0.00    +0.000 C 
ATOM      4  C   UNL     1       2.161   3.668  20.583  0.00  0.00    +0.000 C 
ATOM      5  C   UNL     1       2.178   2.843  21.888  0.00  0.00    +0.000 C 
ATOM      6  C   UNL     1       0.917   3.254  19.817  0.00  0.00    +0.000 C 
ATOM      7  C   UNL     1       0.928   2.806  18.560  0.00  0.00    +0.000 C 
ATOM      8  C   UNL     1       2.214   2.578  17.883  0.00  0.00    +0.000 C 
ATOM      9  O   UNL     1       2.259   2.420  16.670  0.00  0.00    +0.000 OA
ATOM     10  C   UNL     1       3.446   2.547  18.733  0.00  0.00    +0.000 C 
ATOM     11  C   UNL     1       4.002   1.152  18.755  0.00  0.00    +0.000 C 
ATOM     12  C   UNL     1       3.475   3.376  19.813  0.00  0.00    +0.000 C 
ATOM     13  C   UNL     1       4.357   4.659  19.699  0.00  0.00    +0.000 C 
ENDROOT
BRANCH   1  14
ATOM     14  C   UNL     1       4.148   6.702  17.853  0.00  0.00    +0.000 C 
ATOM     15  C   UNL     1       3.265   7.928  17.613  0.00  0.00    +0.000 C 
BRANCH  14  17
ATOM     16  N   UNL     1       4.896   4.897  16.436  0.00  0.00    +0.000 N 
ATOM     17  C   UNL     1       4.745   6.269  16.519  0.00  0.00    +0.000 C 
ATOM     18  O   UNL     1       5.067   7.057  15.648  0.00  0.00    +0.000 OA
ATOM     19  H   UNL     1       4.646   4.332  17.238  0.00  0.00    +0.000 HD
BRANCH  16  21
ATOM     20  C   UNL     1       6.882   4.380  15.070  0.00  0.00    +0.000 C 
ATOM     21  C   UNL     1       5.392   4.178  15.280  0.00  0.00    +0.000 C 
ENDBRANCH  16  21
ENDBRANCH  14  17
ENDBRANCH   1  14
BRANCH  13  22
ATOM     22  O   UNL     1       5.637   4.332  19.196  0.00  0.00    +0.000 OA
ATOM     23  H   UNL     1       5.610   3.382  18.985  0.00  0.00    +0.000 HD
ENDBRANCH  13  22
TORSDOF 4
ENDMDL
MODEL 3
REMARK VINA RESULT:      -8.3      1.191      1.745
REMARK  Name = 
REMARK  8 active torsions:
REMARK  status: ('A' for Active; 'I' for Inactive)
REMARK    1  A    between atoms: C_1  and  C_2
REMARK    2  A    between atoms: C_2  and  N_3
REMARK    3  A    between atoms: C_4  and  C_6
REMARK    4  A    between atoms: C_6  and  C_7
REMARK    5  A    between atoms: C_6  and  C_8
REMARK    6  A    between atoms: C_11  and  C_12
REMARK    7  A    between atoms: C_17  and  C_18
REMARK    8  A    between atoms: C_20  and  O_21
REMARK                            x       y       z     vdW  Elec       q    Type
REMARK                         _______ _______ _______ _____ _____    ______ ____
ROOT
ATOM      1  C   UNL     1       4.601   5.622  17.746  0.00  0.00    +0.000 C 
ATOM      2  C   UNL     1       3.201   6.302  17.744  0.00  0.00    +0.000 C 
ATOM      3  C   UNL     1       2.491   6.245  19.126  0.00  0.00    +0.000 C 
ATOM      4  C   UNL     1       2.552   4.830  19.767  0.00  0.00    +0.000 C 
ATOM      5  C   UNL     1       2.094   4.834  21.241  0.00  0.00    +0.000 C 
ATOM      6  C   UNL     1       1.547   3.991  18.997  0.00  0.00    +0.000 C 
ATOM      7  C   UNL     1       1.874   2.942  18.241  0.00  0.00    +0.000 C 
ATOM      8  C   UNL     1       3.267   2.471  18.217  0.00  0.00    +0.000 C 
ATOM      9  O   UNL     1       3.646   1.692  17.352  0.00  0.00    +0.000 OA
ATOM     10  C   UNL     1       4.186   2.979  19.285  0.00  0.00    +0.000 C 
ATOM     11  C   UNL     1       4.551   1.852  20.208  0.00  0.00    +0.000 C 
ATOM     12  C   UNL     1       3.992   4.257  19.712  0.00  0.00    +0.000 C 
ATOM     13  C   UNL     1       5.007   5.334  19.216  0.00  0.00    +0.000 C 
ENDROOT
BRANCH   1  14
ATOM     14  C   UNL     1       5.578   6.054  16.612  0.00  0.00    +0.000 C 
ATOM     15  C   UNL     1       4.970   6.980  15.556  0.00  0.00    +0.000 C 
BRANCH  14  17
ATOM     16  N   UNL     1       5.884   4.641  14.678  0.00  0.00    +0.000 N 
ATOM     17  C   UNL     1       6.418   4.999  15.903  0.00  0.00    +0.000 C 
ATOM     18  O   UNL     1       7.430   4.521  16.386  0.00  0.00    +0.000 OA
ATOM     19  H   UNL     1       5.009   5.061  14.390  0.00  0.00    +0.000 HD
BRANCH  16  21
ATOM     20  C   UNL     1       5.628   3.506  12.506  0.00  0.00    +0.000 C 
ATOM     21  C   UNL     1       6.475   3.699  13.750  0.00  0.00    +0.000 C 
ENDBRANCH  16  21
ENDBRANCH  14  17
ENDBRANCH   1  14
BRANCH  13  22
ATOM     22  O   UNL     1       6.332   4.873  19.381  0.00  0.00    +0.000 OA
ATOM     23  H   UNL     1       6.898   5.492  18.887  0.00  0.00    +0.000 HD
ENDBRANCH  13  22
TORSDOF 4
ENDMDL
MODEL 4
REMARK VINA RESULT:      -8.2      1.352      1.512
REMARK  Name = 
REMARK  8 active torsions:
REMARK  status: ('A' for Active; 'I' for Inactive)
REMARK    1  A    between atoms: C_1  and  C_2
REMARK    2  A    between atoms: C_2  and  N_3
REMARK    3  A    between atoms: C_4  and  C_6
REMARK    4  A    between atoms: C_6  and  C_7
REMARK    5  A    between atoms: C_6  and  C_8
REMARK    6  A    between atoms: C_11  and  C_12
REMARK    7  A    between atoms: C_17  and  C_18
REMARK    8  A    between atoms: C_20  and  O_21
REMARK                            x       y       z     vdW  Elec       q    Type
REMARK                         _______ _______ _______ _____ _____    ______ ____
ROOT
ATOM      1  C   UNL     1       5.331   5.358  17.721  0.00  0.00    +0.000 C 
ATOM      2  C   UNL     1       4.193   6.253  17.150  0.00  0.00    +0.000 C 
ATOM      3  C   UNL     1       3.140   6.660  18.219  0.00  0.00    +0.000 C 
ATOM      4  C   UNL     1       2.678   5.458  19.088  0.00  0.00    +0.000 C 
ATOM      5  C   UNL     1       1.850   5.902  20.312  0.00  0.00    +0.000 C 
ATOM      6  C   UNL     1       1.750   4.647  18.201  0.00  0.00    +0.000 C 
ATOM      7  C   UNL     1       2.008   3.404  17.789  0.00  0.00    +0.000 C 
ATOM      8  C   UNL     1       3.197   2.704  18.297  0.00  0.00    +0.000 C 
ATOM      9  O   UNL     1       3.599   1.683  17.754  0.00  0.00    +0.000 OA
ATOM     10  C   UNL     1       3.884   3.287  19.493  0.00  0.00    +0.000 C 
ATOM     11  C   UNL     1       3.698   2.373  20.671  0.00  0.00    +0.000 C 
ATOM     12  C   UNL     1       3.895   4.644  19.600  0.00  0.00    +0.000 C 
ATOM     13  C   UNL     1       5.237   5.371  19.271  0.00  0.00    +0.000 C 
ENDROOT
BRANCH   1  14
ATOM     14  C   UNL     1       6.654   5.321  16.901  0.00  0.00    +0.000 C 
ATOM     15  C   UNL     1       7.376   6.665  16.781  0.00  0.00    +0.000 C 
BRANCH  14  17
ATOM     16  N   UNL     1       7.416   5.348  14.610  0.00  0.00    +0.000 N 
ATOM     17  C   UNL     1       6.675   4.639  15.538  0.00  0.00    +0.000 C 
ATOM     18  O   UNL     1       6.081   3.601  15.306  0.00  0.00    +0.000 OA
ATOM     19  H   UNL     1       7.828   6.229  14.890  0.00  0.00    +0.000 HD
BRANCH  16  21
ATOM     20  C   UNL     1       8.437   5.976  12.456  0.00  0.00    +0.000 C 
ATOM     21  C   UNL     1       7.660   4.935  13.243  0.00  0.00    +0.000 C 
ENDBRANCH  16  21
ENDBRANCH  14  17
ENDBRANCH   1  14
BRANCH  13  22
ATOM     22  O   UNL     1       6.314   4.738  19.931  0.00  0.00    +0.000 OA
ATOM     23  H   UNL     1       6.935   4.462  19.233  0.00  0.00    +0.000 HD
ENDBRANCH  13  22
TORSDOF 4
ENDMDL
MODEL 5
REMARK VINA RESULT:      -8.1      1.137      1.137
REMARK  Name = 
REMARK  8 active torsions:
REMARK  status: ('A' for Active; 'I' for Inactive)
REMARK    1  A    between atoms: C_1  and  C_2
REMARK    2  A    between atoms: C_2  and  N_3
REMARK    3  A    between atoms: C_4  and  C_6
REMARK    4  A    between atoms: C_6  and  C_7
REMARK    5  A    between atoms: C_6  and  C_8
REMARK    6  A    between atoms: C_11  and  C_12
REMARK    7  A    between atoms: C_17  and  C_18
REMARK    8  A    between atoms: C_20  and  O_21
REMARK                            x       y       z     vdW  Elec       q    Type
REMARK                         _______ _______ _______ _____ _____    ______ ____
ROOT
ATOM      1  C   UNL     1       5.520   5.709  17.790  0.00  0.00    +0.000 C 
ATOM      2  C   UNL     1       4.377   6.605  17.231  0.00  0.00    +0.000 C 
ATOM      3  C   UNL     1       3.241   6.863  18.261  0.00  0.00    +0.000 C 
ATOM      4  C   UNL     1       2.786   5.565  18.983  0.00  0.00    +0.000 C 
ATOM      5  C   UNL     1       1.864   5.854  20.185  0.00  0.00    +0.000 C 
ATOM      6  C   UNL     1       1.956   4.803  17.965  0.00  0.00    +0.000 C 
ATOM      7  C   UNL     1       2.298   3.617  17.458  0.00  0.00    +0.000 C 
ATOM      8  C   UNL     1       3.487   2.923  17.977  0.00  0.00    +0.000 C 
ATOM      9  O   UNL     1       3.970   1.977  17.369  0.00  0.00    +0.000 OA
ATOM     10  C   UNL     1       4.069   3.418  19.264  0.00  0.00    +0.000 C 
ATOM     11  C   UNL     1       3.856   2.389  20.337  0.00  0.00    +0.000 C 
ATOM     12  C   UNL     1       4.007   4.758  19.497  0.00  0.00    +0.000 C 
ATOM     13  C   UNL     1       5.330   5.570  19.325  0.00  0.00    +0.000 C 
ENDROOT
BRANCH   1  14
ATOM     14  C   UNL     1       6.892   5.807  17.060  0.00  0.00    +0.000 C 
ATOM     15  C   UNL     1       7.538   7.194  17.084  0.00  0.00    +0.000 C 
BRANCH  14  17
ATOM     16  N   UNL     1       6.232   4.125  15.459  0.00  0.00    +0.000 N 
ATOM     17  C   UNL     1       7.038   5.232  15.656  0.00  0.00    +0.000 C 
ATOM     18  O   UNL     1       7.799   5.694  14.825  0.00  0.00    +0.000 OA
ATOM     19  H   UNL     1       5.673   3.788  16.233  0.00  0.00    +0.000 HD
BRANCH  16  21
ATOM     20  C   UNL     1       5.227   4.092  13.209  0.00  0.00    +0.000 C 
ATOM     21  C   UNL     1       6.114   3.386  14.219  0.00  0.00    +0.000 C 
ENDBRANCH  16  21
ENDBRANCH  14  17
ENDBRANCH   1  14
BRANCH  13  22
ATOM     22  O   UNL     1       6.393   4.924  19.994  0.00  0.00    +0.000 OA
ATOM     23  H   UNL     1       5.997   4.172  20.469  0.00  0.00    +0.000 HD
ENDBRANCH  13  22
TORSDOF 4
ENDMDL
MODEL 6
REMARK VINA RESULT:      -8.1      2.247      3.369
REMARK  Name = 
REMARK  8 active torsions:
REMARK  status: ('A' for Active; 'I' for Inactive)
REMARK    1  A    between atoms: C_1  and  C_2
REMARK    2  A    between atoms: C_2  and  N_3
REMARK    3  A    between atoms: C_4  and  C_6
REMARK    4  A    between atoms: C_6  and  C_7
REMARK    5  A    between atoms: C_6  and  C_8
REMARK    6  A    between atoms: C_11  and  C_12
REMARK    7  A    between atoms: C_17  and  C_18
REMARK    8  A    between atoms: C_20  and  O_21
REMARK                            x       y       z     vdW  Elec       q    Type
REMARK                         _______ _______ _______ _____ _____    ______ ____
ROOT
ATOM      1  C   UNL     1       4.486   5.669  17.906  0.00  0.00    +0.000 C 
ATOM      2  C   UNL     1       3.348   6.571  18.465  0.00  0.00    +0.000 C 
ATOM      3  C   UNL     1       2.848   6.127  19.869  0.00  0.00    +0.000 C 
ATOM      4  C   UNL     1       2.596   4.595  19.953  0.00  0.00    +0.000 C 
ATOM      5  C   UNL     1       2.366   4.117  21.402  0.00  0.00    +0.000 C 
ATOM      6  C   UNL     1       1.300   4.355  19.199  0.00  0.00    +0.000 C 
ATOM      7  C   UNL     1       1.210   3.643  18.074  0.00  0.00    +0.000 C 
ATOM      8  C   UNL     1       2.397   2.940  17.566  0.00  0.00    +0.000 C 
ATOM      9  O   UNL     1       2.419   2.501  16.423  0.00  0.00    +0.000 OA
ATOM     10  C   UNL     1       3.560   2.785  18.496  0.00  0.00    +0.000 C 
ATOM     11  C   UNL     1       3.717   1.337  18.863  0.00  0.00    +0.000 C 
ATOM     12  C   UNL     1       3.795   3.803  19.369  0.00  0.00    +0.000 C 
ATOM     13  C   UNL     1       4.994   4.750  19.050  0.00  0.00    +0.000 C 
ENDROOT
BRANCH   1  14
ATOM     14  C   UNL     1       5.379   6.297  16.794  0.00  0.00    +0.000 C 
ATOM     15  C   UNL     1       5.282   5.614  15.429  0.00  0.00    +0.000 C 
BRANCH  14  17
ATOM     16  N   UNL     1       7.047   7.895  17.494  0.00  0.00    +0.000 N 
ATOM     17  C   UNL     1       6.845   6.590  17.085  0.00  0.00    +0.000 C 
ATOM     18  O   UNL     1       7.728   5.761  16.945  0.00  0.00    +0.000 OA
ATOM     19  H   UNL     1       6.251   8.521  17.527  0.00  0.00    +0.000 HD
BRANCH  16  21
ATOM     20  C   UNL     1       8.256   9.972  18.043  0.00  0.00    +0.000 C 
ATOM     21  C   UNL     1       8.320   8.463  17.886  0.00  0.00    +0.000 C 
ENDBRANCH  16  21
ENDBRANCH  14  17
ENDBRANCH   1  14
BRANCH  13  22
ATOM     22  O   UNL     1       6.145   3.995  18.732  0.00  0.00    +0.000 OA
ATOM     23  H   UNL     1       5.866   3.062  18.731  0.00  0.00    +0.000 HD
ENDBRANCH  13  22
TORSDOF 4
ENDMDL
MODEL 7
REMARK VINA RESULT:      -8.1      2.039      3.101
REMARK  Name = 
REMARK  8 active torsions:
REMARK  status: ('A' for Active; 'I' for Inactive)
REMARK    1  A    between atoms: C_1  and  C_2
REMARK    2  A    between atoms: C_2  and  N_3
REMARK    3  A    between atoms: C_4  and  C_6
REMARK    4  A    between atoms: C_6  and  C_7
REMARK    5  A    between atoms: C_6  and  C_8
REMARK    6  A    between atoms: C_11  and  C_12
REMARK    7  A    between atoms: C_17  and  C_18
REMARK    8  A    between atoms: C_20  and  O_21
REMARK                            x       y       z     vdW  Elec       q    Type
REMARK                         _______ _______ _______ _____ _____    ______ ____
ROOT
ATOM      1  C   UNL     1       4.401   5.218  17.683  0.00  0.00    +0.000 C 
ATOM      2  C   UNL     1       2.960   5.803  17.641  0.00  0.00    +0.000 C 
ATOM      3  C   UNL     1       2.278   5.852  19.037  0.00  0.00    +0.000 C 
ATOM      4  C   UNL     1       2.441   4.522  19.825  0.00  0.00    +0.000 C 
ATOM      5  C   UNL     1       2.008   4.658  21.300  0.00  0.00    +0.000 C 
ATOM      6  C   UNL     1       1.481   3.543  19.173  0.00  0.00    +0.000 C 
ATOM      7  C   UNL     1       1.863   2.440  18.526  0.00  0.00    +0.000 C 
ATOM      8  C   UNL     1       3.283   2.059  18.521  0.00  0.00    +0.000 C 
ATOM      9  O   UNL     1       3.699   1.216  17.736  0.00  0.00    +0.000 OA
ATOM     10  C   UNL     1       4.184   2.737  19.506  0.00  0.00    +0.000 C 
ATOM     11  C   UNL     1       4.637   1.742  20.536  0.00  0.00    +0.000 C 
ATOM     12  C   UNL     1       3.914   4.039  19.798  0.00  0.00    +0.000 C 
ATOM     13  C   UNL     1       4.849   5.117  19.166  0.00  0.00    +0.000 C 
ENDROOT
BRANCH   1  14
ATOM     14  C   UNL     1       5.329   5.584  16.486  0.00  0.00    +0.000 C 
ATOM     15  C   UNL     1       5.299   4.595  15.320  0.00  0.00    +0.000 C 
BRANCH  14  17
ATOM     16  N   UNL     1       6.893   7.266  17.230  0.00  0.00    +0.000 N 
ATOM     17  C   UNL     1       6.778   5.974  16.752  0.00  0.00    +0.000 C 
ATOM     18  O   UNL     1       7.716   5.225  16.540  0.00  0.00    +0.000 OA
ATOM     19  H   UNL     1       6.053   7.825  17.322  0.00  0.00    +0.000 HD
BRANCH  16  21
ATOM     20  C   UNL     1       7.959   9.397  17.863  0.00  0.00    +0.000 C 
ATOM     21  C   UNL     1       8.132   7.908  17.618  0.00  0.00    +0.000 C 
ENDBRANCH  16  21
ENDBRANCH  14  17
ENDBRANCH   1  14
BRANCH  13  22
ATOM     22  O   UNL     1       6.204   4.761  19.349  0.00  0.00    +0.000 OA
ATOM     23  H   UNL     1       6.216   3.796  19.478  0.00  0.00    +0.000 HD
ENDBRANCH  13  22
TORSDOF 4
ENDMDL
MODEL 8
REMARK VINA RESULT:      -7.8      1.280      1.478
REMARK  Name = 
REMARK  8 active torsions:
REMARK  status: ('A' for Active; 'I' for Inactive)
REMARK    1  A    between atoms: C_1  and  C_2
REMARK    2  A    between atoms: C_2  and  N_3
REMARK    3  A    between atoms: C_4  and  C_6
REMARK    4  A    between atoms: C_6  and  C_7
REMARK    5  A    between atoms: C_6  and  C_8
REMARK    6  A    between atoms: C_11  and  C_12
REMARK    7  A    between atoms: C_17  and  C_18
REMARK    8  A    between atoms: C_20  and  O_21
REMARK                            x       y       z     vdW  Elec       q    Type
REMARK                         _______ _______ _______ _____ _____    ______ ____
ROOT
ATOM      1  C   UNL     1       4.809   5.338  17.800  0.00  0.00    +0.000 C 
ATOM      2  C   UNL     1       3.479   6.077  17.472  0.00  0.00    +0.000 C 
ATOM      3  C   UNL     1       2.565   6.273  18.715  0.00  0.00    +0.000 C 
ATOM      4  C   UNL     1       2.424   4.976  19.560  0.00  0.00    +0.000 C 
ATOM      5  C   UNL     1       1.750   5.235  20.923  0.00  0.00    +0.000 C 
ATOM      6  C   UNL     1       1.489   4.077  18.771  0.00  0.00    +0.000 C 
ATOM      7  C   UNL     1       1.849   2.906  18.240  0.00  0.00    +0.000 C 
ATOM      8  C   UNL     1       3.191   2.370  18.511  0.00  0.00    +0.000 C 
ATOM      9  O   UNL     1       3.639   1.447  17.844  0.00  0.00    +0.000 OA
ATOM     10  C   UNL     1       3.973   2.994  19.626  0.00  0.00    +0.000 C 
ATOM     11  C   UNL     1       4.110   2.010  20.752  0.00  0.00    +0.000 C 
ATOM     12  C   UNL     1       3.810   4.332  19.822  0.00  0.00    +0.000 C 
ATOM     13  C   UNL     1       4.965   5.266  19.343  0.00  0.00    +0.000 C 
ENDROOT
BRANCH   1  14
ATOM     14  C   UNL     1       5.975   5.537  16.786  0.00  0.00    +0.000 C 
ATOM     15  C   UNL     1       6.903   6.713  17.095  0.00  0.00    +0.000 C 
BRANCH  14  17
ATOM     16  N   UNL     1       5.787   4.271  14.739  0.00  0.00    +0.000 N 
ATOM     17  C   UNL     1       5.679   5.535  15.291  0.00  0.00    +0.000 C 
ATOM     18  O   UNL     1       5.403   6.545  14.667  0.00  0.00    +0.000 OA
ATOM     19  H   UNL     1       6.074   3.505  15.336  0.00  0.00    +0.000 HD
BRANCH  16  21
ATOM     20  C   UNL     1       6.797   3.799  12.541  0.00  0.00    +0.000 C 
ATOM     21  C   UNL     1       5.522   3.938  13.355  0.00  0.00    +0.000 C 
ENDBRANCH  16  21
ENDBRANCH  14  17
ENDBRANCH   1  14
BRANCH  13  22
ATOM     22  O   UNL     1       6.212   4.772  19.785  0.00  0.00    +0.000 OA
ATOM     23  H   UNL     1       6.869   5.456  19.562  0.00  0.00    +0.000 HD
ENDBRANCH  13  22
TORSDOF 4
ENDMDL
MODEL 9
REMARK VINA RESULT:      -7.8      2.558      3.454
REMARK  Name = 
REMARK  8 active torsions:
REMARK  status: ('A' for Active; 'I' for Inactive)
REMARK    1  A    between atoms: C_1  and  C_2
REMARK    2  A    between atoms: C_2  and  N_3
REMARK    3  A    between atoms: C_4  and  C_6
REMARK    4  A    between atoms: C_6  and  C_7
REMARK    5  A    between atoms: C_6  and  C_8
REMARK    6  A    between atoms: C_11  and  C_12
REMARK    7  A    between atoms: C_17  and  C_18
REMARK    8  A    between atoms: C_20  and  O_21
REMARK                            x       y       z     vdW  Elec       q    Type
REMARK                         _______ _______ _______ _____ _____    ______ ____
ROOT
ATOM      1  C   UNL     1       5.053   6.072  17.890  0.00  0.00    +0.000 C 
ATOM      2  C   UNL     1       3.733   6.822  17.553  0.00  0.00    +0.000 C 
ATOM      3  C   UNL     1       2.668   6.727  18.683  0.00  0.00    +0.000 C 
ATOM      4  C   UNL     1       2.501   5.279  19.221  0.00  0.00    +0.000 C 
ATOM      5  C   UNL     1       1.656   5.227  20.511  0.00  0.00    +0.000 C 
ATOM      6  C   UNL     1       1.717   4.536  18.152  0.00  0.00    +0.000 C 
ATOM      7  C   UNL     1       2.202   3.514  17.445  0.00  0.00    +0.000 C 
ATOM      8  C   UNL     1       3.531   2.974  17.770  0.00  0.00    +0.000 C 
ATOM      9  O   UNL     1       4.105   2.224  16.992  0.00  0.00    +0.000 OA
ATOM     10  C   UNL     1       4.138   3.374  19.079  0.00  0.00    +0.000 C 
ATOM     11  C   UNL     1       4.196   2.181  19.989  0.00  0.00    +0.000 C 
ATOM     12  C   UNL     1       3.879   4.635  19.521  0.00  0.00    +0.000 C 
ATOM     13  C   UNL     1       5.029   5.683  19.393  0.00  0.00    +0.000 C 
ENDROOT
BRANCH   1  14
ATOM     14  C   UNL     1       6.318   6.513  17.096  0.00  0.00    +0.000 C 
ATOM     15  C   UNL     1       6.874   5.462  16.134  0.00  0.00    +0.000 C 
BRANCH  14  17
ATOM     16  N   UNL     1       7.596   8.506  17.569  0.00  0.00    +0.000 N 
ATOM     17  C   UNL     1       7.485   7.154  17.838  0.00  0.00    +0.000 C 
ATOM     18  O   UNL     1       8.236   6.526  18.563  0.00  0.00    +0.000 OA
ATOM     19  H   UNL     1       6.951   8.923  16.909  0.00  0.00    +0.000 HD
BRANCH  16  21
ATOM     20  C   UNL     1       8.349  10.846  17.754  0.00  0.00    +0.000 C 
ATOM     21  C   UNL     1       8.573   9.399  18.156  0.00  0.00    +0.000 C 
ENDBRANCH  16  21
ENDBRANCH  14  17
ENDBRANCH   1  14
BRANCH  13  22
ATOM     22  O   UNL     1       6.241   5.145  19.881  0.00  0.00    +0.000 OA
ATOM     23  H   UNL     1       6.541   5.749  20.584  0.00  0.00    +0.000 HD
ENDBRANCH  13  22
TORSDOF 4
ENDMDL
