MODEL 1
REMARK VINA RESULT:      -7.3      0.000      0.000
REMARK  Name = 
REMARK  14 active torsions:
REMARK  status: ('A' for Active; 'I' for Inactive)
REMARK    1  A    between atoms: C_1  and  C_2
REMARK    2  A    between atoms: C_2  and  C_3
REMARK    3  A    between atoms: C_3  and  N_4
REMARK    4  A    between atoms: N_4  and  C_5
REMARK    5  A    between atoms: N_4  and  C_8
REMARK    6  A    between atoms: C_5  and  C_6
REMARK    7  A    between atoms: C_6  and  C_7
REMARK    8  A    between atoms: C_8  and  C_9
REMARK    9  A    between atoms: C_9  and  C_10
REMARK   10  A    between atoms: C_10  and  C_11
REMARK   11  A    between atoms: C_11  and  O_12
REMARK   12  A    between atoms: O_12  and  C_13
REMARK   13  A    between atoms: C_16  and  C_17
REMARK   14  A    between atoms: C_18  and  C_19
REMARK                            x       y       z     vdW  Elec       q    Type
REMARK                         _______ _______ _______ _____ _____    ______ ____
ROOT
ATOM      1  C   UNL     1       6.641   5.328  17.277  0.00  0.00    +0.000 A 
ATOM      2  C   UNL     1       7.521   5.213  18.358  0.00  0.00    +0.000 A 
ATOM      3  C   UNL     1       8.206   6.308  18.839  0.00  0.00    +0.000 A 
ATOM      4  C   UNL     1       8.045   7.590  18.260  0.00  0.00    +0.000 A 
ATOM      5  C   UNL     1       7.152   7.715  17.177  0.00  0.00    +0.000 A 
ATOM      6  C   UNL     1       6.459   6.590  16.688  0.00  0.00    +0.000 A 
ENDROOT
BRANCH   4   7
ATOM      7  C   UNL     1       8.780   8.783  18.792  0.00  0.00    +0.000 C 
ATOM      8  C   UNL     1       8.637  10.003  18.236  0.00  0.00    +0.000 C 
BRANCH   8   9
ATOM      9  C   UNL     1       9.318  11.245  18.602  0.00  0.00    +0.000 A 
ATOM     10  N   UNL     1       9.856  12.009  17.624  0.00  0.00    +0.000 NA
ATOM     11  C   UNL     1      10.503  13.079  18.121  0.00  0.00    +0.000 A 
ATOM     12  C   UNL     1      11.156  14.022  17.333  0.00  0.00    +0.000 A 
ATOM     13  C   UNL     1      11.811  15.086  17.964  0.00  0.00    +0.000 A 
ATOM     14  C   UNL     1      11.801  15.191  19.369  0.00  0.00    +0.000 A 
ATOM     15  C   UNL     1      11.135  14.233  20.154  0.00  0.00    +0.000 A 
ATOM     16  C   UNL     1      10.489  13.181  19.500  0.00  0.00    +0.000 A 
ATOM     17  S   UNL     1       9.626  11.879  20.148  0.00  0.00    +0.000 S 
ENDBRANCH   8   9
ENDBRANCH   4   7
BRANCH   1  18
ATOM     18  O   UNL     1       5.983   4.245  16.789  0.00  0.00    +0.000 OA
BRANCH  18  19
ATOM     19  C   UNL     1       4.600   4.116  16.780  0.00  0.00    +0.000 C 
BRANCH  19  20
ATOM     20  C   UNL     1       4.148   3.028  17.743  0.00  0.00    +0.000 C 
BRANCH  20  21
ATOM     21  C   UNL     1       4.362   3.423  19.214  0.00  0.00    +0.000 C 
BRANCH  21  22
ATOM     22  C   UNL     1       4.163   4.933  19.501  0.00  0.00    +0.000 C 
BRANCH  22  23
ATOM     23  N   UNL     1       2.917   5.260  20.256  0.00  0.00    +0.000 NA
BRANCH  23  24
ATOM     24  C   UNL     1       2.020   6.034  19.349  0.00  0.00    +0.000 C 
BRANCH  24  26
ATOM     25  C   UNL     1       2.218   8.274  18.251  0.00  0.00    +0.000 C 
ATOM     26  C   UNL     1       2.701   6.822  18.217  0.00  0.00    +0.000 C 
ENDBRANCH  24  26
ENDBRANCH  23  24
BRANCH  23  27
ATOM     27  C   UNL     1       2.260   4.008  20.736  0.00  0.00    +0.000 C 
BRANCH  27  28
ATOM     28  C   UNL     1       0.832   3.769  20.183  0.00  0.00    +0.000 C 
ATOM     29  C   UNL     1       0.767   2.630  19.167  0.00  0.00    +0.000 C 
ENDBRANCH  27  28
ENDBRANCH  23  27
ENDBRANCH  22  23
ENDBRANCH  21  22
ENDBRANCH  20  21
ENDBRANCH  19  20
ENDBRANCH  18  19
ENDBRANCH   1  18
TORSDOF 12
ENDMDL
MODEL 2
REMARK VINA RESULT:      -7.0      1.139      1.718
REMARK  Name = 
REMARK  14 active torsions:
REMARK  status: ('A' for Active; 'I' for Inactive)
REMARK    1  A    between atoms: C_1  and  C_2
REMARK    2  A    between atoms: C_2  and  C_3
REMARK    3  A    between atoms: C_3  and  N_4
REMARK    4  A    between atoms: N_4  and  C_5
REMARK    5  A    between atoms: N_4  and  C_8
REMARK    6  A    between atoms: C_5  and  C_6
REMARK    7  A    between atoms: C_6  and  C_7
REMARK    8  A    between atoms: C_8  and  C_9
REMARK    9  A    between atoms: C_9  and  C_10
REMARK   10  A    between atoms: C_10  and  C_11
REMARK   11  A    between atoms: C_11  and  O_12
REMARK   12  A    between atoms: O_12  and  C_13
REMARK   13  A    between atoms: C_16  and  C_17
REMARK   14  A    between atoms: C_18  and  C_19
REMARK                            x       y       z     vdW  Elec       q    Type
REMARK                         _______ _______ _______ _____ _____    ______ ____
ROOT
ATOM      1  C   UNL     1       6.687   5.224  18.283  0.00  0.00    +0.000 A 
ATOM      2  C   UNL     1       6.226   6.104  17.298  0.00  0.00    +0.000 A 
ATOM      3  C   UNL     1       6.786   7.355  17.142  0.00  0.00    +0.000 A 
ATOM      4  C   UNL     1       7.848   7.794  17.968  0.00  0.00    +0.000 A 
ATOM      5  C   UNL     1       8.323   6.908  18.955  0.00  0.00    +0.000 A 
ATOM      6  C   UNL     1       7.743   5.634  19.113  0.00  0.00    +0.000 A 
ENDROOT
BRANCH   4   7
ATOM      7  C   UNL     1       8.465   9.149  17.788  0.00  0.00    +0.000 C 
ATOM      8  C   UNL     1       9.044   9.800  18.818  0.00  0.00    +0.000 C 
BRANCH   8   9
ATOM      9  C   UNL     1       9.638  11.137  18.817  0.00  0.00    +0.000 A 
ATOM     10  N   UNL     1       8.899  12.181  18.381  0.00  0.00    +0.000 NA
ATOM     11  C   UNL     1       9.603  13.328  18.378  0.00  0.00    +0.000 A 
ATOM     12  C   UNL     1       9.084  14.553  17.966  0.00  0.00    +0.000 A 
ATOM     13  C   UNL     1       9.917  15.677  17.991  0.00  0.00    +0.000 A 
ATOM     14  C   UNL     1      11.251  15.561  18.428  0.00  0.00    +0.000 A 
ATOM     15  C   UNL     1      11.762  14.318  18.845  0.00  0.00    +0.000 A 
ATOM     16  C   UNL     1      10.911  13.213  18.811  0.00  0.00    +0.000 A 
ATOM     17  S   UNL     1      11.221  11.602  19.226  0.00  0.00    +0.000 S 
ENDBRANCH   8   9
ENDBRANCH   4   7
BRANCH   1  18
ATOM     18  O   UNL     1       6.121   4.002  18.451  0.00  0.00    +0.000 OA
BRANCH  18  19
ATOM     19  C   UNL     1       5.040   3.756  19.289  0.00  0.00    +0.000 C 
BRANCH  19  20
ATOM     20  C   UNL     1       4.531   2.332  19.118  0.00  0.00    +0.000 C 
BRANCH  20  21
ATOM     21  C   UNL     1       3.526   2.204  17.961  0.00  0.00    +0.000 C 
BRANCH  21  22
ATOM     22  C   UNL     1       2.970   3.559  17.452  0.00  0.00    +0.000 C 
BRANCH  22  23
ATOM     23  N   UNL     1       2.387   4.427  18.518  0.00  0.00    +0.000 NA
BRANCH  23  24
ATOM     24  C   UNL     1       2.050   5.745  17.903  0.00  0.00    +0.000 C 
BRANCH  24  26
ATOM     25  C   UNL     1       2.196   8.209  18.315  0.00  0.00    +0.000 C 
ATOM     26  C   UNL     1       3.003   6.912  18.212  0.00  0.00    +0.000 C 
ENDBRANCH  24  26
ENDBRANCH  23  24
BRANCH  23  27
ATOM     27  C   UNL     1       1.182   3.777  19.111  0.00  0.00    +0.000 C 
BRANCH  27  28
ATOM     28  C   UNL     1       1.046   3.934  20.647  0.00  0.00    +0.000 C 
ATOM     29  C   UNL     1       1.937   2.969  21.428  0.00  0.00    +0.000 C 
ENDBRANCH  27  28
ENDBRANCH  23  27
ENDBRANCH  22  23
ENDBRANCH  21  22
ENDBRANCH  20  21
ENDBRANCH  19  20
ENDBRANCH  18  19
ENDBRANCH   1  18
TORSDOF 12
ENDMDL
MODEL 3
REMARK VINA RESULT:      -7.0      1.096      1.389
REMARK  Name = 
REMARK  14 active torsions:
REMARK  status: ('A' for Active; 'I' for Inactive)
REMARK    1  A    between atoms: C_1  and  C_2
REMARK    2  A    between atoms: C_2  and  C_3
REMARK    3  A    between atoms: C_3  and  N_4
REMARK    4  A    between atoms: N_4  and  C_5
REMARK    5  A    between atoms: N_4  and  C_8
REMARK    6  A    between atoms: C_5  and  C_6
REMARK    7  A    between atoms: C_6  and  C_7
REMARK    8  A    between atoms: C_8  and  C_9
REMARK    9  A    between atoms: C_9  and  C_10
REMARK   10  A    between atoms: C_10  and  C_11
REMARK   11  A    between atoms: C_11  and  O_12
REMARK   12  A    between atoms: O_12  and  C_13
REMARK   13  A    between atoms: C_16  and  C_17
REMARK   14  A    between atoms: C_18  and  C_19
REMARK                            x       y       z     vdW  Elec       q    Type
REMARK                         _______ _______ _______ _____ _____    ______ ____
ROOT
ATOM      1  C   UNL     1       6.657   5.325  17.188  0.00  0.00    +0.000 A 
ATOM      2  C   UNL     1       7.441   5.262  18.344  0.00  0.00    +0.000 A 
ATOM      3  C   UNL     1       8.072   6.383  18.840  0.00  0.00    +0.000 A 
ATOM      4  C   UNL     1       7.949   7.640  18.202  0.00  0.00    +0.000 A 
ATOM      5  C   UNL     1       7.152   7.713  17.041  0.00  0.00    +0.000 A 
ATOM      6  C   UNL     1       6.515   6.562  16.538  0.00  0.00    +0.000 A 
ENDROOT
BRANCH   4   7
ATOM      7  C   UNL     1       8.624   8.862  18.749  0.00  0.00    +0.000 C 
ATOM      8  C   UNL     1       8.798   9.967  17.995  0.00  0.00    +0.000 C 
BRANCH   8   9
ATOM      9  C   UNL     1       9.477  11.210  18.362  0.00  0.00    +0.000 A 
ATOM     10  N   UNL     1       8.733  12.294  18.675  0.00  0.00    +0.000 NA
ATOM     11  C   UNL     1       9.497  13.373  18.924  0.00  0.00    +0.000 A 
ATOM     12  C   UNL     1       8.984  14.622  19.261  0.00  0.00    +0.000 A 
ATOM     13  C   UNL     1       9.878  15.677  19.482  0.00  0.00    +0.000 A 
ATOM     14  C   UNL     1      11.265  15.467  19.365  0.00  0.00    +0.000 A 
ATOM     15  C   UNL     1      11.771  14.197  19.028  0.00  0.00    +0.000 A 
ATOM     16  C   UNL     1      10.860  13.162  18.813  0.00  0.00    +0.000 A 
ATOM     17  S   UNL     1      11.142  11.550  18.384  0.00  0.00    +0.000 S 
ENDBRANCH   8   9
ENDBRANCH   4   7
BRANCH   1  18
ATOM     18  O   UNL     1       6.055   4.216  16.687  0.00  0.00    +0.000 OA
BRANCH  18  19
ATOM     19  C   UNL     1       4.678   4.064  16.576  0.00  0.00    +0.000 C 
BRANCH  19  20
ATOM     20  C   UNL     1       4.163   3.033  17.569  0.00  0.00    +0.000 C 
BRANCH  20  21
ATOM     21  C   UNL     1       2.657   2.766  17.408  0.00  0.00    +0.000 C 
BRANCH  21  22
ATOM     22  C   UNL     1       1.750   3.882  17.986  0.00  0.00    +0.000 C 
BRANCH  22  23
ATOM     23  N   UNL     1       2.478   4.930  18.763  0.00  0.00    +0.000 NA
BRANCH  23  24
ATOM     24  C   UNL     1       2.048   6.264  18.249  0.00  0.00    +0.000 C 
BRANCH  24  26
ATOM     25  C   UNL     1       2.506   8.655  17.673  0.00  0.00    +0.000 C 
ATOM     26  C   UNL     1       3.087   7.395  18.321  0.00  0.00    +0.000 C 
ENDBRANCH  24  26
ENDBRANCH  23  24
BRANCH  23  27
ATOM     27  C   UNL     1       2.187   4.786  20.220  0.00  0.00    +0.000 C 
BRANCH  27  28
ATOM     28  C   UNL     1       1.060   3.780  20.564  0.00  0.00    +0.000 C 
ATOM     29  C   UNL     1       1.499   2.704  21.556  0.00  0.00    +0.000 C 
ENDBRANCH  27  28
ENDBRANCH  23  27
ENDBRANCH  22  23
ENDBRANCH  21  22
ENDBRANCH  20  21
ENDBRANCH  19  20
ENDBRANCH  18  19
ENDBRANCH   1  18
TORSDOF 12
ENDMDL
MODEL 4
REMARK VINA RESULT:      -6.8      0.687      1.235
REMARK  Name = 
REMARK  14 active torsions:
REMARK  status: ('A' for Active; 'I' for Inactive)
REMARK    1  A    between atoms: C_1  and  C_2
REMARK    2  A    between atoms: C_2  and  C_3
REMARK    3  A    between atoms: C_3  and  N_4
REMARK    4  A    between atoms: N_4  and  C_5
REMARK    5  A    between atoms: N_4  and  C_8
REMARK    6  A    between atoms: C_5  and  C_6
REMARK    7  A    between atoms: C_6  and  C_7
REMARK    8  A    between atoms: C_8  and  C_9
REMARK    9  A    between atoms: C_9  and  C_10
REMARK   10  A    between atoms: C_10  and  C_11
REMARK   11  A    between atoms: C_11  and  O_12
REMARK   12  A    between atoms: O_12  and  C_13
REMARK   13  A    between atoms: C_16  and  C_17
REMARK   14  A    between atoms: C_18  and  C_19
REMARK                            x       y       z     vdW  Elec       q    Type
REMARK                         _______ _______ _______ _____ _____    ______ ____
ROOT
ATOM      1  C   UNL     1       7.156   5.398  17.427  0.00  0.00    +0.000 A 
ATOM      2  C   UNL     1       7.044   6.582  16.691  0.00  0.00    +0.000 A 
ATOM      3  C   UNL     1       7.537   7.774  17.177  0.00  0.00    +0.000 A 
ATOM      4  C   UNL     1       8.179   7.846  18.436  0.00  0.00    +0.000 A 
ATOM      5  C   UNL     1       8.304   6.654  19.179  0.00  0.00    +0.000 A 
ATOM      6  C   UNL     1       7.792   5.441  18.678  0.00  0.00    +0.000 A 
ENDROOT
BRANCH   4   7
ATOM      7  C   UNL     1       8.728   9.139  18.958  0.00  0.00    +0.000 C 
ATOM      8  C   UNL     1       8.932  10.196  18.145  0.00  0.00    +0.000 C 
BRANCH   8   9
ATOM      9  C   UNL     1       9.505  11.498  18.488  0.00  0.00    +0.000 A 
ATOM     10  N   UNL     1      10.037  12.257  17.504  0.00  0.00    +0.000 NA
ATOM     11  C   UNL     1      10.581  13.391  17.984  0.00  0.00    +0.000 A 
ATOM     12  C   UNL     1      11.206  14.346  17.186  0.00  0.00    +0.000 A 
ATOM     13  C   UNL     1      11.751  15.480  17.800  0.00  0.00    +0.000 A 
ATOM     14  C   UNL     1      11.662  15.642  19.196  0.00  0.00    +0.000 A 
ATOM     15  C   UNL     1      11.024  14.671  19.991  0.00  0.00    +0.000 A 
ATOM     16  C   UNL     1      10.489  13.549  19.354  0.00  0.00    +0.000 A 
ATOM     17  S   UNL     1       9.687  12.215  20.018  0.00  0.00    +0.000 S 
ENDBRANCH   8   9
ENDBRANCH   4   7
BRANCH   1  18
ATOM     18  O   UNL     1       6.649   4.229  16.958  0.00  0.00    +0.000 OA
BRANCH  18  19
ATOM     19  C   UNL     1       5.678   4.146  15.968  0.00  0.00    +0.000 C 
BRANCH  19  20
ATOM     20  C   UNL     1       4.296   4.437  16.535  0.00  0.00    +0.000 C 
BRANCH  20  21
ATOM     21  C   UNL     1       3.881   3.423  17.614  0.00  0.00    +0.000 C 
BRANCH  21  22
ATOM     22  C   UNL     1       4.182   3.882  19.064  0.00  0.00    +0.000 C 
BRANCH  22  23
ATOM     23  N   UNL     1       3.146   4.778  19.657  0.00  0.00    +0.000 NA
BRANCH  23  24
ATOM     24  C   UNL     1       3.547   6.189  19.382  0.00  0.00    +0.000 C 
BRANCH  24  26
ATOM     25  C   UNL     1       2.544   7.999  17.974  0.00  0.00    +0.000 C 
ATOM     26  C   UNL     1       2.410   7.221  19.286  0.00  0.00    +0.000 C 
ENDBRANCH  24  26
ENDBRANCH  23  24
BRANCH  23  27
ATOM     27  C   UNL     1       1.804   4.469  19.079  0.00  0.00    +0.000 C 
BRANCH  27  28
ATOM     28  C   UNL     1       0.921   3.536  19.946  0.00  0.00    +0.000 C 
ATOM     29  C   UNL     1       1.068   2.061  19.577  0.00  0.00    +0.000 C 
ENDBRANCH  27  28
ENDBRANCH  23  27
ENDBRANCH  22  23
ENDBRANCH  21  22
ENDBRANCH  20  21
ENDBRANCH  19  20
ENDBRANCH  18  19
ENDBRANCH   1  18
TORSDOF 12
ENDMDL
MODEL 5
REMARK VINA RESULT:      -6.8      1.341      2.853
REMARK  Name = 
REMARK  14 active torsions:
REMARK  status: ('A' for Active; 'I' for Inactive)
REMARK    1  A    between atoms: C_1  and  C_2
REMARK    2  A    between atoms: C_2  and  C_3
REMARK    3  A    between atoms: C_3  and  N_4
REMARK    4  A    between atoms: N_4  and  C_5
REMARK    5  A    between atoms: N_4  and  C_8
REMARK    6  A    between atoms: C_5  and  C_6
REMARK    7  A    between atoms: C_6  and  C_7
REMARK    8  A    between atoms: C_8  and  C_9
REMARK    9  A    between atoms: C_9  and  C_10
REMARK   10  A    between atoms: C_10  and  C_11
REMARK   11  A    between atoms: C_11  and  O_12
REMARK   12  A    between atoms: O_12  and  C_13
REMARK   13  A    between atoms: C_16  and  C_17
REMARK   14  A    between atoms: C_18  and  C_19
REMARK                            x       y       z     vdW  Elec       q    Type
REMARK                         _______ _______ _______ _____ _____    ______ ____
ROOT
ATOM      1  C   UNL     1       6.583   4.799  16.697  0.00  0.00    +0.000 A 
ATOM      2  C   UNL     1       6.223   6.111  16.373  0.00  0.00    +0.000 A 
ATOM      3  C   UNL     1       6.770   7.187  17.039  0.00  0.00    +0.000 A 
ATOM      4  C   UNL     1       7.719   7.006  18.074  0.00  0.00    +0.000 A 
ATOM      5  C   UNL     1       8.094   5.687  18.399  0.00  0.00    +0.000 A 
ATOM      6  C   UNL     1       7.526   4.593  17.717  0.00  0.00    +0.000 A 
ENDROOT
BRANCH   4   7
ATOM      7  C   UNL     1       8.324   8.176  18.789  0.00  0.00    +0.000 C 
ATOM      8  C   UNL     1       8.582   9.335  18.149  0.00  0.00    +0.000 C 
BRANCH   8   9
ATOM      9  C   UNL     1       9.212  10.541  18.688  0.00  0.00    +0.000 A 
ATOM     10  N   UNL     1       8.877  10.954  19.931  0.00  0.00    +0.000 NA
ATOM     11  C   UNL     1       9.487  12.108  20.258  0.00  0.00    +0.000 A 
ATOM     12  C   UNL     1       9.309  12.758  21.476  0.00  0.00    +0.000 A 
ATOM     13  C   UNL     1       9.984  13.964  21.698  0.00  0.00    +0.000 A 
ATOM     14  C   UNL     1      10.825  14.499  20.702  0.00  0.00    +0.000 A 
ATOM     15  C   UNL     1      10.999  13.830  19.477  0.00  0.00    +0.000 A 
ATOM     16  C   UNL     1      10.315  12.629  19.280  0.00  0.00    +0.000 A 
ATOM     17  S   UNL     1      10.299  11.607  17.932  0.00  0.00    +0.000 S 
ENDBRANCH   8   9
ENDBRANCH   4   7
BRANCH   1  18
ATOM     18  O   UNL     1       6.027   3.740  16.056  0.00  0.00    +0.000 OA
BRANCH  18  19
ATOM     19  C   UNL     1       4.667   3.456  16.062  0.00  0.00    +0.000 C 
BRANCH  19  20
ATOM     20  C   UNL     1       4.178   3.163  17.473  0.00  0.00    +0.000 C 
BRANCH  20  21
ATOM     21  C   UNL     1       2.949   4.006  17.854  0.00  0.00    +0.000 C 
BRANCH  21  22
ATOM     22  C   UNL     1       3.166   4.924  19.083  0.00  0.00    +0.000 C 
BRANCH  22  23
ATOM     23  N   UNL     1       1.952   5.679  19.514  0.00  0.00    +0.000 NA
BRANCH  23  24
ATOM     24  C   UNL     1       1.299   4.909  20.613  0.00  0.00    +0.000 C 
BRANCH  24  26
ATOM     25  C   UNL     1       1.519   2.604  21.561  0.00  0.00    +0.000 C 
ATOM     26  C   UNL     1       2.204   3.966  21.424  0.00  0.00    +0.000 C 
ENDBRANCH  24  26
ENDBRANCH  23  24
BRANCH  23  27
ATOM     27  C   UNL     1       2.329   7.053  19.959  0.00  0.00    +0.000 C 
BRANCH  27  28
ATOM     28  C   UNL     1       1.902   8.189  18.996  0.00  0.00    +0.000 C 
ATOM     29  C   UNL     1       2.735   8.232  17.715  0.00  0.00    +0.000 C 
ENDBRANCH  27  28
ENDBRANCH  23  27
ENDBRANCH  22  23
ENDBRANCH  21  22
ENDBRANCH  20  21
ENDBRANCH  19  20
ENDBRANCH  18  19
ENDBRANCH   1  18
TORSDOF 12
ENDMDL
MODEL 6
REMARK VINA RESULT:      -6.8      1.437      2.901
REMARK  Name = 
REMARK  14 active torsions:
REMARK  status: ('A' for Active; 'I' for Inactive)
REMARK    1  A    between atoms: C_1  and  C_2
REMARK    2  A    between atoms: C_2  and  C_3
REMARK    3  A    between atoms: C_3  and  N_4
REMARK    4  A    between atoms: N_4  and  C_5
REMARK    5  A    between atoms: N_4  and  C_8
REMARK    6  A    between atoms: C_5  and  C_6
REMARK    7  A    between atoms: C_6  and  C_7
REMARK    8  A    between atoms: C_8  and  C_9
REMARK    9  A    between atoms: C_9  and  C_10
REMARK   10  A    between atoms: C_10  and  C_11
REMARK   11  A    between atoms: C_11  and  O_12
REMARK   12  A    between atoms: O_12  and  C_13
REMARK   13  A    between atoms: C_16  and  C_17
REMARK   14  A    between atoms: C_18  and  C_19
REMARK                            x       y       z     vdW  Elec       q    Type
REMARK                         _______ _______ _______ _____ _____    ______ ____
ROOT
ATOM      1  C   UNL     1       5.684   4.951  17.323  0.00  0.00    +0.000 A 
ATOM      2  C   UNL     1       5.110   6.216  17.162  0.00  0.00    +0.000 A 
ATOM      3  C   UNL     1       5.873   7.361  17.247  0.00  0.00    +0.000 A 
ATOM      4  C   UNL     1       7.265   7.301  17.497  0.00  0.00    +0.000 A 
ATOM      5  C   UNL     1       7.851   6.029  17.650  0.00  0.00    +0.000 A 
ATOM      6  C   UNL     1       7.064   4.864  17.568  0.00  0.00    +0.000 A 
ENDROOT
BRANCH   4   7
ATOM      7  C   UNL     1       8.096   8.546  17.575  0.00  0.00    +0.000 C 
ATOM      8  C   UNL     1       8.405   9.113  18.760  0.00  0.00    +0.000 C 
BRANCH   8   9
ATOM      9  C   UNL     1       9.155  10.345  19.000  0.00  0.00    +0.000 A 
ATOM     10  N   UNL     1       8.994  10.990  20.177  0.00  0.00    +0.000 NA
ATOM     11  C   UNL     1       9.697  12.137  20.221  0.00  0.00    +0.000 A 
ATOM     12  C   UNL     1       9.701  12.999  21.315  0.00  0.00    +0.000 A 
ATOM     13  C   UNL     1      10.458  14.174  21.240  0.00  0.00    +0.000 A 
ATOM     14  C   UNL     1      11.198  14.467  20.078  0.00  0.00    +0.000 A 
ATOM     15  C   UNL     1      11.189  13.586  18.981  0.00  0.00    +0.000 A 
ATOM     16  C   UNL     1      10.426  12.421  19.081  0.00  0.00    +0.000 A 
ATOM     17  S   UNL     1      10.195  11.185  17.949  0.00  0.00    +0.000 S 
ENDBRANCH   8   9
ENDBRANCH   4   7
BRANCH   1  18
ATOM     18  O   UNL     1       4.929   3.824  17.263  0.00  0.00    +0.000 OA
BRANCH  18  19
ATOM     19  C   UNL     1       4.177   3.336  18.324  0.00  0.00    +0.000 C 
BRANCH  19  20
ATOM     20  C   UNL     1       3.144   2.327  17.841  0.00  0.00    +0.000 C 
BRANCH  20  21
ATOM     21  C   UNL     1       1.704   2.846  17.990  0.00  0.00    +0.000 C 
BRANCH  21  22
ATOM     22  C   UNL     1       1.607   4.309  18.491  0.00  0.00    +0.000 C 
BRANCH  22  23
ATOM     23  N   UNL     1       0.975   4.463  19.835  0.00  0.00    +0.000 NA
BRANCH  23  24
ATOM     24  C   UNL     1       0.944   3.119  20.484  0.00  0.00    +0.000 C 
BRANCH  24  26
ATOM     25  C   UNL     1       3.110   2.304  21.436  0.00  0.00    +0.000 C 
ATOM     26  C   UNL     1       1.768   2.958  21.772  0.00  0.00    +0.000 C 
ENDBRANCH  24  26
ENDBRANCH  23  24
BRANCH  23  27
ATOM     27  C   UNL     1       1.741   5.447  20.655  0.00  0.00    +0.000 C 
BRANCH  27  28
ATOM     28  C   UNL     1       2.507   6.519  19.839  0.00  0.00    +0.000 C 
ATOM     29  C   UNL     1       1.903   7.916  19.972  0.00  0.00    +0.000 C 
ENDBRANCH  27  28
ENDBRANCH  23  27
ENDBRANCH  22  23
ENDBRANCH  21  22
ENDBRANCH  20  21
ENDBRANCH  19  20
ENDBRANCH  18  19
ENDBRANCH   1  18
TORSDOF 12
ENDMDL
MODEL 7
REMARK VINA RESULT:      -6.7      1.076      2.481
REMARK  Name = 
REMARK  14 active torsions:
REMARK  status: ('A' for Active; 'I' for Inactive)
REMARK    1  A    between atoms: C_1  and  C_2
REMARK    2  A    between atoms: C_2  and  C_3
REMARK    3  A    between atoms: C_3  and  N_4
REMARK    4  A    between atoms: N_4  and  C_5
REMARK    5  A    between atoms: N_4  and  C_8
REMARK    6  A    between atoms: C_5  and  C_6
REMARK    7  A    between atoms: C_6  and  C_7
REMARK    8  A    between atoms: C_8  and  C_9
REMARK    9  A    between atoms: C_9  and  C_10
REMARK   10  A    between atoms: C_10  and  C_11
REMARK   11  A    between atoms: C_11  and  O_12
REMARK   12  A    between atoms: O_12  and  C_13
REMARK   13  A    between atoms: C_16  and  C_17
REMARK   14  A    between atoms: C_18  and  C_19
REMARK                            x       y       z     vdW  Elec       q    Type
REMARK                         _______ _______ _______ _____ _____    ______ ____
ROOT
ATOM      1  C   UNL     1       7.182   5.552  17.381  0.00  0.00    +0.000 A 
ATOM      2  C   UNL     1       7.846   5.599  18.611  0.00  0.00    +0.000 A 
ATOM      3  C   UNL     1       8.329   6.788  19.115  0.00  0.00    +0.000 A 
ATOM      4  C   UNL     1       8.170   8.005  18.410  0.00  0.00    +0.000 A 
ATOM      5  C   UNL     1       7.492   7.966  17.174  0.00  0.00    +0.000 A 
ATOM      6  C   UNL     1       7.006   6.746  16.664  0.00  0.00    +0.000 A 
ENDROOT
BRANCH   4   7
ATOM      7  C   UNL     1       8.683   9.300  18.965  0.00  0.00    +0.000 C 
ATOM      8  C   UNL     1       9.094  10.298  18.156  0.00  0.00    +0.000 C 
BRANCH   8   9
ATOM      9  C   UNL     1       9.665  11.590  18.538  0.00  0.00    +0.000 A 
ATOM     10  N   UNL     1       9.506  12.024  19.808  0.00  0.00    +0.000 NA
ATOM     11  C   UNL     1      10.026  13.253  19.987  0.00  0.00    +0.000 A 
ATOM     12  C   UNL     1       9.990  13.938  21.199  0.00  0.00    +0.000 A 
ATOM     13  C   UNL     1      10.549  15.220  21.261  0.00  0.00    +0.000 A 
ATOM     14  C   UNL     1      11.135  15.794  20.116  0.00  0.00    +0.000 A 
ATOM     15  C   UNL     1      11.168  15.089  18.899  0.00  0.00    +0.000 A 
ATOM     16  C   UNL     1      10.604  13.813  18.863  0.00  0.00    +0.000 A 
ATOM     17  S   UNL     1      10.472  12.730  17.570  0.00  0.00    +0.000 S 
ENDBRANCH   8   9
ENDBRANCH   4   7
BRANCH   1  18
ATOM     18  O   UNL     1       6.726   4.377  16.875  0.00  0.00    +0.000 OA
BRANCH  18  19
ATOM     19  C   UNL     1       5.809   4.284  15.835  0.00  0.00    +0.000 C 
BRANCH  19  20
ATOM     20  C   UNL     1       4.391   4.147  16.372  0.00  0.00    +0.000 C 
BRANCH  20  21
ATOM     21  C   UNL     1       4.259   3.003  17.391  0.00  0.00    +0.000 C 
BRANCH  21  22
ATOM     22  C   UNL     1       4.284   3.466  18.870  0.00  0.00    +0.000 C 
BRANCH  22  23
ATOM     23  N   UNL     1       3.151   4.359  19.258  0.00  0.00    +0.000 NA
BRANCH  23  24
ATOM     24  C   UNL     1       2.451   3.735  20.419  0.00  0.00    +0.000 C 
BRANCH  24  26
ATOM     25  C   UNL     1       0.724   2.691  18.940  0.00  0.00    +0.000 C 
ATOM     26  C   UNL     1       1.654   2.452  20.132  0.00  0.00    +0.000 C 
ENDBRANCH  24  26
ENDBRANCH  23  24
BRANCH  23  27
ATOM     27  C   UNL     1       3.661   5.721  19.594  0.00  0.00    +0.000 C 
BRANCH  27  28
ATOM     28  C   UNL     1       2.634   6.866  19.404  0.00  0.00    +0.000 C 
ATOM     29  C   UNL     1       2.615   7.422  17.981  0.00  0.00    +0.000 C 
ENDBRANCH  27  28
ENDBRANCH  23  27
ENDBRANCH  22  23
ENDBRANCH  21  22
ENDBRANCH  20  21
ENDBRANCH  19  20
ENDBRANCH  18  19
ENDBRANCH   1  18
TORSDOF 12
ENDMDL
MODEL 8
REMARK VINA RESULT:      -6.6      5.637      9.473
REMARK  Name = 
REMARK  14 active torsions:
REMARK  status: ('A' for Active; 'I' for Inactive)
REMARK    1  A    between atoms: C_1  and  C_2
REMARK    2  A    between atoms: C_2  and  C_3
REMARK    3  A    between atoms: C_3  and  N_4
REMARK    4  A    between atoms: N_4  and  C_5
REMARK    5  A    between atoms: N_4  and  C_8
REMARK    6  A    between atoms: C_5  and  C_6
REMARK    7  A    between atoms: C_6  and  C_7
REMARK    8  A    between atoms: C_8  and  C_9
REMARK    9  A    between atoms: C_9  and  C_10
REMARK   10  A    between atoms: C_10  and  C_11
REMARK   11  A    between atoms: C_11  and  O_12
REMARK   12  A    between atoms: O_12  and  C_13
REMARK   13  A    between atoms: C_16  and  C_17
REMARK   14  A    between atoms: C_18  and  C_19
REMARK                            x       y       z     vdW  Elec       q    Type
REMARK                         _______ _______ _______ _____ _____    ______ ____
ROOT
ATOM      1  C   UNL     1       2.480   7.610  18.575  0.00  0.00    +0.000 A 
ATOM      2  C   UNL     1       2.048   8.686  17.793  0.00  0.00    +0.000 A 
ATOM      3  C   UNL     1       1.227   9.663  18.316  0.00  0.00    +0.000 A 
ATOM      4  C   UNL     1       0.793   9.616  19.662  0.00  0.00    +0.000 A 
ATOM      5  C   UNL     1       1.233   8.540  20.458  0.00  0.00    +0.000 A 
ATOM      6  C   UNL     1       2.067   7.543  19.915  0.00  0.00    +0.000 A 
ENDROOT
BRANCH   4   7
ATOM      7  C   UNL     1      -0.088  10.686  20.233  0.00  0.00    +0.000 C 
ATOM      8  C   UNL     1       0.037  11.092  21.514  0.00  0.00    +0.000 C 
BRANCH   8   9
ATOM      9  C   UNL     1      -0.772  12.078  22.229  0.00  0.00    +0.000 A 
ATOM     10  N   UNL     1      -1.925  11.679  22.812  0.00  0.00    +0.000 NA
ATOM     11  C   UNL     1      -2.587  12.708  23.371  0.00  0.00    +0.000 A 
ATOM     12  C   UNL     1      -3.808  12.576  24.029  0.00  0.00    +0.000 A 
ATOM     13  C   UNL     1      -4.413  13.722  24.557  0.00  0.00    +0.000 A 
ATOM     14  C   UNL     1      -3.790  14.978  24.422  0.00  0.00    +0.000 A 
ATOM     15  C   UNL     1      -2.555  15.098  23.758  0.00  0.00    +0.000 A 
ATOM     16  C   UNL     1      -1.972  13.939  23.240  0.00  0.00    +0.000 A 
ATOM     17  S   UNL     1      -0.523  13.752  22.388  0.00  0.00    +0.000 S 
ENDBRANCH   8   9
ENDBRANCH   4   7
BRANCH   1  18
ATOM     18  O   UNL     1       3.270   6.636  18.054  0.00  0.00    +0.000 OA
BRANCH  18  19
ATOM     19  C   UNL     1       2.933   5.288  18.039  0.00  0.00    +0.000 C 
BRANCH  19  20
ATOM     20  C   UNL     1       3.818   4.496  18.991  0.00  0.00    +0.000 C 
BRANCH  20  21
ATOM     21  C   UNL     1       4.865   3.650  18.249  0.00  0.00    +0.000 C 
BRANCH  21  22
ATOM     22  C   UNL     1       5.143   4.115  16.797  0.00  0.00    +0.000 C 
BRANCH  22  23
ATOM     23  N   UNL     1       6.489   4.730  16.591  0.00  0.00    +0.000 NA
BRANCH  23  24
ATOM     24  C   UNL     1       6.860   4.555  15.157  0.00  0.00    +0.000 C 
BRANCH  24  26
ATOM     25  C   UNL     1       6.303   3.661  12.886  0.00  0.00    +0.000 C 
ATOM     26  C   UNL     1       5.715   4.215  14.187  0.00  0.00    +0.000 C 
ENDBRANCH  24  26
ENDBRANCH  23  24
BRANCH  23  27
ATOM     27  C   UNL     1       6.460   6.173  16.976  0.00  0.00    +0.000 C 
BRANCH  27  28
ATOM     28  C   UNL     1       7.644   6.633  17.864  0.00  0.00    +0.000 C 
ATOM     29  C   UNL     1       7.761   5.839  19.164  0.00  0.00    +0.000 C 
ENDBRANCH  27  28
ENDBRANCH  23  27
ENDBRANCH  22  23
ENDBRANCH  21  22
ENDBRANCH  20  21
ENDBRANCH  19  20
ENDBRANCH  18  19
ENDBRANCH   1  18
TORSDOF 12
ENDMDL
MODEL 9
REMARK VINA RESULT:      -6.6      1.250      1.788
REMARK  Name = 
REMARK  14 active torsions:
REMARK  status: ('A' for Active; 'I' for Inactive)
REMARK    1  A    between atoms: C_1  and  C_2
REMARK    2  A    between atoms: C_2  and  C_3
REMARK    3  A    between atoms: C_3  and  N_4
REMARK    4  A    between atoms: N_4  and  C_5
REMARK    5  A    between atoms: N_4  and  C_8
REMARK    6  A    between atoms: C_5  and  C_6
REMARK    7  A    between atoms: C_6  and  C_7
REMARK    8  A    between atoms: C_8  and  C_9
REMARK    9  A    between atoms: C_9  and  C_10
REMARK   10  A    between atoms: C_10  and  C_11
REMARK   11  A    between atoms: C_11  and  O_12
REMARK   12  A    between atoms: O_12  and  C_13
REMARK   13  A    between atoms: C_16  and  C_17
REMARK   14  A    between atoms: C_18  and  C_19
REMARK                            x       y       z     vdW  Elec       q    Type
REMARK                         _______ _______ _______ _____ _____    ______ ____
ROOT
ATOM      1  C   UNL     1       5.907   4.842  16.736  0.00  0.00    +0.000 A 
ATOM      2  C   UNL     1       5.296   5.994  16.230  0.00  0.00    +0.000 A 
ATOM      3  C   UNL     1       5.786   7.248  16.525  0.00  0.00    +0.000 A 
ATOM      4  C   UNL     1       6.925   7.419  17.346  0.00  0.00    +0.000 A 
ATOM      5  C   UNL     1       7.552   6.262  17.851  0.00  0.00    +0.000 A 
ATOM      6  C   UNL     1       7.042   4.983  17.550  0.00  0.00    +0.000 A 
ENDROOT
BRANCH   4   7
ATOM      7  C   UNL     1       7.466   8.783  17.655  0.00  0.00    +0.000 C 
ATOM      8  C   UNL     1       8.541   8.950  18.453  0.00  0.00    +0.000 C 
BRANCH   8   9
ATOM      9  C   UNL     1       9.153  10.205  18.888  0.00  0.00    +0.000 A 
ATOM     10  N   UNL     1       9.721  11.011  17.964  0.00  0.00    +0.000 NA
ATOM     11  C   UNL     1      10.297  12.090  18.524  0.00  0.00    +0.000 A 
ATOM     12  C   UNL     1      10.962  13.076  17.799  0.00  0.00    +0.000 A 
ATOM     13  C   UNL     1      11.538  14.146  18.494  0.00  0.00    +0.000 A 
ATOM     14  C   UNL     1      11.439  14.215  19.897  0.00  0.00    +0.000 A 
ATOM     15  C   UNL     1      10.762  13.214  20.618  0.00  0.00    +0.000 A 
ATOM     16  C   UNL     1      10.196  12.158  19.902  0.00  0.00    +0.000 A 
ATOM     17  S   UNL     1       9.343  10.810  20.465  0.00  0.00    +0.000 S 
ENDBRANCH   8   9
ENDBRANCH   4   7
BRANCH   1  18
ATOM     18  O   UNL     1       5.410   3.608  16.464  0.00  0.00    +0.000 OA
BRANCH  18  19
ATOM     19  C   UNL     1       4.584   2.896  17.326  0.00  0.00    +0.000 C 
BRANCH  19  20
ATOM     20  C   UNL     1       4.104   3.778  18.470  0.00  0.00    +0.000 C 
BRANCH  20  21
ATOM     21  C   UNL     1       2.758   4.455  18.162  0.00  0.00    +0.000 C 
BRANCH  21  22
ATOM     22  C   UNL     1       2.434   5.664  19.076  0.00  0.00    +0.000 C 
BRANCH  22  23
ATOM     23  N   UNL     1       1.953   5.296  20.441  0.00  0.00    +0.000 NA
BRANCH  23  24
ATOM     24  C   UNL     1       1.406   6.527  21.084  0.00  0.00    +0.000 C 
BRANCH  24  26
ATOM     25  C   UNL     1       0.725   8.917  20.786  0.00  0.00    +0.000 C 
ATOM     26  C   UNL     1       1.783   7.868  20.431  0.00  0.00    +0.000 C 
ENDBRANCH  24  26
ENDBRANCH  23  24
BRANCH  23  27
ATOM     27  C   UNL     1       0.921   4.222  20.353  0.00  0.00    +0.000 C 
BRANCH  27  28
ATOM     28  C   UNL     1       1.156   3.012  21.292  0.00  0.00    +0.000 C 
ATOM     29  C   UNL     1       2.637   2.695  21.499  0.00  0.00    +0.000 C 
ENDBRANCH  27  28
ENDBRANCH  23  27
ENDBRANCH  22  23
ENDBRANCH  21  22
ENDBRANCH  20  21
ENDBRANCH  19  20
ENDBRANCH  18  19
ENDBRANCH   1  18
TORSDOF 12
ENDMDL
