MODEL 1
REMARK VINA RESULT:      -7.8      0.000      0.000
REMARK  Name = 
REMARK  6 active torsions:
REMARK  status: ('A' for Active; 'I' for Inactive)
REMARK    1  A    between atoms: C_1  and  N_2
REMARK    2  A    between atoms: N_5  and  C_6
REMARK    3  A    between atoms: C_6  and  C_7
REMARK    4  A    between atoms: C_7  and  C_8
REMARK    5  A    between atoms: C_8  and  N_9
REMARK    6  A    between atoms: C_13  and  C_14
REMARK                            x       y       z     vdW  Elec       q    Type
REMARK                         _______ _______ _______ _____ _____    ______ ____
ROOT
ATOM      1  N   UNL     1       0.679   9.764  18.959  0.00  0.00    +0.000 N 
ATOM      2  C   UNL     1       1.717   8.994  18.430  0.00  0.00    +0.000 C 
ATOM      3  O   UNL     1       2.187   9.140  17.304  0.00  0.00    +0.000 OA
ATOM      4  C   UNL     1       2.089   7.843  19.290  0.00  0.00    +0.000 C 
ATOM      5  C   UNL     1       2.272   6.670  18.666  0.00  0.00    +0.000 C 
ATOM      6  O   UNL     1       2.018   7.940  20.665  0.00  0.00    +0.000 OA
ATOM      7  C   UNL     1       1.129   8.850  21.171  0.00  0.00    +0.000 A 
ATOM      8  C   UNL     1       0.937   8.793  22.554  0.00  0.00    +0.000 A 
ATOM      9  C   UNL     1      -0.001   9.624  23.157  0.00  0.00    +0.000 A 
ATOM     10  C   UNL     1      -0.724  10.514  22.368  0.00  0.00    +0.000 A 
ATOM     11 CL   UNL     1      -1.885  11.547  23.109  0.00  0.00    +0.000 Cl
ATOM     12  C   UNL     1      -0.521  10.582  20.984  0.00  0.00    +0.000 A 
ATOM     13  C   UNL     1       0.406   9.740  20.360  0.00  0.00    +0.000 A 
ENDROOT
BRANCH   5  14
ATOM     14  C   UNL     1       2.308   5.416  19.414  0.00  0.00    +0.000 A 
ATOM     15  C   UNL     1       3.477   4.638  19.389  0.00  0.00    +0.000 A 
ATOM     16  C   UNL     1       3.509   3.404  20.034  0.00  0.00    +0.000 A 
ATOM     17  C   UNL     1       2.379   2.946  20.707  0.00  0.00    +0.000 A 
ATOM     18  C   UNL     1       1.217   3.724  20.742  0.00  0.00    +0.000 A 
ATOM     19  C   UNL     1       1.181   4.955  20.092  0.00  0.00    +0.000 A 
ENDBRANCH   5  14
BRANCH   1  20
ATOM     20  C   UNL     1      -0.135  10.496  17.999  0.00  0.00    +0.000 C 
BRANCH  20  21
ATOM     21  C   UNL     1      -1.299   9.661  17.429  0.00  0.00    +0.000 C 
BRANCH  21  22
ATOM     22  C   UNL     1      -2.693  10.047  17.955  0.00  0.00    +0.000 C 
BRANCH  22  27
ATOM     23  C   UNL     1      -6.844  11.877  19.721  0.00  0.00    +0.000 C 
ATOM     24  N   UNL     1      -5.667  12.162  18.909  0.00  0.00    +0.000 NA
ATOM     25  C   UNL     1      -5.614  11.304  17.709  0.00  0.00    +0.000 C 
ATOM     26  C   UNL     1      -4.325  11.525  16.873  0.00  0.00    +0.000 C 
ATOM     27  N   UNL     1      -3.057  11.442  17.638  0.00  0.00    +0.000 NA
ATOM     28  C   UNL     1      -3.190  12.321  18.819  0.00  0.00    +0.000 C 
ATOM     29  C   UNL     1      -4.429  12.019  19.690  0.00  0.00    +0.000 C 
ENDBRANCH  22  27
ENDBRANCH  21  22
ENDBRANCH  20  21
ENDBRANCH   1  20
TORSDOF 5
ENDMDL
MODEL 2
REMARK VINA RESULT:      -7.5      4.439      6.741
REMARK  Name = 
REMARK  6 active torsions:
REMARK  status: ('A' for Active; 'I' for Inactive)
REMARK    1  A    between atoms: C_1  and  N_2
REMARK    2  A    between atoms: N_5  and  C_6
REMARK    3  A    between atoms: C_6  and  C_7
REMARK    4  A    between atoms: C_7  and  C_8
REMARK    5  A    between atoms: C_8  and  N_9
REMARK    6  A    between atoms: C_13  and  C_14
REMARK                            x       y       z     vdW  Elec       q    Type
REMARK                         _______ _______ _______ _____ _____    ______ ____
ROOT
ATOM      1  N   UNL     1       4.048   6.117  18.109  0.00  0.00    +0.000 N 
ATOM      2  C   UNL     1       5.281   6.327  17.487  0.00  0.00    +0.000 C 
ATOM      3  O   UNL     1       5.966   7.338  17.624  0.00  0.00    +0.000 OA
ATOM      4  C   UNL     1       5.616   5.284  16.485  0.00  0.00    +0.000 C 
ATOM      5  C   UNL     1       6.107   5.721  15.315  0.00  0.00    +0.000 C 
ATOM      6  O   UNL     1       5.223   3.975  16.673  0.00  0.00    +0.000 OA
ATOM      7  C   UNL     1       4.118   3.772  17.455  0.00  0.00    +0.000 A 
ATOM      8  C   UNL     1       3.630   2.462  17.472  0.00  0.00    +0.000 A 
ATOM      9  C   UNL     1       2.468   2.167  18.176  0.00  0.00    +0.000 A 
ATOM     10  C   UNL     1       1.818   3.184  18.868  0.00  0.00    +0.000 A 
ATOM     11 CL   UNL     1       0.379   2.824  19.743  0.00  0.00    +0.000 Cl
ATOM     12  C   UNL     1       2.315   4.494  18.864  0.00  0.00    +0.000 A 
ATOM     13  C   UNL     1       3.473   4.811  18.146  0.00  0.00    +0.000 A 
ENDROOT
BRANCH   5  14
ATOM     14  C   UNL     1       6.160   4.848  14.147  0.00  0.00    +0.000 A 
ATOM     15  C   UNL     1       7.312   4.845  13.346  0.00  0.00    +0.000 A 
ATOM     16  C   UNL     1       7.356   4.075  12.186  0.00  0.00    +0.000 A 
ATOM     17  C   UNL     1       6.253   3.305  11.825  0.00  0.00    +0.000 A 
ATOM     18  C   UNL     1       5.108   3.297  12.627  0.00  0.00    +0.000 A 
ATOM     19  C   UNL     1       5.060   4.072  13.784  0.00  0.00    +0.000 A 
ENDBRANCH   5  14
BRANCH   1  20
ATOM     20  C   UNL     1       3.372   7.302  18.617  0.00  0.00    +0.000 C 
BRANCH  20  21
ATOM     21  C   UNL     1       2.558   8.046  17.539  0.00  0.00    +0.000 C 
BRANCH  21  22
ATOM     22  C   UNL     1       1.982   9.403  17.982  0.00  0.00    +0.000 C 
BRANCH  22  27
ATOM     23  C   UNL     1       0.230  13.209  20.460  0.00  0.00    +0.000 C 
ATOM     24  N   UNL     1      -0.016  11.825  20.073  0.00  0.00    +0.000 NA
ATOM     25  C   UNL     1       1.013  10.917  20.616  0.00  0.00    +0.000 C 
ATOM     26  C   UNL     1       0.825   9.450  20.145  0.00  0.00    +0.000 C 
ATOM     27  N   UNL     1       0.687   9.274  18.679  0.00  0.00    +0.000 NA
ATOM     28  C   UNL     1      -0.353  10.215  18.212  0.00  0.00    +0.000 C 
ATOM     29  C   UNL     1      -0.095  11.685  18.610  0.00  0.00    +0.000 C 
ENDBRANCH  22  27
ENDBRANCH  21  22
ENDBRANCH  20  21
ENDBRANCH   1  20
TORSDOF 5
ENDMDL
MODEL 3
REMARK VINA RESULT:      -7.4      4.442      6.637
REMARK  Name = 
REMARK  6 active torsions:
REMARK  status: ('A' for Active; 'I' for Inactive)
REMARK    1  A    between atoms: C_1  and  N_2
REMARK    2  A    between atoms: N_5  and  C_6
REMARK    3  A    between atoms: C_6  and  C_7
REMARK    4  A    between atoms: C_7  and  C_8
REMARK    5  A    between atoms: C_8  and  N_9
REMARK    6  A    between atoms: C_13  and  C_14
REMARK                            x       y       z     vdW  Elec       q    Type
REMARK                         _______ _______ _______ _____ _____    ______ ____
ROOT
ATOM      1  N   UNL     1       4.010   6.119  18.058  0.00  0.00    +0.000 N 
ATOM      2  C   UNL     1       5.243   6.337  17.439  0.00  0.00    +0.000 C 
ATOM      3  O   UNL     1       5.915   7.358  17.567  0.00  0.00    +0.000 OA
ATOM      4  C   UNL     1       5.595   5.288  16.450  0.00  0.00    +0.000 C 
ATOM      5  C   UNL     1       6.086   5.718  15.278  0.00  0.00    +0.000 C 
ATOM      6  O   UNL     1       5.217   3.976  16.651  0.00  0.00    +0.000 OA
ATOM      7  C   UNL     1       4.112   3.768  17.431  0.00  0.00    +0.000 A 
ATOM      8  C   UNL     1       3.639   2.453  17.460  0.00  0.00    +0.000 A 
ATOM      9  C   UNL     1       2.478   2.151  18.163  0.00  0.00    +0.000 A 
ATOM     10  C   UNL     1       1.813   3.167  18.840  0.00  0.00    +0.000 A 
ATOM     11 CL   UNL     1       0.374   2.800  19.713  0.00  0.00    +0.000 Cl
ATOM     12  C   UNL     1       2.293   4.483  18.823  0.00  0.00    +0.000 A 
ATOM     13  C   UNL     1       3.451   4.806  18.107  0.00  0.00    +0.000 A 
ENDROOT
BRANCH   5  14
ATOM     14  C   UNL     1       6.154   4.832  14.119  0.00  0.00    +0.000 A 
ATOM     15  C   UNL     1       7.313   4.829  13.327  0.00  0.00    +0.000 A 
ATOM     16  C   UNL     1       7.372   4.047  12.176  0.00  0.00    +0.000 A 
ATOM     17  C   UNL     1       6.277   3.264  11.815  0.00  0.00    +0.000 A 
ATOM     18  C   UNL     1       5.126   3.257  12.608  0.00  0.00    +0.000 A 
ATOM     19  C   UNL     1       5.063   4.043  13.756  0.00  0.00    +0.000 A 
ENDBRANCH   5  14
BRANCH   1  20
ATOM     20  C   UNL     1       3.318   7.301  18.550  0.00  0.00    +0.000 C 
BRANCH  20  21
ATOM     21  C   UNL     1       2.596   8.089  17.437  0.00  0.00    +0.000 C 
BRANCH  21  22
ATOM     22  C   UNL     1       1.380   8.908  17.907  0.00  0.00    +0.000 C 
BRANCH  22  27
ATOM     23  C   UNL     1      -2.049  11.932  19.578  0.00  0.00    +0.000 C 
ATOM     24  N   UNL     1      -0.676  11.474  19.755  0.00  0.00    +0.000 NA
ATOM     25  C   UNL     1       0.154  11.775  18.573  0.00  0.00    +0.000 C 
ATOM     26  C   UNL     1       1.597  11.220  18.699  0.00  0.00    +0.000 C 
ATOM     27  N   UNL     1       1.689   9.783  19.055  0.00  0.00    +0.000 NA
ATOM     28  C   UNL     1       0.832   9.561  20.239  0.00  0.00    +0.000 C 
ATOM     29  C   UNL     1      -0.626  10.035  20.056  0.00  0.00    +0.000 C 
ENDBRANCH  22  27
ENDBRANCH  21  22
ENDBRANCH  20  21
ENDBRANCH   1  20
TORSDOF 5
ENDMDL
MODEL 4
REMARK VINA RESULT:      -7.2      0.811      1.084
REMARK  Name = 
REMARK  6 active torsions:
REMARK  status: ('A' for Active; 'I' for Inactive)
REMARK    1  A    between atoms: C_1  and  N_2
REMARK    2  A    between atoms: N_5  and  C_6
REMARK    3  A    between atoms: C_6  and  C_7
REMARK    4  A    between atoms: C_7  and  C_8
REMARK    5  A    between atoms: C_8  and  N_9
REMARK    6  A    between atoms: C_13  and  C_14
REMARK                            x       y       z     vdW  Elec       q    Type
REMARK                         _______ _______ _______ _____ _____    ______ ____
ROOT
ATOM      1  N   UNL     1       0.476  10.064  19.107  0.00  0.00    +0.000 N 
ATOM      2  C   UNL     1       1.543   9.360  18.546  0.00  0.00    +0.000 C 
ATOM      3  O   UNL     1       1.994   9.560  17.420  0.00  0.00    +0.000 OA
ATOM      4  C   UNL     1       1.979   8.205  19.370  0.00  0.00    +0.000 C 
ATOM      5  C   UNL     1       2.212   7.060  18.710  0.00  0.00    +0.000 C 
ATOM      6  O   UNL     1       1.918   8.259  20.747  0.00  0.00    +0.000 OA
ATOM      7  C   UNL     1       0.992   9.110  21.287  0.00  0.00    +0.000 A 
ATOM      8  C   UNL     1       0.818   9.005  22.670  0.00  0.00    +0.000 A 
ATOM      9  C   UNL     1      -0.152   9.772  23.305  0.00  0.00    +0.000 A 
ATOM     10  C   UNL     1      -0.925  10.648  22.549  0.00  0.00    +0.000 A 
ATOM     11 CL   UNL     1      -2.128  11.602  23.330  0.00  0.00    +0.000 Cl
ATOM     12  C   UNL     1      -0.741  10.765  21.165  0.00  0.00    +0.000 A 
ATOM     13  C   UNL     1       0.219   9.987  20.509  0.00  0.00    +0.000 A 
ENDROOT
BRANCH   5  14
ATOM     14  C   UNL     1       2.317   5.789  19.421  0.00  0.00    +0.000 A 
ATOM     15  C   UNL     1       3.503   5.045  19.322  0.00  0.00    +0.000 A 
ATOM     16  C   UNL     1       3.599   3.796  19.931  0.00  0.00    +0.000 A 
ATOM     17  C   UNL     1       2.513   3.289  20.642  0.00  0.00    +0.000 A 
ATOM     18  C   UNL     1       1.334   4.033  20.751  0.00  0.00    +0.000 A 
ATOM     19  C   UNL     1       1.235   5.279  20.138  0.00  0.00    +0.000 A 
ENDBRANCH   5  14
BRANCH   1  20
ATOM     20  C   UNL     1      -0.383  10.782  18.176  0.00  0.00    +0.000 C 
BRANCH  20  21
ATOM     21  C   UNL     1      -1.730  10.075  17.923  0.00  0.00    +0.000 C 
BRANCH  21  22
ATOM     22  C   UNL     1      -2.971  10.977  18.054  0.00  0.00    +0.000 C 
BRANCH  22  27
ATOM     23  C   UNL     1      -7.349  12.965  18.813  0.00  0.00    +0.000 C 
ATOM     24  N   UNL     1      -6.616  11.946  18.071  0.00  0.00    +0.000 NA
ATOM     25  C   UNL     1      -6.025  10.937  18.970  0.00  0.00    +0.000 C 
ATOM     26  C   UNL     1      -5.165   9.891  18.213  0.00  0.00    +0.000 C 
ATOM     27  N   UNL     1      -4.135  10.460  17.309  0.00  0.00    +0.000 NA
ATOM     28  C   UNL     1      -4.801  11.459  16.447  0.00  0.00    +0.000 C 
ATOM     29  C   UNL     1      -5.572  12.547  17.226  0.00  0.00    +0.000 C 
ENDBRANCH  22  27
ENDBRANCH  21  22
ENDBRANCH  20  21
ENDBRANCH   1  20
TORSDOF 5
ENDMDL
MODEL 5
REMARK VINA RESULT:      -7.1      2.743      3.808
REMARK  Name = 
REMARK  6 active torsions:
REMARK  status: ('A' for Active; 'I' for Inactive)
REMARK    1  A    between atoms: C_1  and  N_2
REMARK    2  A    between atoms: N_5  and  C_6
REMARK    3  A    between atoms: C_6  and  C_7
REMARK    4  A    between atoms: C_7  and  C_8
REMARK    5  A    between atoms: C_8  and  N_9
REMARK    6  A    between atoms: C_13  and  C_14
REMARK                            x       y       z     vdW  Elec       q    Type
REMARK                         _______ _______ _______ _____ _____    ______ ____
ROOT
ATOM      1  N   UNL     1       0.459   9.926  19.094  0.00  0.00    +0.000 N 
ATOM      2  C   UNL     1       1.524   9.229  18.521  0.00  0.00    +0.000 C 
ATOM      3  O   UNL     1       1.947   9.416  17.382  0.00  0.00    +0.000 OA
ATOM      4  C   UNL     1       1.995   8.093  19.353  0.00  0.00    +0.000 C 
ATOM      5  C   UNL     1       2.229   6.941  18.707  0.00  0.00    +0.000 C 
ATOM      6  O   UNL     1       1.963   8.169  20.730  0.00  0.00    +0.000 OA
ATOM      7  C   UNL     1       1.036   9.016  21.277  0.00  0.00    +0.000 A 
ATOM      8  C   UNL     1       0.894   8.931  22.665  0.00  0.00    +0.000 A 
ATOM      9  C   UNL     1      -0.073   9.695  23.308  0.00  0.00    +0.000 A 
ATOM     10  C   UNL     1      -0.875  10.547  22.556  0.00  0.00    +0.000 A 
ATOM     11 CL   UNL     1      -2.074  11.497  23.348  0.00  0.00    +0.000 Cl
ATOM     12  C   UNL     1      -0.723  10.644  21.167  0.00  0.00    +0.000 A 
ATOM     13  C   UNL     1       0.234   9.869  20.502  0.00  0.00    +0.000 A 
ENDROOT
BRANCH   5  14
ATOM     14  C   UNL     1       2.368   5.683  19.436  0.00  0.00    +0.000 A 
ATOM     15  C   UNL     1       3.557   4.947  19.311  0.00  0.00    +0.000 A 
ATOM     16  C   UNL     1       3.683   3.710  19.938  0.00  0.00    +0.000 A 
ATOM     17  C   UNL     1       2.625   3.206  20.692  0.00  0.00    +0.000 A 
ATOM     18  C   UNL     1       1.444   3.943  20.827  0.00  0.00    +0.000 A 
ATOM     19  C   UNL     1       1.314   5.177  20.196  0.00  0.00    +0.000 A 
ENDBRANCH   5  14
BRANCH   1  20
ATOM     20  C   UNL     1      -0.430  10.617  18.171  0.00  0.00    +0.000 C 
BRANCH  20  21
ATOM     21  C   UNL     1      -0.459  12.144  18.383  0.00  0.00    +0.000 C 
BRANCH  21  22
ATOM     22  C   UNL     1       0.926  12.813  18.467  0.00  0.00    +0.000 C 
BRANCH  22  27
ATOM     23  C   UNL     1       1.238  17.634  17.871  0.00  0.00    +0.000 C 
ATOM     24  N   UNL     1       1.230  16.553  18.849  0.00  0.00    +0.000 NA
ATOM     25  C   UNL     1       2.378  15.645  18.665  0.00  0.00    +0.000 C 
ATOM     26  C   UNL     1       2.347  14.435  19.636  0.00  0.00    +0.000 C 
ATOM     27  N   UNL     1       1.072  13.678  19.655  0.00  0.00    +0.000 NA
ATOM     28  C   UNL     1      -0.024  14.652  19.839  0.00  0.00    +0.000 C 
ATOM     29  C   UNL     1      -0.029  15.795  18.800  0.00  0.00    +0.000 C 
ENDBRANCH  22  27
ENDBRANCH  21  22
ENDBRANCH  20  21
ENDBRANCH   1  20
TORSDOF 5
ENDMDL
MODEL 6
REMARK VINA RESULT:      -7.1      2.570      4.053
REMARK  Name = 
REMARK  6 active torsions:
REMARK  status: ('A' for Active; 'I' for Inactive)
REMARK    1  A    between atoms: C_1  and  N_2
REMARK    2  A    between atoms: N_5  and  C_6
REMARK    3  A    between atoms: C_6  and  C_7
REMARK    4  A    between atoms: C_7  and  C_8
REMARK    5  A    between atoms: C_8  and  N_9
REMARK    6  A    between atoms: C_13  and  C_14
REMARK                            x       y       z     vdW  Elec       q    Type
REMARK                         _______ _______ _______ _____ _____    ______ ____
ROOT
ATOM      1  N   UNL     1       0.462   9.840  19.048  0.00  0.00    +0.000 N 
ATOM      2  C   UNL     1       1.520   9.139  18.468  0.00  0.00    +0.000 C 
ATOM      3  O   UNL     1       1.927   9.318  17.321  0.00  0.00    +0.000 OA
ATOM      4  C   UNL     1       2.005   8.012  19.303  0.00  0.00    +0.000 C 
ATOM      5  C   UNL     1       2.233   6.855  18.665  0.00  0.00    +0.000 C 
ATOM      6  O   UNL     1       1.991   8.101  20.680  0.00  0.00    +0.000 OA
ATOM      7  C   UNL     1       1.071   8.951  21.231  0.00  0.00    +0.000 A 
ATOM      8  C   UNL     1       0.947   8.878  22.622  0.00  0.00    +0.000 A 
ATOM      9  C   UNL     1      -0.012   9.646  23.272  0.00  0.00    +0.000 A 
ATOM     10  C   UNL     1      -0.826  10.490  22.523  0.00  0.00    +0.000 A 
ATOM     11 CL   UNL     1      -2.016  11.445  23.322  0.00  0.00    +0.000 Cl
ATOM     12  C   UNL     1      -0.693  10.574  21.131  0.00  0.00    +0.000 A 
ATOM     13  C   UNL     1       0.256   9.795  20.460  0.00  0.00    +0.000 A 
ENDROOT
BRANCH   5  14
ATOM     14  C   UNL     1       2.384   5.604  19.403  0.00  0.00    +0.000 A 
ATOM     15  C   UNL     1       3.557   4.850  19.240  0.00  0.00    +0.000 A 
ATOM     16  C   UNL     1       3.691   3.619  19.876  0.00  0.00    +0.000 A 
ATOM     17  C   UNL     1       2.658   3.139  20.678  0.00  0.00    +0.000 A 
ATOM     18  C   UNL     1       1.493   3.893  20.851  0.00  0.00    +0.000 A 
ATOM     19  C   UNL     1       1.354   5.121  20.210  0.00  0.00    +0.000 A 
ENDBRANCH   5  14
BRANCH   1  20
ATOM     20  C   UNL     1      -0.441  10.521  18.131  0.00  0.00    +0.000 C 
BRANCH  20  21
ATOM     21  C   UNL     1      -0.799  11.952  18.582  0.00  0.00    +0.000 C 
BRANCH  21  22
ATOM     22  C   UNL     1       0.278  13.013  18.291  0.00  0.00    +0.000 C 
BRANCH  22  27
ATOM     23  C   UNL     1       3.205  16.783  19.247  0.00  0.00    +0.000 C 
ATOM     24  N   UNL     1       3.022  15.346  19.410  0.00  0.00    +0.000 NA
ATOM     25  C   UNL     1       3.010  14.648  18.111  0.00  0.00    +0.000 C 
ATOM     26  C   UNL     1       2.728  13.128  18.250  0.00  0.00    +0.000 C 
ATOM     27  N   UNL     1       1.525  12.783  19.046  0.00  0.00    +0.000 NA
ATOM     28  C   UNL     1       1.609  13.520  20.325  0.00  0.00    +0.000 C 
ATOM     29  C   UNL     1       1.793  15.044  20.160  0.00  0.00    +0.000 C 
ENDBRANCH  22  27
ENDBRANCH  21  22
ENDBRANCH  20  21
ENDBRANCH   1  20
TORSDOF 5
ENDMDL
MODEL 7
REMARK VINA RESULT:      -7.0      4.498      6.770
REMARK  Name = 
REMARK  6 active torsions:
REMARK  status: ('A' for Active; 'I' for Inactive)
REMARK    1  A    between atoms: C_1  and  N_2
REMARK    2  A    between atoms: N_5  and  C_6
REMARK    3  A    between atoms: C_6  and  C_7
REMARK    4  A    between atoms: C_7  and  C_8
REMARK    5  A    between atoms: C_8  and  N_9
REMARK    6  A    between atoms: C_13  and  C_14
REMARK                            x       y       z     vdW  Elec       q    Type
REMARK                         _______ _______ _______ _____ _____    ______ ____
ROOT
ATOM      1  N   UNL     1       4.293   5.922  18.153  0.00  0.00    +0.000 N 
ATOM      2  C   UNL     1       5.506   6.081  17.481  0.00  0.00    +0.000 C 
ATOM      3  O   UNL     1       6.271   7.030  17.640  0.00  0.00    +0.000 OA
ATOM      4  C   UNL     1       5.715   5.080  16.405  0.00  0.00    +0.000 C 
ATOM      5  C   UNL     1       6.181   5.552  15.238  0.00  0.00    +0.000 C 
ATOM      6  O   UNL     1       5.235   3.794  16.537  0.00  0.00    +0.000 OA
ATOM      7  C   UNL     1       4.156   3.623  17.363  0.00  0.00    +0.000 A 
ATOM      8  C   UNL     1       3.572   2.353  17.330  0.00  0.00    +0.000 A 
ATOM      9  C   UNL     1       2.427   2.100  18.075  0.00  0.00    +0.000 A 
ATOM     10  C   UNL     1       1.888   3.116  18.856  0.00  0.00    +0.000 A 
ATOM     11 CL   UNL     1       0.469   2.808  19.783  0.00  0.00    +0.000 Cl
ATOM     12  C   UNL     1       2.480   4.385  18.902  0.00  0.00    +0.000 A 
ATOM     13  C   UNL     1       3.624   4.661  18.144  0.00  0.00    +0.000 A 
ENDROOT
BRANCH   5  14
ATOM     14  C   UNL     1       6.113   4.749  14.020  0.00  0.00    +0.000 A 
ATOM     15  C   UNL     1       4.919   4.080  13.708  0.00  0.00    +0.000 A 
ATOM     16  C   UNL     1       4.854   3.250  12.591  0.00  0.00    +0.000 A 
ATOM     17  C   UNL     1       5.977   3.090  11.783  0.00  0.00    +0.000 A 
ATOM     18  C   UNL     1       7.164   3.764  12.086  0.00  0.00    +0.000 A 
ATOM     19  C   UNL     1       7.233   4.589  13.206  0.00  0.00    +0.000 A 
ENDBRANCH   5  14
BRANCH   1  20
ATOM     20  C   UNL     1       3.732   7.119  18.762  0.00  0.00    +0.000 C 
BRANCH  20  21
ATOM     21  C   UNL     1       2.821   7.918  17.808  0.00  0.00    +0.000 C 
BRANCH  21  22
ATOM     22  C   UNL     1       1.548   8.494  18.455  0.00  0.00    +0.000 C 
BRANCH  22  27
ATOM     23  C   UNL     1      -0.927  11.679  21.179  0.00  0.00    +0.000 C 
ATOM     24  N   UNL     1      -0.354  11.432  19.862  0.00  0.00    +0.000 NA
ATOM     25  C   UNL     1      -0.989  10.276  19.201  0.00  0.00    +0.000 C 
ATOM     26  C   UNL     1      -0.337   9.935  17.834  0.00  0.00    +0.000 C 
ATOM     27  N   UNL     1       1.138   9.782  17.863  0.00  0.00    +0.000 NA
ATOM     28  C   UNL     1       1.697  10.971  18.540  0.00  0.00    +0.000 C 
ATOM     29  C   UNL     1       1.102  11.234  19.940  0.00  0.00    +0.000 C 
ENDBRANCH  22  27
ENDBRANCH  21  22
ENDBRANCH  20  21
ENDBRANCH   1  20
TORSDOF 5
ENDMDL
MODEL 8
REMARK VINA RESULT:      -7.0      0.732      1.274
REMARK  Name = 
REMARK  6 active torsions:
REMARK  status: ('A' for Active; 'I' for Inactive)
REMARK    1  A    between atoms: C_1  and  N_2
REMARK    2  A    between atoms: N_5  and  C_6
REMARK    3  A    between atoms: C_6  and  C_7
REMARK    4  A    between atoms: C_7  and  C_8
REMARK    5  A    between atoms: C_8  and  N_9
REMARK    6  A    between atoms: C_13  and  C_14
REMARK                            x       y       z     vdW  Elec       q    Type
REMARK                         _______ _______ _______ _____ _____    ______ ____
ROOT
ATOM      1  N   UNL     1       0.626   9.598  18.974  0.00  0.00    +0.000 N 
ATOM      2  C   UNL     1       1.674   8.855  18.428  0.00  0.00    +0.000 C 
ATOM      3  O   UNL     1       2.095   8.983  17.280  0.00  0.00    +0.000 OA
ATOM      4  C   UNL     1       2.127   7.749  19.308  0.00  0.00    +0.000 C 
ATOM      5  C   UNL     1       2.336   6.564  18.713  0.00  0.00    +0.000 C 
ATOM      6  O   UNL     1       2.104   7.887  20.681  0.00  0.00    +0.000 OA
ATOM      7  C   UNL     1       1.197   8.776  21.193  0.00  0.00    +0.000 A 
ATOM      8  C   UNL     1       1.061   8.756  22.584  0.00  0.00    +0.000 A 
ATOM      9  C   UNL     1       0.112   9.567  23.197  0.00  0.00    +0.000 A 
ATOM     10  C   UNL     1      -0.677  10.400  22.410  0.00  0.00    +0.000 A 
ATOM     11 CL   UNL     1      -1.853  11.408  23.164  0.00  0.00    +0.000 Cl
ATOM     12  C   UNL     1      -0.530  10.431  21.018  0.00  0.00    +0.000 A 
ATOM     13  C   UNL     1       0.408   9.608  20.384  0.00  0.00    +0.000 A 
ENDROOT
BRANCH   5  14
ATOM     14  C   UNL     1       2.454   5.338  19.497  0.00  0.00    +0.000 A 
ATOM     15  C   UNL     1       3.605   4.546  19.359  0.00  0.00    +0.000 A 
ATOM     16  C   UNL     1       3.707   3.336  20.041  0.00  0.00    +0.000 A 
ATOM     17  C   UNL     1       2.663   2.915  20.864  0.00  0.00    +0.000 A 
ATOM     18  C   UNL     1       1.521   3.708  21.011  0.00  0.00    +0.000 A 
ATOM     19  C   UNL     1       1.415   4.916  20.325  0.00  0.00    +0.000 A 
ENDBRANCH   5  14
BRANCH   1  20
ATOM     20  C   UNL     1      -0.254  10.264  18.024  0.00  0.00    +0.000 C 
BRANCH  20  21
ATOM     21  C   UNL     1      -0.604  11.710  18.431  0.00  0.00    +0.000 C 
BRANCH  21  22
ATOM     22  C   UNL     1      -2.031  12.160  18.067  0.00  0.00    +0.000 C 
BRANCH  22  27
ATOM     23  C   UNL     1      -6.710  13.076  17.089  0.00  0.00    +0.000 C 
ATOM     24  N   UNL     1      -5.792  12.178  17.779  0.00  0.00    +0.000 NA
ATOM     25  C   UNL     1      -5.040  12.878  18.838  0.00  0.00    +0.000 C 
ATOM     26  C   UNL     1      -3.991  11.968  19.529  0.00  0.00    +0.000 C 
ATOM     27  N   UNL     1      -3.069  11.260  18.608  0.00  0.00    +0.000 NA
ATOM     28  C   UNL     1      -3.892  10.591  17.579  0.00  0.00    +0.000 C 
ATOM     29  C   UNL     1      -4.861  11.536  16.837  0.00  0.00    +0.000 C 
ENDBRANCH  22  27
ENDBRANCH  21  22
ENDBRANCH  20  21
ENDBRANCH   1  20
TORSDOF 5
ENDMDL
MODEL 9
REMARK VINA RESULT:      -7.0      3.209      8.309
REMARK  Name = 
REMARK  6 active torsions:
REMARK  status: ('A' for Active; 'I' for Inactive)
REMARK    1  A    between atoms: C_1  and  N_2
REMARK    2  A    between atoms: N_5  and  C_6
REMARK    3  A    between atoms: C_6  and  C_7
REMARK    4  A    between atoms: C_7  and  C_8
REMARK    5  A    between atoms: C_8  and  N_9
REMARK    6  A    between atoms: C_13  and  C_14
REMARK                            x       y       z     vdW  Elec       q    Type
REMARK                         _______ _______ _______ _____ _____    ______ ____
ROOT
ATOM      1  N   UNL     1       0.067  10.216  19.901  0.00  0.00    +0.000 N 
ATOM      2  C   UNL     1       0.466  11.051  20.947  0.00  0.00    +0.000 C 
ATOM      3  O   UNL     1       1.519  10.932  21.569  0.00  0.00    +0.000 OA
ATOM      4  C   UNL     1      -0.592  12.001  21.373  0.00  0.00    +0.000 C 
ATOM      5  C   UNL     1      -0.772  12.135  22.696  0.00  0.00    +0.000 C 
ATOM      6  O   UNL     1      -1.479  12.524  20.455  0.00  0.00    +0.000 OA
ATOM      7  C   UNL     1      -1.710  11.779  19.331  0.00  0.00    +0.000 A 
ATOM      8  C   UNL     1      -2.750  12.234  18.514  0.00  0.00    +0.000 A 
ATOM      9  C   UNL     1      -3.114  11.505  17.388  0.00  0.00    +0.000 A 
ATOM     10  C   UNL     1      -2.422  10.338  17.083  0.00  0.00    +0.000 A 
ATOM     11 CL   UNL     1      -2.867   9.431  15.688  0.00  0.00    +0.000 Cl
ATOM     12  C   UNL     1      -1.370   9.889  17.893  0.00  0.00    +0.000 A 
ATOM     13  C   UNL     1      -1.003  10.601  19.040  0.00  0.00    +0.000 A 
ENDROOT
BRANCH   5  14
ATOM     14  C   UNL     1      -1.975  12.765  23.233  0.00  0.00    +0.000 A 
ATOM     15  C   UNL     1      -1.936  14.121  23.590  0.00  0.00    +0.000 A 
ATOM     16  C   UNL     1      -3.049  14.724  24.173  0.00  0.00    +0.000 A 
ATOM     17  C   UNL     1      -4.202  13.975  24.396  0.00  0.00    +0.000 A 
ATOM     18  C   UNL     1      -4.247  12.626  24.031  0.00  0.00    +0.000 A 
ATOM     19  C   UNL     1      -3.133  12.021  23.454  0.00  0.00    +0.000 A 
ENDBRANCH   5  14
BRANCH   1  20
ATOM     20  C   UNL     1       0.738   8.926  19.815  0.00  0.00    +0.000 C 
BRANCH  20  21
ATOM     21  C   UNL     1       1.848   8.890  18.745  0.00  0.00    +0.000 C 
BRANCH  21  22
ATOM     22  C   UNL     1       2.158   7.491  18.179  0.00  0.00    +0.000 C 
BRANCH  22  27
ATOM     23  C   UNL     1       2.582   2.692  17.483  0.00  0.00    +0.000 C 
ATOM     24  N   UNL     1       3.032   3.824  18.285  0.00  0.00    +0.000 NA
ATOM     25  C   UNL     1       1.920   4.431  19.041  0.00  0.00    +0.000 C 
ATOM     26  C   UNL     1       2.353   5.692  19.835  0.00  0.00    +0.000 C 
ATOM     27  N   UNL     1       3.073   6.717  19.040  0.00  0.00    +0.000 NA
ATOM     28  C   UNL     1       4.163   6.034  18.313  0.00  0.00    +0.000 C 
ATOM     29  C   UNL     1       3.694   4.841  17.453  0.00  0.00    +0.000 C 
ENDBRANCH  22  27
ENDBRANCH  21  22
ENDBRANCH  20  21
ENDBRANCH   1  20
TORSDOF 5
ENDMDL
