MODEL 1
REMARK VINA RESULT:      -8.2      0.000      0.000
REMARK  Name = 
REMARK  6 active torsions:
REMARK  status: ('A' for Active; 'I' for Inactive)
REMARK    1  A    between atoms: C_1  and  C_2
REMARK    2  A    between atoms: C_6  and  N_7
REMARK    3  A    between atoms: N_7  and  C_8
REMARK    4  A    between atoms: C_8  and  N_10
REMARK    5  A    between atoms: C_13  and  N_14
REMARK    6  A    between atoms: C_15  and  C_17
REMARK                            x       y       z     vdW  Elec       q    Type
REMARK                         _______ _______ _______ _____ _____    ______ ____
ROOT
ATOM      1  N   UNL     1       3.061   5.349  18.818  0.00  0.00    +0.000 N 
ATOM      2  C   UNL     1       3.017   4.047  18.139  0.00  0.00    +0.000 C 
ATOM      3  C   UNL     1       4.253   3.214  18.481  0.00  0.00    +0.000 C 
ATOM      4  C   UNL     1       5.551   3.978  18.186  0.00  0.00    +0.000 C 
ATOM      5  C   UNL     1       5.544   5.333  18.901  0.00  0.00    +0.000 C 
ATOM      6  C   UNL     1       4.281   6.130  18.592  0.00  0.00    +0.000 C 
ENDROOT
BRANCH   4   7
ATOM      7  N   UNL     1       5.767   4.143  16.752  0.00  0.00    +0.000 N 
ATOM      8  C   UNL     1       7.006   4.370  16.190  0.00  0.00    +0.000 C 
ATOM      9  O   UNL     1       8.024   4.498  16.859  0.00  0.00    +0.000 OA
ATOM     10  H   UNL     1       5.016   3.962  16.095  0.00  0.00    +0.000 HD
BRANCH   8  11
ATOM     11  C   UNL     1       6.982   4.435  14.741  0.00  0.00    +0.000 A 
ATOM     12  C   UNL     1       6.216   3.760  13.810  0.00  0.00    +0.000 A 
ATOM     13  C   UNL     1       6.618   4.222  12.534  0.00  0.00    +0.000 A 
ATOM     14  C   UNL     1       7.605   5.153  12.758  0.00  0.00    +0.000 A 
ATOM     15  O   UNL     1       7.835   5.294  14.089  0.00  0.00    +0.000 OA
ENDBRANCH   8  11
ENDBRANCH   4   7
BRANCH   1  16
ATOM     16  C   UNL     1       2.160   5.623  19.867  0.00  0.00    +0.000 C 
ATOM     17  S   UNL     1       1.036   4.506  20.414  0.00  0.00    +0.000 S 
BRANCH  16  18
ATOM     18  N   UNL     1       2.406   6.890  20.387  0.00  0.00    +0.000 N 
ATOM     19  H   UNL     1       3.309   6.946  20.839  0.00  0.00    +0.000 HD
BRANCH  18  25
ATOM     20  C   UNL     1      -0.624   9.872  22.964  0.00  0.00    +0.000 C 
ATOM     21  C   UNL     1       0.077   9.527  21.685  0.00  0.00    +0.000 A 
ATOM     22  C   UNL     1      -0.133  10.257  20.513  0.00  0.00    +0.000 A 
ATOM     23  C   UNL     1       0.522   9.891  19.339  0.00  0.00    +0.000 A 
ATOM     24  C   UNL     1       1.385   8.790  19.332  0.00  0.00    +0.000 A 
ATOM     25  C   UNL     1       1.605   8.044  20.498  0.00  0.00    +0.000 A 
ATOM     26  C   UNL     1       0.943   8.423  21.665  0.00  0.00    +0.000 A 
ENDBRANCH  18  25
ENDBRANCH  16  18
ENDBRANCH   1  16
TORSDOF 5
ENDMDL
MODEL 2
REMARK VINA RESULT:      -8.0      0.835      1.009
REMARK  Name = 
REMARK  6 active torsions:
REMARK  status: ('A' for Active; 'I' for Inactive)
REMARK    1  A    between atoms: C_1  and  C_2
REMARK    2  A    between atoms: C_6  and  N_7
REMARK    3  A    between atoms: N_7  and  C_8
REMARK    4  A    between atoms: C_8  and  N_10
REMARK    5  A    between atoms: C_13  and  N_14
REMARK    6  A    between atoms: C_15  and  C_17
REMARK                            x       y       z     vdW  Elec       q    Type
REMARK                         _______ _______ _______ _____ _____    ______ ____
ROOT
ATOM      1  N   UNL     1       2.978   5.331  18.629  0.00  0.00    +0.000 N 
ATOM      2  C   UNL     1       3.771   4.098  18.542  0.00  0.00    +0.000 C 
ATOM      3  C   UNL     1       5.264   4.403  18.664  0.00  0.00    +0.000 C 
ATOM      4  C   UNL     1       5.714   5.455  17.641  0.00  0.00    +0.000 C 
ATOM      5  C   UNL     1       4.849   6.715  17.759  0.00  0.00    +0.000 C 
ATOM      6  C   UNL     1       3.361   6.388  17.688  0.00  0.00    +0.000 C 
ENDROOT
BRANCH   4   7
ATOM      7  N   UNL     1       5.692   4.929  16.280  0.00  0.00    +0.000 N 
ATOM      8  C   UNL     1       6.682   5.178  15.352  0.00  0.00    +0.000 C 
ATOM      9  O   UNL     1       7.642   5.902  15.584  0.00  0.00    +0.000 OA
ATOM     10  H   UNL     1       4.999   4.242  16.007  0.00  0.00    +0.000 HD
BRANCH   8  11
ATOM     11  C   UNL     1       6.476   4.496  14.088  0.00  0.00    +0.000 A 
ATOM     12  C   UNL     1       5.450   3.680  13.648  0.00  0.00    +0.000 A 
ATOM     13  C   UNL     1       5.772   3.293  12.326  0.00  0.00    +0.000 A 
ATOM     14  C   UNL     1       6.973   3.894  12.032  0.00  0.00    +0.000 A 
ATOM     15  O   UNL     1       7.410   4.627  13.089  0.00  0.00    +0.000 OA
ENDBRANCH   8  11
ENDBRANCH   4   7
BRANCH   1  16
ATOM     16  C   UNL     1       2.177   5.570  19.764  0.00  0.00    +0.000 C 
ATOM     17  S   UNL     1       1.132   4.422  20.396  0.00  0.00    +0.000 S 
BRANCH  16  18
ATOM     18  N   UNL     1       2.449   6.833  20.281  0.00  0.00    +0.000 N 
ATOM     19  H   UNL     1       3.374   6.886  20.687  0.00  0.00    +0.000 HD
BRANCH  18  25
ATOM     20  C   UNL     1      -0.576   9.708  22.983  0.00  0.00    +0.000 C 
ATOM     21  C   UNL     1       0.129   9.419  21.691  0.00  0.00    +0.000 A 
ATOM     22  C   UNL     1      -0.072  10.205  20.555  0.00  0.00    +0.000 A 
ATOM     23  C   UNL     1       0.587   9.891  19.368  0.00  0.00    +0.000 A 
ATOM     24  C   UNL     1       1.443   8.786  19.313  0.00  0.00    +0.000 A 
ATOM     25  C   UNL     1       1.654   7.985  20.444  0.00  0.00    +0.000 A 
ATOM     26  C   UNL     1       0.989   8.312  21.624  0.00  0.00    +0.000 A 
ENDBRANCH  18  25
ENDBRANCH  16  18
ENDBRANCH   1  16
TORSDOF 5
ENDMDL
MODEL 3
REMARK VINA RESULT:      -7.9      0.355      1.371
REMARK  Name = 
REMARK  6 active torsions:
REMARK  status: ('A' for Active; 'I' for Inactive)
REMARK    1  A    between atoms: C_1  and  C_2
REMARK    2  A    between atoms: C_6  and  N_7
REMARK    3  A    between atoms: N_7  and  C_8
REMARK    4  A    between atoms: C_8  and  N_10
REMARK    5  A    between atoms: C_13  and  N_14
REMARK    6  A    between atoms: C_15  and  C_17
REMARK                            x       y       z     vdW  Elec       q    Type
REMARK                         _______ _______ _______ _____ _____    ______ ____
ROOT
ATOM      1  N   UNL     1       3.057   5.313  18.855  0.00  0.00    +0.000 N 
ATOM      2  C   UNL     1       3.012   4.020  18.161  0.00  0.00    +0.000 C 
ATOM      3  C   UNL     1       4.244   3.180  18.496  0.00  0.00    +0.000 C 
ATOM      4  C   UNL     1       5.545   3.943  18.214  0.00  0.00    +0.000 C 
ATOM      5  C   UNL     1       5.540   5.291  18.944  0.00  0.00    +0.000 C 
ATOM      6  C   UNL     1       4.279   6.094  18.641  0.00  0.00    +0.000 C 
ENDROOT
BRANCH   4   7
ATOM      7  N   UNL     1       5.765   4.124  16.783  0.00  0.00    +0.000 N 
ATOM      8  C   UNL     1       7.002   4.390  16.231  0.00  0.00    +0.000 C 
ATOM      9  O   UNL     1       8.012   4.542  16.907  0.00  0.00    +0.000 OA
ATOM     10  H   UNL     1       5.024   3.927  16.120  0.00  0.00    +0.000 HD
BRANCH   8  11
ATOM     11  C   UNL     1       6.985   4.465  14.781  0.00  0.00    +0.000 A 
ATOM     12  C   UNL     1       6.208   3.812  13.843  0.00  0.00    +0.000 A 
ATOM     13  C   UNL     1       6.626   4.273  12.572  0.00  0.00    +0.000 A 
ATOM     14  C   UNL     1       7.632   5.181  12.805  0.00  0.00    +0.000 A 
ATOM     15  O   UNL     1       7.859   5.308  14.139  0.00  0.00    +0.000 OA
ENDBRANCH   8  11
ENDBRANCH   4   7
BRANCH   1  16
ATOM     16  C   UNL     1       2.154   5.577  19.904  0.00  0.00    +0.000 C 
ATOM     17  S   UNL     1       1.108   4.419  20.516  0.00  0.00    +0.000 S 
BRANCH  16  18
ATOM     18  N   UNL     1       2.328   6.878  20.366  0.00  0.00    +0.000 N 
ATOM     19  H   UNL     1       3.234   7.011  20.796  0.00  0.00    +0.000 HD
BRANCH  18  25
ATOM     20  C   UNL     1       0.591  11.207  18.644  0.00  0.00    +0.000 C 
ATOM     21  C   UNL     1       0.589  10.131  19.688  0.00  0.00    +0.000 A 
ATOM     22  C   UNL     1      -0.181  10.236  20.848  0.00  0.00    +0.000 A 
ATOM     23  C   UNL     1      -0.139   9.223  21.804  0.00  0.00    +0.000 A 
ATOM     24  C   UNL     1       0.676   8.104  21.604  0.00  0.00    +0.000 A 
ATOM     25  C   UNL     1       1.456   7.983  20.446  0.00  0.00    +0.000 A 
ATOM     26  C   UNL     1       1.404   9.004  19.500  0.00  0.00    +0.000 A 
ENDBRANCH  18  25
ENDBRANCH  16  18
ENDBRANCH   1  16
TORSDOF 5
ENDMDL
MODEL 4
REMARK VINA RESULT:      -7.5      1.049      1.856
REMARK  Name = 
REMARK  6 active torsions:
REMARK  status: ('A' for Active; 'I' for Inactive)
REMARK    1  A    between atoms: C_1  and  C_2
REMARK    2  A    between atoms: C_6  and  N_7
REMARK    3  A    between atoms: N_7  and  C_8
REMARK    4  A    between atoms: C_8  and  N_10
REMARK    5  A    between atoms: C_13  and  N_14
REMARK    6  A    between atoms: C_15  and  C_17
REMARK                            x       y       z     vdW  Elec       q    Type
REMARK                         _______ _______ _______ _____ _____    ______ ____
ROOT
ATOM      1  N   UNL     1       3.076   5.220  18.528  0.00  0.00    +0.000 N 
ATOM      2  C   UNL     1       3.717   3.908  18.375  0.00  0.00    +0.000 C 
ATOM      3  C   UNL     1       5.236   4.029  18.496  0.00  0.00    +0.000 C 
ATOM      4  C   UNL     1       5.803   5.067  17.519  0.00  0.00    +0.000 C 
ATOM      5  C   UNL     1       5.094   6.413  17.703  0.00  0.00    +0.000 C 
ATOM      6  C   UNL     1       3.577   6.268  17.633  0.00  0.00    +0.000 C 
ENDROOT
BRANCH   4   7
ATOM      7  N   UNL     1       5.712   4.613  16.135  0.00  0.00    +0.000 N 
ATOM      8  C   UNL     1       6.658   4.907  15.174  0.00  0.00    +0.000 C 
ATOM      9  O   UNL     1       7.632   5.615  15.396  0.00  0.00    +0.000 OA
ATOM     10  H   UNL     1       5.003   3.943  15.860  0.00  0.00    +0.000 HD
BRANCH   8  11
ATOM     11  C   UNL     1       6.387   4.292  13.888  0.00  0.00    +0.000 A 
ATOM     12  C   UNL     1       7.222   3.982  12.830  0.00  0.00    +0.000 A 
ATOM     13  C   UNL     1       6.414   3.393  11.829  0.00  0.00    +0.000 A 
ATOM     14  C   UNL     1       5.134   3.374  12.331  0.00  0.00    +0.000 A 
ATOM     15  O   UNL     1       5.103   3.914  13.578  0.00  0.00    +0.000 OA
ENDBRANCH   8  11
ENDBRANCH   4   7
BRANCH   1  16
ATOM     16  C   UNL     1       2.314   5.498  19.680  0.00  0.00    +0.000 C 
ATOM     17  S   UNL     1       1.373   4.342  20.448  0.00  0.00    +0.000 S 
BRANCH  16  18
ATOM     18  N   UNL     1       2.528   6.811  20.088  0.00  0.00    +0.000 N 
ATOM     19  H   UNL     1       3.486   6.968  20.376  0.00  0.00    +0.000 HD
BRANCH  18  25
ATOM     20  C   UNL     1       0.574  11.145  18.634  0.00  0.00    +0.000 C 
ATOM     21  C   UNL     1       0.691  10.051  19.652  0.00  0.00    +0.000 A 
ATOM     22  C   UNL     1       0.043  10.125  20.887  0.00  0.00    +0.000 A 
ATOM     23  C   UNL     1       0.194   9.096  21.814  0.00  0.00    +0.000 A 
ATOM     24  C   UNL     1       0.998   7.992  21.511  0.00  0.00    +0.000 A 
ATOM     25  C   UNL     1       1.657   7.902  20.278  0.00  0.00    +0.000 A 
ATOM     26  C   UNL     1       1.497   8.939  19.361  0.00  0.00    +0.000 A 
ENDBRANCH  18  25
ENDBRANCH  16  18
ENDBRANCH   1  16
TORSDOF 5
ENDMDL
MODEL 5
REMARK VINA RESULT:      -7.2      3.121      8.259
REMARK  Name = 
REMARK  6 active torsions:
REMARK  status: ('A' for Active; 'I' for Inactive)
REMARK    1  A    between atoms: C_1  and  C_2
REMARK    2  A    between atoms: C_6  and  N_7
REMARK    3  A    between atoms: N_7  and  C_8
REMARK    4  A    between atoms: C_8  and  N_10
REMARK    5  A    between atoms: C_13  and  N_14
REMARK    6  A    between atoms: C_15  and  C_17
REMARK                            x       y       z     vdW  Elec       q    Type
REMARK                         _______ _______ _______ _____ _____    ______ ____
ROOT
ATOM      1  N   UNL     1       3.559   4.389  19.032  0.00  0.00    +0.000 N 
ATOM      2  C   UNL     1       2.112   4.587  18.881  0.00  0.00    +0.000 C 
ATOM      3  C   UNL     1       1.819   5.706  17.881  0.00  0.00    +0.000 C 
ATOM      4  C   UNL     1       2.544   7.006  18.256  0.00  0.00    +0.000 C 
ATOM      5  C   UNL     1       4.046   6.748  18.420  0.00  0.00    +0.000 C 
ATOM      6  C   UNL     1       4.321   5.593  19.378  0.00  0.00    +0.000 C 
ENDROOT
BRANCH   4   7
ATOM      7  N   UNL     1       1.983   7.610  19.459  0.00  0.00    +0.000 N 
ATOM      8  C   UNL     1       1.432   8.876  19.489  0.00  0.00    +0.000 C 
ATOM      9  O   UNL     1       1.412   9.614  18.512  0.00  0.00    +0.000 OA
ATOM     10  H   UNL     1       1.857   7.059  20.301  0.00  0.00    +0.000 HD
BRANCH   8  11
ATOM     11  C   UNL     1       0.879   9.236  20.781  0.00  0.00    +0.000 A 
ATOM     12  C   UNL     1       1.215   8.837  22.061  0.00  0.00    +0.000 A 
ATOM     13  C   UNL     1       0.338   9.510  22.945  0.00  0.00    +0.000 A 
ATOM     14  C   UNL     1      -0.482  10.282  22.156  0.00  0.00    +0.000 A 
ATOM     15  O   UNL     1      -0.165  10.127  20.844  0.00  0.00    +0.000 OA
ENDBRANCH   8  11
ENDBRANCH   4   7
BRANCH   1  16
ATOM     16  C   UNL     1       4.164   3.220  18.529  0.00  0.00    +0.000 C 
ATOM     17  S   UNL     1       3.381   1.738  18.489  0.00  0.00    +0.000 S 
BRANCH  16  18
ATOM     18  N   UNL     1       5.429   3.514  18.031  0.00  0.00    +0.000 N 
ATOM     19  H   UNL     1       6.147   3.417  18.738  0.00  0.00    +0.000 HD
BRANCH  18  25
ATOM     20  C   UNL     1       5.322   3.595  13.061  0.00  0.00    +0.000 C 
ATOM     21  C   UNL     1       5.905   4.080  14.355  0.00  0.00    +0.000 A 
ATOM     22  C   UNL     1       6.994   4.953  14.387  0.00  0.00    +0.000 A 
ATOM     23  C   UNL     1       7.520   5.363  15.611  0.00  0.00    +0.000 A 
ATOM     24  C   UNL     1       6.961   4.897  16.805  0.00  0.00    +0.000 A 
ATOM     25  C   UNL     1       5.869   4.018  16.791  0.00  0.00    +0.000 A 
ATOM     26  C   UNL     1       5.354   3.617  15.560  0.00  0.00    +0.000 A 
ENDBRANCH  18  25
ENDBRANCH  16  18
ENDBRANCH   1  16
TORSDOF 5
ENDMDL
MODEL 6
REMARK VINA RESULT:      -6.9      1.277      1.923
REMARK  Name = 
REMARK  6 active torsions:
REMARK  status: ('A' for Active; 'I' for Inactive)
REMARK    1  A    between atoms: C_1  and  C_2
REMARK    2  A    between atoms: C_6  and  N_7
REMARK    3  A    between atoms: N_7  and  C_8
REMARK    4  A    between atoms: C_8  and  N_10
REMARK    5  A    between atoms: C_13  and  N_14
REMARK    6  A    between atoms: C_15  and  C_17
REMARK                            x       y       z     vdW  Elec       q    Type
REMARK                         _______ _______ _______ _____ _____    ______ ____
ROOT
ATOM      1  N   UNL     1       3.137   6.463  18.118  0.00  0.00    +0.000 N 
ATOM      2  C   UNL     1       2.913   5.086  17.661  0.00  0.00    +0.000 C 
ATOM      3  C   UNL     1       4.046   4.169  18.126  0.00  0.00    +0.000 C 
ATOM      4  C   UNL     1       5.420   4.705  17.701  0.00  0.00    +0.000 C 
ATOM      5  C   UNL     1       5.601   6.147  18.184  0.00  0.00    +0.000 C 
ATOM      6  C   UNL     1       4.438   7.037  17.758  0.00  0.00    +0.000 C 
ENDROOT
BRANCH   4   7
ATOM      7  N   UNL     1       5.615   4.607  16.258  0.00  0.00    +0.000 N 
ATOM      8  C   UNL     1       6.856   4.522  15.662  0.00  0.00    +0.000 C 
ATOM      9  O   UNL     1       7.902   4.568  16.298  0.00  0.00    +0.000 OA
ATOM     10  H   UNL     1       4.823   4.464  15.642  0.00  0.00    +0.000 HD
BRANCH   8  11
ATOM     11  C   UNL     1       6.797   4.368  14.221  0.00  0.00    +0.000 A 
ATOM     12  C   UNL     1       6.074   3.499  13.424  0.00  0.00    +0.000 A 
ATOM     13  C   UNL     1       6.409   3.797  12.082  0.00  0.00    +0.000 A 
ATOM     14  C   UNL     1       7.314   4.831  12.134  0.00  0.00    +0.000 A 
ATOM     15  O   UNL     1       7.558   5.187  13.422  0.00  0.00    +0.000 OA
ENDBRANCH   8  11
ENDBRANCH   4   7
BRANCH   1  16
ATOM     16  C   UNL     1       2.306   7.016  19.114  0.00  0.00    +0.000 C 
ATOM     17  S   UNL     1       1.788   6.145  20.450  0.00  0.00    +0.000 S 
BRANCH  16  18
ATOM     18  N   UNL     1       2.067   8.359  18.844  0.00  0.00    +0.000 N 
ATOM     19  H   UNL     1       2.846   8.795  18.366  0.00  0.00    +0.000 HD
BRANCH  18  25
ATOM     20  C   UNL     1      -1.682  11.404  17.665  0.00  0.00    +0.000 C 
ATOM     21  C   UNL     1      -0.800  10.772  18.699  0.00  0.00    +0.000 A 
ATOM     22  C   UNL     1      -0.893  11.113  20.050  0.00  0.00    +0.000 A 
ATOM     23  C   UNL     1      -0.040  10.517  20.977  0.00  0.00    +0.000 A 
ATOM     24  C   UNL     1       0.911   9.583  20.555  0.00  0.00    +0.000 A 
ATOM     25  C   UNL     1       1.019   9.230  19.203  0.00  0.00    +0.000 A 
ATOM     26  C   UNL     1       0.159   9.834  18.288  0.00  0.00    +0.000 A 
ENDBRANCH  18  25
ENDBRANCH  16  18
ENDBRANCH   1  16
TORSDOF 5
ENDMDL
MODEL 7
REMARK VINA RESULT:      -6.8      3.246      7.727
REMARK  Name = 
REMARK  6 active torsions:
REMARK  status: ('A' for Active; 'I' for Inactive)
REMARK    1  A    between atoms: C_1  and  C_2
REMARK    2  A    between atoms: C_6  and  N_7
REMARK    3  A    between atoms: N_7  and  C_8
REMARK    4  A    between atoms: C_8  and  N_10
REMARK    5  A    between atoms: C_13  and  N_14
REMARK    6  A    between atoms: C_15  and  C_17
REMARK                            x       y       z     vdW  Elec       q    Type
REMARK                         _______ _______ _______ _____ _____    ______ ____
ROOT
ATOM      1  N   UNL     1       1.872   4.808  19.071  0.00  0.00    +0.000 N 
ATOM      2  C   UNL     1       1.738   5.544  17.808  0.00  0.00    +0.000 C 
ATOM      3  C   UNL     1       2.739   6.698  17.742  0.00  0.00    +0.000 C 
ATOM      4  C   UNL     1       2.623   7.619  18.964  0.00  0.00    +0.000 C 
ATOM      5  C   UNL     1       2.752   6.807  20.257  0.00  0.00    +0.000 C 
ATOM      6  C   UNL     1       1.785   5.628  20.284  0.00  0.00    +0.000 C 
ENDROOT
BRANCH   4   7
ATOM      7  N   UNL     1       1.380   8.384  18.948  0.00  0.00    +0.000 N 
ATOM      8  C   UNL     1       1.219   9.559  18.243  0.00  0.00    +0.000 C 
ATOM      9  O   UNL     1       2.126  10.082  17.608  0.00  0.00    +0.000 OA
ATOM     10  H   UNL     1       0.536   8.000  19.357  0.00  0.00    +0.000 HD
BRANCH   8  11
ATOM     11  C   UNL     1      -0.123  10.104  18.326  0.00  0.00    +0.000 A 
ATOM     12  C   UNL     1      -1.248   9.882  17.553  0.00  0.00    +0.000 A 
ATOM     13  C   UNL     1      -2.281  10.685  18.092  0.00  0.00    +0.000 A 
ATOM     14  C   UNL     1      -1.731  11.350  19.162  0.00  0.00    +0.000 A 
ATOM     15  O   UNL     1      -0.426  11.008  19.316  0.00  0.00    +0.000 OA
ENDBRANCH   8  11
ENDBRANCH   4   7
BRANCH   1  16
ATOM     16  C   UNL     1       2.397   3.500  19.069  0.00  0.00    +0.000 C 
ATOM     17  S   UNL     1       1.446   2.140  18.832  0.00  0.00    +0.000 S 
BRANCH  16  18
ATOM     18  N   UNL     1       3.780   3.541  19.217  0.00  0.00    +0.000 N 
ATOM     19  H   UNL     1       4.075   3.196  20.121  0.00  0.00    +0.000 HD
BRANCH  18  25
ATOM     20  C   UNL     1       6.168   3.902  14.871  0.00  0.00    +0.000 C 
ATOM     21  C   UNL     1       6.056   4.256  16.324  0.00  0.00    +0.000 A 
ATOM     22  C   UNL     1       7.033   5.015  16.971  0.00  0.00    +0.000 A 
ATOM     23  C   UNL     1       6.902   5.306  18.328  0.00  0.00    +0.000 A 
ATOM     24  C   UNL     1       5.797   4.832  19.042  0.00  0.00    +0.000 A 
ATOM     25  C   UNL     1       4.808   4.067  18.409  0.00  0.00    +0.000 A 
ATOM     26  C   UNL     1       4.952   3.785  17.052  0.00  0.00    +0.000 A 
ENDBRANCH  18  25
ENDBRANCH  16  18
ENDBRANCH   1  16
TORSDOF 5
ENDMDL
MODEL 8
REMARK VINA RESULT:      -6.8      3.329      7.533
REMARK  Name = 
REMARK  6 active torsions:
REMARK  status: ('A' for Active; 'I' for Inactive)
REMARK    1  A    between atoms: C_1  and  C_2
REMARK    2  A    between atoms: C_6  and  N_7
REMARK    3  A    between atoms: N_7  and  C_8
REMARK    4  A    between atoms: C_8  and  N_10
REMARK    5  A    between atoms: C_13  and  N_14
REMARK    6  A    between atoms: C_15  and  C_17
REMARK                            x       y       z     vdW  Elec       q    Type
REMARK                         _______ _______ _______ _____ _____    ______ ____
ROOT
ATOM      1  N   UNL     1       1.908   4.797  19.144  0.00  0.00    +0.000 N 
ATOM      2  C   UNL     1       1.686   5.439  17.842  0.00  0.00    +0.000 C 
ATOM      3  C   UNL     1       2.670   6.590  17.630  0.00  0.00    +0.000 C 
ATOM      4  C   UNL     1       2.624   7.596  18.787  0.00  0.00    +0.000 C 
ATOM      5  C   UNL     1       2.843   6.880  20.124  0.00  0.00    +0.000 C 
ATOM      6  C   UNL     1       1.890   5.701  20.298  0.00  0.00    +0.000 C 
ENDROOT
BRANCH   4   7
ATOM      7  N   UNL     1       1.376   8.352  18.796  0.00  0.00    +0.000 N 
ATOM      8  C   UNL     1       1.223   9.576  18.179  0.00  0.00    +0.000 C 
ATOM      9  O   UNL     1       2.141  10.151  17.608  0.00  0.00    +0.000 OA
ATOM     10  H   UNL     1       0.524   7.933  19.153  0.00  0.00    +0.000 HD
BRANCH   8  11
ATOM     11  C   UNL     1      -0.126  10.105  18.267  0.00  0.00    +0.000 A 
ATOM     12  C   UNL     1      -1.272   9.806  17.555  0.00  0.00    +0.000 A 
ATOM     13  C   UNL     1      -2.301  10.632  18.067  0.00  0.00    +0.000 A 
ATOM     14  C   UNL     1      -1.727  11.386  19.062  0.00  0.00    +0.000 A 
ATOM     15  O   UNL     1      -0.410  11.078  19.195  0.00  0.00    +0.000 OA
ENDBRANCH   8  11
ENDBRANCH   4   7
BRANCH   1  16
ATOM     16  C   UNL     1       2.444   3.495  19.202  0.00  0.00    +0.000 C 
ATOM     17  S   UNL     1       1.518   2.120  18.947  0.00  0.00    +0.000 S 
BRANCH  16  18
ATOM     18  N   UNL     1       3.816   3.553  19.422  0.00  0.00    +0.000 N 
ATOM     19  H   UNL     1       4.061   3.283  20.366  0.00  0.00    +0.000 HD
BRANCH  18  25
ATOM     20  C   UNL     1       7.879   6.344  18.771  0.00  0.00    +0.000 C 
ATOM     21  C   UNL     1       6.856   5.393  18.225  0.00  0.00    +0.000 A 
ATOM     22  C   UNL     1       6.844   5.024  16.878  0.00  0.00    +0.000 A 
ATOM     23  C   UNL     1       5.864   4.153  16.406  0.00  0.00    +0.000 A 
ATOM     24  C   UNL     1       4.891   3.654  17.277  0.00  0.00    +0.000 A 
ATOM     25  C   UNL     1       4.887   4.015  18.631  0.00  0.00    +0.000 A 
ATOM     26  C   UNL     1       5.874   4.887  19.089  0.00  0.00    +0.000 A 
ENDBRANCH  18  25
ENDBRANCH  16  18
ENDBRANCH   1  16
TORSDOF 5
ENDMDL
MODEL 9
REMARK VINA RESULT:      -6.8      3.896      8.264
REMARK  Name = 
REMARK  6 active torsions:
REMARK  status: ('A' for Active; 'I' for Inactive)
REMARK    1  A    between atoms: C_1  and  C_2
REMARK    2  A    between atoms: C_6  and  N_7
REMARK    3  A    between atoms: N_7  and  C_8
REMARK    4  A    between atoms: C_8  and  N_10
REMARK    5  A    between atoms: C_13  and  N_14
REMARK    6  A    between atoms: C_15  and  C_17
REMARK                            x       y       z     vdW  Elec       q    Type
REMARK                         _______ _______ _______ _____ _____    ______ ____
ROOT
ATOM      1  N   UNL     1       2.051   6.117  19.528  0.00  0.00    +0.000 N 
ATOM      2  C   UNL     1       2.059   6.746  18.201  0.00  0.00    +0.000 C 
ATOM      3  C   UNL     1       2.564   8.187  18.286  0.00  0.00    +0.000 C 
ATOM      4  C   UNL     1       1.769   9.007  19.311  0.00  0.00    +0.000 C 
ATOM      5  C   UNL     1       1.774   8.304  20.674  0.00  0.00    +0.000 C 
ATOM      6  C   UNL     1       1.320   6.852  20.564  0.00  0.00    +0.000 C 
ENDROOT
BRANCH   4   7
ATOM      7  N   UNL     1       0.405   9.261  18.859  0.00  0.00    +0.000 N 
ATOM      8  C   UNL     1      -0.070  10.517  18.542  0.00  0.00    +0.000 C 
ATOM      9  O   UNL     1       0.607  11.531  18.659  0.00  0.00    +0.000 OA
ATOM     10  H   UNL     1      -0.213   8.490  18.632  0.00  0.00    +0.000 HD
BRANCH   8  11
ATOM     11  C   UNL     1      -1.436  10.514  18.054  0.00  0.00    +0.000 A 
ATOM     12  C   UNL     1      -2.021   9.864  16.983  0.00  0.00    +0.000 A 
ATOM     13  C   UNL     1      -3.389  10.226  16.980  0.00  0.00    +0.000 A 
ATOM     14  C   UNL     1      -3.563  11.074  18.049  0.00  0.00    +0.000 A 
ATOM     15  O   UNL     1      -2.389  11.256  18.708  0.00  0.00    +0.000 OA
ENDBRANCH   8  11
ENDBRANCH   4   7
BRANCH   1  16
ATOM     16  C   UNL     1       2.974   5.093  19.824  0.00  0.00    +0.000 C 
ATOM     17  S   UNL     1       2.506   3.522  20.173  0.00  0.00    +0.000 S 
BRANCH  16  18
ATOM     18  N   UNL     1       4.274   5.575  19.710  0.00  0.00    +0.000 N 
ATOM     19  H   UNL     1       4.463   6.318  20.371  0.00  0.00    +0.000 HD
BRANCH  18  25
ATOM     20  C   UNL     1       5.906   3.837  15.347  0.00  0.00    +0.000 C 
ATOM     21  C   UNL     1       6.187   4.431  16.695  0.00  0.00    +0.000 A 
ATOM     22  C   UNL     1       7.492   4.627  17.151  0.00  0.00    +0.000 A 
ATOM     23  C   UNL     1       7.712   5.164  18.419  0.00  0.00    +0.000 A 
ATOM     24  C   UNL     1       6.626   5.500  19.234  0.00  0.00    +0.000 A 
ATOM     25  C   UNL     1       5.310   5.308  18.793  0.00  0.00    +0.000 A 
ATOM     26  C   UNL     1       5.107   4.771  17.523  0.00  0.00    +0.000 A 
ENDBRANCH  18  25
ENDBRANCH  16  18
ENDBRANCH   1  16
TORSDOF 5
ENDMDL
