MODEL 1
REMARK VINA RESULT:      -6.7      0.000      0.000
REMARK  Name = 
REMARK  3 active torsions:
REMARK  status: ('A' for Active; 'I' for Inactive)
REMARK    1  A    between atoms: C_4  and  C_5
REMARK    2  A    between atoms: C_5  and  N_6
REMARK    3  A    between atoms: N_6  and  C_7
REMARK                            x       y       z     vdW  Elec       q    Type
REMARK                         _______ _______ _______ _____ _____    ______ ____
ROOT
ATOM      1  N   UNL     1       5.356   3.416  18.364  0.00  0.00    +0.000 NA
ATOM      2  H   UNL     1       6.071   2.821  17.941  0.00  0.00    +0.000 HD
ENDROOT
BRANCH   1   3
ATOM      3  C   UNL     1       5.663   4.819  18.045  0.00  0.00    +0.000 C 
ATOM      4  C   UNL     1       5.027   5.328  16.737  0.00  0.00    +0.000 C 
ATOM      5  C   UNL     1       5.614   4.630  15.509  0.00  0.00    +0.000 C 
ATOM      6  C   UNL     1       7.141   4.698  15.503  0.00  0.00    +0.000 C 
ATOM      7  N   UNL     1       7.713   4.191  16.749  0.00  0.00    +0.000 NA
ATOM      8  C   UNL     1       7.206   4.944  17.908  0.00  0.00    +0.000 C 
ATOM      9  H   UNL     1       8.729   4.272  16.718  0.00  0.00    +0.000 HD
ENDBRANCH   1   3
BRANCH   1  10
ATOM     10  C   UNL     1       4.024   2.974  17.978  0.00  0.00    +0.000 C 
BRANCH  10  14
ATOM     11  C   UNL     1       1.294   3.241  21.316  0.00  0.00    +0.000 A 
ATOM     12  C   UNL     1       2.565   2.693  21.491  0.00  0.00    +0.000 A 
ATOM     13  C   UNL     1       3.441   2.607  20.411  0.00  0.00    +0.000 A 
ATOM     14  C   UNL     1       3.061   3.063  19.140  0.00  0.00    +0.000 A 
ATOM     15  C   UNL     1       1.780   3.612  18.976  0.00  0.00    +0.000 A 
ATOM     16  C   UNL     1       0.902   3.701  20.060  0.00  0.00    +0.000 A 
ENDBRANCH  10  14
ENDBRANCH   1  10
TORSDOF 3
ENDMDL
MODEL 2
REMARK VINA RESULT:      -6.6      1.603      1.857
REMARK  Name = 
REMARK  3 active torsions:
REMARK  status: ('A' for Active; 'I' for Inactive)
REMARK    1  A    between atoms: C_4  and  C_5
REMARK    2  A    between atoms: C_5  and  N_6
REMARK    3  A    between atoms: N_6  and  C_7
REMARK                            x       y       z     vdW  Elec       q    Type
REMARK                         _______ _______ _______ _____ _____    ______ ____
ROOT
ATOM      1  N   UNL     1       4.746   5.805  18.232  0.00  0.00    +0.000 NA
ATOM      2  H   UNL     1       4.890   4.793  18.207  0.00  0.00    +0.000 HD
ENDROOT
BRANCH   1   3
ATOM      3  C   UNL     1       5.647   6.431  17.253  0.00  0.00    +0.000 C 
ATOM      4  C   UNL     1       5.251   6.195  15.782  0.00  0.00    +0.000 C 
ATOM      5  C   UNL     1       5.390   4.726  15.384  0.00  0.00    +0.000 C 
ATOM      6  C   UNL     1       6.774   4.179  15.731  0.00  0.00    +0.000 C 
ATOM      7  N   UNL     1       7.111   4.401  17.136  0.00  0.00    +0.000 NA
ATOM      8  C   UNL     1       7.065   5.835  17.469  0.00  0.00    +0.000 C 
ATOM      9  H   UNL     1       8.047   4.045  17.325  0.00  0.00    +0.000 HD
ENDBRANCH   1   3
BRANCH   1  10
ATOM     10  C   UNL     1       3.335   6.128  18.066  0.00  0.00    +0.000 C 
BRANCH  10  14
ATOM     11  C   UNL     1       0.807   3.106  19.839  0.00  0.00    +0.000 A 
ATOM     12  C   UNL     1       1.240   4.193  20.598  0.00  0.00    +0.000 A 
ATOM     13  C   UNL     1       2.057   5.164  20.024  0.00  0.00    +0.000 A 
ATOM     14  C   UNL     1       2.456   5.063  18.682  0.00  0.00    +0.000 A 
ATOM     15  C   UNL     1       2.015   3.965  17.928  0.00  0.00    +0.000 A 
ATOM     16  C   UNL     1       1.193   2.993  18.504  0.00  0.00    +0.000 A 
ENDBRANCH  10  14
ENDBRANCH   1  10
TORSDOF 3
ENDMDL
MODEL 3
REMARK VINA RESULT:      -6.6      1.550      1.858
REMARK  Name = 
REMARK  3 active torsions:
REMARK  status: ('A' for Active; 'I' for Inactive)
REMARK    1  A    between atoms: C_4  and  C_5
REMARK    2  A    between atoms: C_5  and  N_6
REMARK    3  A    between atoms: N_6  and  C_7
REMARK                            x       y       z     vdW  Elec       q    Type
REMARK                         _______ _______ _______ _____ _____    ______ ____
ROOT
ATOM      1  N   UNL     1       3.947   5.365  17.442  0.00  0.00    +0.000 NA
ATOM      2  H   UNL     1       3.953   5.383  16.420  0.00  0.00    +0.000 HD
ENDROOT
BRANCH   1   3
ATOM      3  C   UNL     1       5.076   6.170  17.932  0.00  0.00    +0.000 C 
ATOM      4  C   UNL     1       6.066   6.610  16.835  0.00  0.00    +0.000 C 
ATOM      5  C   UNL     1       6.816   5.421  16.234  0.00  0.00    +0.000 C 
ATOM      6  C   UNL     1       7.462   4.559  17.319  0.00  0.00    +0.000 C 
ATOM      7  N   UNL     1       6.493   4.142  18.332  0.00  0.00    +0.000 NA
ATOM      8  C   UNL     1       5.856   5.310  18.965  0.00  0.00    +0.000 C 
ATOM      9  H   UNL     1       6.962   3.590  19.048  0.00  0.00    +0.000 HD
ENDBRANCH   1   3
BRANCH   1  10
ATOM     10  C   UNL     1       2.642   5.756  17.956  0.00  0.00    +0.000 C 
BRANCH  10  14
ATOM     11  C   UNL     1       1.171   2.910  20.855  0.00  0.00    +0.000 A 
ATOM     12  C   UNL     1       1.957   3.986  21.265  0.00  0.00    +0.000 A 
ATOM     13  C   UNL     1       2.431   4.901  20.327  0.00  0.00    +0.000 A 
ATOM     14  C   UNL     1       2.130   4.752  18.965  0.00  0.00    +0.000 A 
ATOM     15  C   UNL     1       1.339   3.665  18.564  0.00  0.00    +0.000 A 
ATOM     16  C   UNL     1       0.862   2.750  19.506  0.00  0.00    +0.000 A 
ENDBRANCH  10  14
ENDBRANCH   1  10
TORSDOF 3
ENDMDL
MODEL 4
REMARK VINA RESULT:      -6.6      0.836      1.386
REMARK  Name = 
REMARK  3 active torsions:
REMARK  status: ('A' for Active; 'I' for Inactive)
REMARK    1  A    between atoms: C_4  and  C_5
REMARK    2  A    between atoms: C_5  and  N_6
REMARK    3  A    between atoms: N_6  and  C_7
REMARK                            x       y       z     vdW  Elec       q    Type
REMARK                         _______ _______ _______ _____ _____    ______ ____
ROOT
ATOM      1  N   UNL     1       5.514   3.451  18.591  0.00  0.00    +0.000 NA
ATOM      2  H   UNL     1       5.014   2.941  17.859  0.00  0.00    +0.000 HD
ENDROOT
BRANCH   1   3
ATOM      3  C   UNL     1       5.723   4.836  18.139  0.00  0.00    +0.000 C 
ATOM      4  C   UNL     1       4.967   5.203  16.846  0.00  0.00    +0.000 C 
ATOM      5  C   UNL     1       5.500   4.435  15.637  0.00  0.00    +0.000 C 
ATOM      6  C   UNL     1       7.017   4.573  15.508  0.00  0.00    +0.000 C 
ATOM      7  N   UNL     1       7.704   4.199  16.743  0.00  0.00    +0.000 NA
ATOM      8  C   UNL     1       7.242   5.022  17.875  0.00  0.00    +0.000 C 
ATOM      9  H   UNL     1       8.709   4.325  16.628  0.00  0.00    +0.000 HD
ENDBRANCH   1   3
BRANCH   1  10
ATOM     10  C   UNL     1       4.832   3.316  19.870  0.00  0.00    +0.000 C 
BRANCH  10  14
ATOM     11  C   UNL     1       0.564   2.932  19.325  0.00  0.00    +0.000 A 
ATOM     12  C   UNL     1       1.443   2.291  18.453  0.00  0.00    +0.000 A 
ATOM     13  C   UNL     1       2.819   2.418  18.631  0.00  0.00    +0.000 A 
ATOM     14  C   UNL     1       3.338   3.192  19.681  0.00  0.00    +0.000 A 
ATOM     15  C   UNL     1       2.443   3.833  20.551  0.00  0.00    +0.000 A 
ATOM     16  C   UNL     1       1.064   3.702  20.374  0.00  0.00    +0.000 A 
ENDBRANCH  10  14
ENDBRANCH   1  10
TORSDOF 3
ENDMDL
MODEL 5
REMARK VINA RESULT:      -6.5      1.357      1.887
REMARK  Name = 
REMARK  3 active torsions:
REMARK  status: ('A' for Active; 'I' for Inactive)
REMARK    1  A    between atoms: C_4  and  C_5
REMARK    2  A    between atoms: C_5  and  N_6
REMARK    3  A    between atoms: N_6  and  C_7
REMARK                            x       y       z     vdW  Elec       q    Type
REMARK                         _______ _______ _______ _____ _____    ______ ____
ROOT
ATOM      1  N   UNL     1       5.115   5.349  18.615  0.00  0.00    +0.000 NA
ATOM      2  H   UNL     1       4.909   4.447  18.179  0.00  0.00    +0.000 HD
ENDROOT
BRANCH   1   3
ATOM      3  C   UNL     1       5.774   6.211  17.622  0.00  0.00    +0.000 C 
ATOM      4  C   UNL     1       5.182   6.113  16.202  0.00  0.00    +0.000 C 
ATOM      5  C   UNL     1       5.424   4.738  15.578  0.00  0.00    +0.000 C 
ATOM      6  C   UNL     1       6.899   4.344  15.644  0.00  0.00    +0.000 C 
ATOM      7  N   UNL     1       7.424   4.428  17.006  0.00  0.00    +0.000 NA
ATOM      8  C   UNL     1       7.268   5.789  17.549  0.00  0.00    +0.000 C 
ATOM      9  H   UNL     1       8.413   4.181  17.009  0.00  0.00    +0.000 HD
ENDBRANCH   1   3
BRANCH   1  10
ATOM     10  C   UNL     1       3.917   5.912  19.222  0.00  0.00    +0.000 C 
BRANCH  10  14
ATOM     11  C   UNL     1       0.795   2.937  19.487  0.00  0.00    +0.000 A 
ATOM     12  C   UNL     1       1.417   3.194  18.266  0.00  0.00    +0.000 A 
ATOM     13  C   UNL     1       2.422   4.155  18.184  0.00  0.00    +0.000 A 
ATOM     14  C   UNL     1       2.818   4.877  19.321  0.00  0.00    +0.000 A 
ATOM     15  C   UNL     1       2.184   4.611  20.543  0.00  0.00    +0.000 A 
ATOM     16  C   UNL     1       1.178   3.645  20.625  0.00  0.00    +0.000 A 
ENDBRANCH  10  14
ENDBRANCH   1  10
TORSDOF 3
ENDMDL
MODEL 6
REMARK VINA RESULT:      -6.5      0.944      1.346
REMARK  Name = 
REMARK  3 active torsions:
REMARK  status: ('A' for Active; 'I' for Inactive)
REMARK    1  A    between atoms: C_4  and  C_5
REMARK    2  A    between atoms: C_5  and  N_6
REMARK    3  A    between atoms: N_6  and  C_7
REMARK                            x       y       z     vdW  Elec       q    Type
REMARK                         _______ _______ _______ _____ _____    ______ ____
ROOT
ATOM      1  N   UNL     1       5.369   3.255  18.767  0.00  0.00    +0.000 NA
ATOM      2  H   UNL     1       4.971   2.691  18.012  0.00  0.00    +0.000 HD
ENDROOT
BRANCH   1   3
ATOM      3  C   UNL     1       5.386   4.663  18.341  0.00  0.00    +0.000 C 
ATOM      4  C   UNL     1       4.701   4.926  16.985  0.00  0.00    +0.000 C 
ATOM      5  C   UNL     1       5.463   4.279  15.828  0.00  0.00    +0.000 C 
ATOM      6  C   UNL     1       6.941   4.667  15.843  0.00  0.00    +0.000 C 
ATOM      7  N   UNL     1       7.565   4.388  17.135  0.00  0.00    +0.000 NA
ATOM      8  C   UNL     1       6.871   5.101  18.221  0.00  0.00    +0.000 C 
ATOM      9  H   UNL     1       8.541   4.679  17.115  0.00  0.00    +0.000 HD
ENDBRANCH   1   3
BRANCH   1  10
ATOM     10  C   UNL     1       4.675   2.998  20.021  0.00  0.00    +0.000 C 
BRANCH  10  14
ATOM     11  C   UNL     1       0.391   3.140  19.482  0.00  0.00    +0.000 A 
ATOM     12  C   UNL     1       1.007   3.967  20.421  0.00  0.00    +0.000 A 
ATOM     13  C   UNL     1       2.389   3.917  20.593  0.00  0.00    +0.000 A 
ATOM     14  C   UNL     1       3.175   3.037  19.833  0.00  0.00    +0.000 A 
ATOM     15  C   UNL     1       2.543   2.210  18.892  0.00  0.00    +0.000 A 
ATOM     16  C   UNL     1       1.158   2.263  18.718  0.00  0.00    +0.000 A 
ENDBRANCH  10  14
ENDBRANCH   1  10
TORSDOF 3
ENDMDL
MODEL 7
REMARK VINA RESULT:      -6.5      0.492      1.372
REMARK  Name = 
REMARK  3 active torsions:
REMARK  status: ('A' for Active; 'I' for Inactive)
REMARK    1  A    between atoms: C_4  and  C_5
REMARK    2  A    between atoms: C_5  and  N_6
REMARK    3  A    between atoms: N_6  and  C_7
REMARK                            x       y       z     vdW  Elec       q    Type
REMARK                         _______ _______ _______ _____ _____    ______ ____
ROOT
ATOM      1  N   UNL     1       4.832   3.247  17.633  0.00  0.00    +0.000 NA
ATOM      2  H   UNL     1       5.337   2.855  16.834  0.00  0.00    +0.000 HD
ENDROOT
BRANCH   1   3
ATOM      3  C   UNL     1       5.142   4.682  17.727  0.00  0.00    +0.000 C 
ATOM      4  C   UNL     1       4.781   5.494  16.468  0.00  0.00    +0.000 C 
ATOM      5  C   UNL     1       5.646   5.102  15.269  0.00  0.00    +0.000 C 
ATOM      6  C   UNL     1       7.135   5.153  15.612  0.00  0.00    +0.000 C 
ATOM      7  N   UNL     1       7.447   4.357  16.798  0.00  0.00    +0.000 NA
ATOM      8  C   UNL     1       6.671   4.819  17.963  0.00  0.00    +0.000 C 
ATOM      9  H   UNL     1       8.441   4.432  17.010  0.00  0.00    +0.000 HD
ENDBRANCH   1   3
BRANCH   1  10
ATOM     10  C   UNL     1       3.414   2.926  17.551  0.00  0.00    +0.000 C 
BRANCH  10  14
ATOM     11  C   UNL     1       1.469   3.357  21.385  0.00  0.00    +0.000 A 
ATOM     12  C   UNL     1       0.862   3.852  20.232  0.00  0.00    +0.000 A 
ATOM     13  C   UNL     1       1.493   3.713  18.997  0.00  0.00    +0.000 A 
ATOM     14  C   UNL     1       2.742   3.080  18.897  0.00  0.00    +0.000 A 
ATOM     15  C   UNL     1       3.343   2.587  20.065  0.00  0.00    +0.000 A 
ATOM     16  C   UNL     1       2.708   2.724  21.302  0.00  0.00    +0.000 A 
ENDBRANCH  10  14
ENDBRANCH   1  10
TORSDOF 3
ENDMDL
MODEL 8
REMARK VINA RESULT:      -6.4      1.020      1.430
REMARK  Name = 
REMARK  3 active torsions:
REMARK  status: ('A' for Active; 'I' for Inactive)
REMARK    1  A    between atoms: C_4  and  C_5
REMARK    2  A    between atoms: C_5  and  N_6
REMARK    3  A    between atoms: N_6  and  C_7
REMARK                            x       y       z     vdW  Elec       q    Type
REMARK                         _______ _______ _______ _____ _____    ______ ____
ROOT
ATOM      1  N   UNL     1       4.662   3.060  17.633  0.00  0.00    +0.000 NA
ATOM      2  H   UNL     1       5.263   2.544  16.986  0.00  0.00    +0.000 HD
ENDROOT
BRANCH   1   3
ATOM      3  C   UNL     1       4.774   4.496  17.334  0.00  0.00    +0.000 C 
ATOM      4  C   UNL     1       5.815   4.841  16.251  0.00  0.00    +0.000 C 
ATOM      5  C   UNL     1       7.241   4.543  16.716  0.00  0.00    +0.000 C 
ATOM      6  C   UNL     1       7.538   5.194  18.067  0.00  0.00    +0.000 C 
ATOM      7  N   UNL     1       6.544   4.832  19.076  0.00  0.00    +0.000 NA
ATOM      8  C   UNL     1       5.189   5.218  18.645  0.00  0.00    +0.000 C 
ATOM      9  H   UNL     1       6.761   5.301  19.954  0.00  0.00    +0.000 HD
ENDBRANCH   1   3
BRANCH   1  10
ATOM     10  C   UNL     1       3.306   2.529  17.608  0.00  0.00    +0.000 C 
BRANCH  10  14
ATOM     11  C   UNL     1       1.377   3.084  21.434  0.00  0.00    +0.000 A 
ATOM     12  C   UNL     1       2.696   2.636  21.372  0.00  0.00    +0.000 A 
ATOM     13  C   UNL     1       3.314   2.457  20.136  0.00  0.00    +0.000 A 
ATOM     14  C   UNL     1       2.622   2.718  18.943  0.00  0.00    +0.000 A 
ATOM     15  C   UNL     1       1.295   3.167  19.018  0.00  0.00    +0.000 A 
ATOM     16  C   UNL     1       0.677   3.350  20.258  0.00  0.00    +0.000 A 
ENDBRANCH  10  14
ENDBRANCH   1  10
TORSDOF 3
ENDMDL
MODEL 9
REMARK VINA RESULT:      -6.3      1.127      2.168
REMARK  Name = 
REMARK  3 active torsions:
REMARK  status: ('A' for Active; 'I' for Inactive)
REMARK    1  A    between atoms: C_4  and  C_5
REMARK    2  A    between atoms: C_5  and  N_6
REMARK    3  A    between atoms: N_6  and  C_7
REMARK                            x       y       z     vdW  Elec       q    Type
REMARK                         _______ _______ _______ _____ _____    ______ ____
ROOT
ATOM      1  N   UNL     1       4.811   3.353  17.540  0.00  0.00    +0.000 NA
ATOM      2  H   UNL     1       5.357   2.620  17.080  0.00  0.00    +0.000 HD
ENDROOT
BRANCH   1   3
ATOM      3  C   UNL     1       5.229   4.657  17.003  0.00  0.00    +0.000 C 
ATOM      4  C   UNL     1       6.686   4.700  16.501  0.00  0.00    +0.000 C 
ATOM      5  C   UNL     1       7.687   4.539  17.645  0.00  0.00    +0.000 C 
ATOM      6  C   UNL     1       7.410   5.529  18.776  0.00  0.00    +0.000 C 
ATOM      7  N   UNL     1       6.026   5.449  19.242  0.00  0.00    +0.000 NA
ATOM      8  C   UNL     1       5.082   5.704  18.140  0.00  0.00    +0.000 C 
ATOM      9  H   UNL     1       5.872   6.136  19.978  0.00  0.00    +0.000 HD
ENDBRANCH   1   3
BRANCH   1  10
ATOM     10  C   UNL     1       3.385   3.072  17.439  0.00  0.00    +0.000 C 
BRANCH  10  14
ATOM     11  C   UNL     1       1.479   3.130  21.315  0.00  0.00    +0.000 A 
ATOM     12  C   UNL     1       0.784   3.560  20.185  0.00  0.00    +0.000 A 
ATOM     13  C   UNL     1       1.403   3.541  18.937  0.00  0.00    +0.000 A 
ATOM     14  C   UNL     1       2.727   3.097  18.799  0.00  0.00    +0.000 A 
ATOM     15  C   UNL     1       3.416   2.667  19.944  0.00  0.00    +0.000 A 
ATOM     16  C   UNL     1       2.794   2.683  21.194  0.00  0.00    +0.000 A 
ENDBRANCH  10  14
ENDBRANCH   1  10
TORSDOF 3
ENDMDL
