MODEL 1
REMARK VINA RESULT:      -7.4      0.000      0.000
REMARK  Name = 
REMARK  3 active torsions:
REMARK  status: ('A' for Active; 'I' for Inactive)
REMARK    1  A    between atoms: C_1  and  N_2
REMARK    2  A    between atoms: C_5  and  C_6
REMARK    3  A    between atoms: C_10  and  C_11
REMARK                            x       y       z     vdW  Elec       q    Type
REMARK                         _______ _______ _______ _____ _____    ______ ____
ROOT
ATOM      1  C   UNL     1       3.111   6.207  18.782  0.00  0.00    +0.000 A 
ATOM      2  N   UNL     1       2.205   7.157  19.066  0.00  0.00    +0.000 NA
ATOM      3  N   UNL     1       2.539   8.183  18.274  0.00  0.00    +0.000 N 
ATOM      4  C   UNL     1       3.593   7.917  17.456  0.00  0.00    +0.000 A 
ATOM      5  C   UNL     1       4.004   6.631  17.745  0.00  0.00    +0.000 A 
ATOM      6  H   UNL     1       1.998   9.039  18.344  0.00  0.00    +0.000 HD
ENDROOT
BRANCH   5   7
ATOM      7  C   UNL     1       5.125   5.973  17.085  0.00  0.00    +0.000 A 
ATOM      8  C   UNL     1       5.197   5.896  15.696  0.00  0.00    +0.000 A 
ATOM      9  C   UNL     1       6.259   5.220  15.121  0.00  0.00    +0.000 A 
ATOM     10  N   UNL     1       7.255   4.646  15.824  0.00  0.00    +0.000 NA
ATOM     11  C   UNL     1       7.195   4.749  17.161  0.00  0.00    +0.000 A 
ATOM     12  N   UNL     1       8.259   4.198  17.868  0.00  0.00    +0.000 N 
ATOM     13  C   UNL     1       6.164   5.401  17.825  0.00  0.00    +0.000 A 
ATOM     14  H   UNL     1       8.851   3.731  17.184  0.00  0.00    +0.000 HD
ATOM     15  H   UNL     1       7.941   3.563  18.590  0.00  0.00    +0.000 HD
ENDBRANCH   5   7
BRANCH   1  20
ATOM     16  C   UNL     1       0.742   2.134  18.846  0.00  0.00    +0.000 C 
ATOM     17  N   UNL     1       1.703   2.953  19.572  0.00  0.00    +0.000 NA
ATOM     18  C   UNL     1       1.051   3.942  20.433  0.00  0.00    +0.000 C 
ATOM     19  C   UNL     1       2.194   4.885  20.781  0.00  0.00    +0.000 C 
ATOM     20  C   UNL     1       3.082   4.899  19.528  0.00  0.00    +0.000 C 
ATOM     21  C   UNL     1       2.533   3.753  18.663  0.00  0.00    +0.000 C 
ENDBRANCH   1  20
TORSDOF 2
ENDMDL
MODEL 2
REMARK VINA RESULT:      -7.3      0.536      1.487
REMARK  Name = 
REMARK  3 active torsions:
REMARK  status: ('A' for Active; 'I' for Inactive)
REMARK    1  A    between atoms: C_1  and  N_2
REMARK    2  A    between atoms: C_5  and  C_6
REMARK    3  A    between atoms: C_10  and  C_11
REMARK                            x       y       z     vdW  Elec       q    Type
REMARK                         _______ _______ _______ _____ _____    ______ ____
ROOT
ATOM      1  C   UNL     1       3.228   6.193  18.791  0.00  0.00    +0.000 A 
ATOM      2  N   UNL     1       2.294   7.149  18.919  0.00  0.00    +0.000 NA
ATOM      3  N   UNL     1       2.696   8.122  18.093  0.00  0.00    +0.000 N 
ATOM      4  C   UNL     1       3.826   7.813  17.400  0.00  0.00    +0.000 A 
ATOM      5  C   UNL     1       4.215   6.555  17.817  0.00  0.00    +0.000 A 
ATOM      6  H   UNL     1       2.147   8.974  18.050  0.00  0.00    +0.000 HD
ENDROOT
BRANCH   5   7
ATOM      7  C   UNL     1       5.398   5.867  17.315  0.00  0.00    +0.000 A 
ATOM      8  C   UNL     1       6.305   5.268  18.186  0.00  0.00    +0.000 A 
ATOM      9  C   UNL     1       7.436   4.667  17.662  0.00  0.00    +0.000 A 
ATOM     10  N   UNL     1       7.708   4.600  16.343  0.00  0.00    +0.000 NA
ATOM     11  C   UNL     1       6.816   5.153  15.508  0.00  0.00    +0.000 A 
ATOM     12  N   UNL     1       7.086   5.026  14.149  0.00  0.00    +0.000 N 
ATOM     13  C   UNL     1       5.658   5.783  15.945  0.00  0.00    +0.000 A 
ATOM     14  H   UNL     1       8.002   4.588  14.075  0.00  0.00    +0.000 HD
ATOM     15  H   UNL     1       7.055   5.920  13.674  0.00  0.00    +0.000 HD
ENDBRANCH   5   7
BRANCH   1  20
ATOM     16  C   UNL     1       0.873   2.114  18.924  0.00  0.00    +0.000 C 
ATOM     17  N   UNL     1       1.762   2.989  19.675  0.00  0.00    +0.000 NA
ATOM     18  C   UNL     1       1.033   4.030  20.403  0.00  0.00    +0.000 C 
ATOM     19  C   UNL     1       2.137   5.004  20.786  0.00  0.00    +0.000 C 
ATOM     20  C   UNL     1       3.135   4.939  19.620  0.00  0.00    +0.000 C 
ATOM     21  C   UNL     1       2.669   3.731  18.791  0.00  0.00    +0.000 C 
ENDBRANCH   1  20
TORSDOF 2
ENDMDL
MODEL 3
REMARK VINA RESULT:      -7.2      1.621      3.725
REMARK  Name = 
REMARK  3 active torsions:
REMARK  status: ('A' for Active; 'I' for Inactive)
REMARK    1  A    between atoms: C_1  and  N_2
REMARK    2  A    between atoms: C_5  and  C_6
REMARK    3  A    between atoms: C_10  and  C_11
REMARK                            x       y       z     vdW  Elec       q    Type
REMARK                         _______ _______ _______ _____ _____    ______ ____
ROOT
ATOM      1  C   UNL     1       2.812   5.224  18.331  0.00  0.00    +0.000 A 
ATOM      2  N   UNL     1       1.617   4.694  18.635  0.00  0.00    +0.000 NA
ATOM      3  N   UNL     1       1.626   3.492  18.047  0.00  0.00    +0.000 N 
ATOM      4  C   UNL     1       2.796   3.205  17.416  0.00  0.00    +0.000 A 
ATOM      5  C   UNL     1       3.613   4.307  17.575  0.00  0.00    +0.000 A 
ATOM      6  H   UNL     1       0.793   2.915  18.120  0.00  0.00    +0.000 HD
ENDROOT
BRANCH   5   7
ATOM      7  C   UNL     1       4.961   4.401  17.029  0.00  0.00    +0.000 A 
ATOM      8  C   UNL     1       6.068   4.528  17.865  0.00  0.00    +0.000 A 
ATOM      9  C   UNL     1       7.322   4.659  17.295  0.00  0.00    +0.000 A 
ATOM     10  N   UNL     1       7.549   4.645  15.966  0.00  0.00    +0.000 NA
ATOM     11  C   UNL     1       6.482   4.492  15.167  0.00  0.00    +0.000 A 
ATOM     12  N   UNL     1       6.741   4.426  13.801  0.00  0.00    +0.000 N 
ATOM     13  C   UNL     1       5.186   4.362  15.650  0.00  0.00    +0.000 A 
ATOM     14  H   UNL     1       7.737   4.603  13.686  0.00  0.00    +0.000 HD
ATOM     15  H   UNL     1       6.176   5.085  13.279  0.00  0.00    +0.000 HD
ENDBRANCH   5   7
BRANCH   1  20
ATOM     16  C   UNL     1       0.709   9.081  20.035  0.00  0.00    +0.000 C 
ATOM     17  N   UNL     1       1.953   8.560  19.485  0.00  0.00    +0.000 NA
ATOM     18  C   UNL     1       1.966   8.584  18.021  0.00  0.00    +0.000 C 
ATOM     19  C   UNL     1       3.147   7.685  17.684  0.00  0.00    +0.000 C 
ATOM     20  C   UNL     1       3.151   6.618  18.790  0.00  0.00    +0.000 C 
ATOM     21  C   UNL     1       2.147   7.146  19.828  0.00  0.00    +0.000 C 
ENDBRANCH   1  20
TORSDOF 2
ENDMDL
MODEL 4
REMARK VINA RESULT:      -7.2      1.665      4.373
REMARK  Name = 
REMARK  3 active torsions:
REMARK  status: ('A' for Active; 'I' for Inactive)
REMARK    1  A    between atoms: C_1  and  N_2
REMARK    2  A    between atoms: C_5  and  C_6
REMARK    3  A    between atoms: C_10  and  C_11
REMARK                            x       y       z     vdW  Elec       q    Type
REMARK                         _______ _______ _______ _____ _____    ______ ____
ROOT
ATOM      1  C   UNL     1       4.039   6.847  17.600  0.00  0.00    +0.000 A 
ATOM      2  N   UNL     1       3.497   8.063  17.776  0.00  0.00    +0.000 NA
ATOM      3  N   UNL     1       2.354   7.827  18.431  0.00  0.00    +0.000 N 
ATOM      4  C   UNL     1       2.159   6.514  18.727  0.00  0.00    +0.000 A 
ATOM      5  C   UNL     1       3.238   5.825  18.208  0.00  0.00    +0.000 A 
ATOM      6  H   UNL     1       1.753   8.616  18.646  0.00  0.00    +0.000 HD
ENDROOT
BRANCH   5   7
ATOM      7  C   UNL     1       3.398   4.380  18.306  0.00  0.00    +0.000 A 
ATOM      8  C   UNL     1       2.779   3.525  17.399  0.00  0.00    +0.000 A 
ATOM      9  C   UNL     1       2.926   2.158  17.563  0.00  0.00    +0.000 A 
ATOM     10  N   UNL     1       3.660   1.594  18.543  0.00  0.00    +0.000 NA
ATOM     11  C   UNL     1       4.278   2.424  19.397  0.00  0.00    +0.000 A 
ATOM     12  N   UNL     1       5.075   1.826  20.368  0.00  0.00    +0.000 N 
ATOM     13  C   UNL     1       4.181   3.807  19.313  0.00  0.00    +0.000 A 
ATOM     14  H   UNL     1       4.945   0.821  20.271  0.00  0.00    +0.000 HD
ATOM     15  H   UNL     1       4.841   2.150  21.298  0.00  0.00    +0.000 HD
ENDBRANCH   5   7
BRANCH   1  20
ATOM     16  C   UNL     1       6.253   3.807  14.760  0.00  0.00    +0.000 C 
ATOM     17  N   UNL     1       6.419   5.017  15.555  0.00  0.00    +0.000 NA
ATOM     18  C   UNL     1       6.718   4.722  16.958  0.00  0.00    +0.000 C 
ATOM     19  C   UNL     1       6.483   6.064  17.636  0.00  0.00    +0.000 C 
ATOM     20  C   UNL     1       5.333   6.705  16.843  0.00  0.00    +0.000 C 
ATOM     21  C   UNL     1       5.184   5.808  15.604  0.00  0.00    +0.000 C 
ENDBRANCH   1  20
TORSDOF 2
ENDMDL
MODEL 5
REMARK VINA RESULT:      -7.2      2.217      4.847
REMARK  Name = 
REMARK  3 active torsions:
REMARK  status: ('A' for Active; 'I' for Inactive)
REMARK    1  A    between atoms: C_1  and  N_2
REMARK    2  A    between atoms: C_5  and  C_6
REMARK    3  A    between atoms: C_10  and  C_11
REMARK                            x       y       z     vdW  Elec       q    Type
REMARK                         _______ _______ _______ _____ _____    ______ ____
ROOT
ATOM      1  C   UNL     1       2.895   5.226  17.959  0.00  0.00    +0.000 A 
ATOM      2  N   UNL     1       3.934   4.607  17.373  0.00  0.00    +0.000 NA
ATOM      3  N   UNL     1       4.764   5.600  17.033  0.00  0.00    +0.000 N 
ATOM      4  C   UNL     1       4.327   6.829  17.417  0.00  0.00    +0.000 A 
ATOM      5  C   UNL     1       3.106   6.642  18.034  0.00  0.00    +0.000 A 
ATOM      6  H   UNL     1       5.619   5.362  16.539  0.00  0.00    +0.000 HD
ENDROOT
BRANCH   5   7
ATOM      7  C   UNL     1       2.301   7.726  18.580  0.00  0.00    +0.000 A 
ATOM      8  C   UNL     1       1.822   8.748  17.763  0.00  0.00    +0.000 A 
ATOM      9  C   UNL     1       1.100   9.779  18.339  0.00  0.00    +0.000 A 
ATOM     10  N   UNL     1       0.804   9.847  19.652  0.00  0.00    +0.000 NA
ATOM     11  C   UNL     1       1.242   8.844  20.429  0.00  0.00    +0.000 A 
ATOM     12  N   UNL     1       0.881   8.904  21.771  0.00  0.00    +0.000 N 
ATOM     13  C   UNL     1       1.980   7.774  19.939  0.00  0.00    +0.000 A 
ATOM     14  H   UNL     1       0.403   9.793  21.904  0.00  0.00    +0.000 HD
ATOM     15  H   UNL     1       1.684   8.811  22.381  0.00  0.00    +0.000 HD
ENDBRANCH   5   7
BRANCH   1  20
ATOM     16  C   UNL     1       1.577   2.587  21.633  0.00  0.00    +0.000 C 
ATOM     17  N   UNL     1       1.231   2.973  20.272  0.00  0.00    +0.000 NA
ATOM     18  C   UNL     1       1.920   2.155  19.270  0.00  0.00    +0.000 C 
ATOM     19  C   UNL     1       1.709   2.950  17.990  0.00  0.00    +0.000 C 
ATOM     20  C   UNL     1       1.717   4.420  18.438  0.00  0.00    +0.000 C 
ATOM     21  C   UNL     1       1.654   4.346  19.973  0.00  0.00    +0.000 C 
ENDBRANCH   1  20
TORSDOF 2
ENDMDL
MODEL 6
REMARK VINA RESULT:      -7.2      2.279      5.088
REMARK  Name = 
REMARK  3 active torsions:
REMARK  status: ('A' for Active; 'I' for Inactive)
REMARK    1  A    between atoms: C_1  and  N_2
REMARK    2  A    between atoms: C_5  and  C_6
REMARK    3  A    between atoms: C_10  and  C_11
REMARK                            x       y       z     vdW  Elec       q    Type
REMARK                         _______ _______ _______ _____ _____    ______ ____
ROOT
ATOM      1  C   UNL     1       2.828   5.268  17.952  0.00  0.00    +0.000 A 
ATOM      2  N   UNL     1       3.844   4.698  17.285  0.00  0.00    +0.000 NA
ATOM      3  N   UNL     1       4.651   5.719  16.971  0.00  0.00    +0.000 N 
ATOM      4  C   UNL     1       4.221   6.918  17.449  0.00  0.00    +0.000 A 
ATOM      5  C   UNL     1       3.030   6.679  18.106  0.00  0.00    +0.000 A 
ATOM      6  H   UNL     1       5.485   5.522  16.426  0.00  0.00    +0.000 HD
ENDROOT
BRANCH   5   7
ATOM      7  C   UNL     1       2.241   7.719  18.753  0.00  0.00    +0.000 A 
ATOM      8  C   UNL     1       1.991   7.685  20.123  0.00  0.00    +0.000 A 
ATOM      9  C   UNL     1       1.197   8.672  20.680  0.00  0.00    +0.000 A 
ATOM     10  N   UNL     1       0.663   9.692  19.980  0.00  0.00    +0.000 NA
ATOM     11  C   UNL     1       0.932   9.736  18.666  0.00  0.00    +0.000 A 
ATOM     12  N   UNL     1       0.418  10.825  17.969  0.00  0.00    +0.000 N 
ATOM     13  C   UNL     1       1.711   8.785  18.020  0.00  0.00    +0.000 A 
ATOM     14  H   UNL     1      -0.159  11.345  18.628  0.00  0.00    +0.000 HD
ATOM     15  H   UNL     1      -0.107  10.536  17.153  0.00  0.00    +0.000 HD
ENDBRANCH   5   7
BRANCH   1  20
ATOM     16  C   UNL     1       1.597   2.598  21.635  0.00  0.00    +0.000 C 
ATOM     17  N   UNL     1       1.241   2.965  20.271  0.00  0.00    +0.000 NA
ATOM     18  C   UNL     1       1.963   2.170  19.275  0.00  0.00    +0.000 C 
ATOM     19  C   UNL     1       1.727   2.951  17.991  0.00  0.00    +0.000 C 
ATOM     20  C   UNL     1       1.679   4.422  18.432  0.00  0.00    +0.000 C 
ATOM     21  C   UNL     1       1.613   4.352  19.967  0.00  0.00    +0.000 C 
ENDBRANCH   1  20
TORSDOF 2
ENDMDL
MODEL 7
REMARK VINA RESULT:      -7.1      1.595      3.405
REMARK  Name = 
REMARK  3 active torsions:
REMARK  status: ('A' for Active; 'I' for Inactive)
REMARK    1  A    between atoms: C_1  and  N_2
REMARK    2  A    between atoms: C_5  and  C_6
REMARK    3  A    between atoms: C_10  and  C_11
REMARK                            x       y       z     vdW  Elec       q    Type
REMARK                         _______ _______ _______ _____ _____    ______ ____
ROOT
ATOM      1  C   UNL     1       2.754   5.249  18.255  0.00  0.00    +0.000 A 
ATOM      2  N   UNL     1       1.532   4.743  18.488  0.00  0.00    +0.000 NA
ATOM      3  N   UNL     1       1.535   3.562  17.857  0.00  0.00    +0.000 N 
ATOM      4  C   UNL     1       2.725   3.265  17.267  0.00  0.00    +0.000 A 
ATOM      5  C   UNL     1       3.563   4.337  17.502  0.00  0.00    +0.000 A 
ATOM      6  H   UNL     1       0.685   3.008  17.872  0.00  0.00    +0.000 HD
ENDROOT
BRANCH   5   7
ATOM      7  C   UNL     1       4.936   4.411  17.020  0.00  0.00    +0.000 A 
ATOM      8  C   UNL     1       5.219   4.435  15.656  0.00  0.00    +0.000 A 
ATOM      9  C   UNL     1       6.542   4.460  15.250  0.00  0.00    +0.000 A 
ATOM     10  N   UNL     1       7.588   4.488  16.099  0.00  0.00    +0.000 NA
ATOM     11  C   UNL     1       7.308   4.495  17.412  0.00  0.00    +0.000 A 
ATOM     12  N   UNL     1       8.399   4.579  18.272  0.00  0.00    +0.000 N 
ATOM     13  C   UNL     1       6.012   4.463  17.910  0.00  0.00    +0.000 A 
ATOM     14  H   UNL     1       9.232   4.529  17.690  0.00  0.00    +0.000 HD
ATOM     15  H   UNL     1       8.382   3.847  18.972  0.00  0.00    +0.000 HD
ENDBRANCH   5   7
BRANCH   1  20
ATOM     16  C   UNL     1       0.697   9.042  20.151  0.00  0.00    +0.000 C 
ATOM     17  N   UNL     1       1.934   8.534  19.572  0.00  0.00    +0.000 NA
ATOM     18  C   UNL     1       1.942   8.629  18.110  0.00  0.00    +0.000 C 
ATOM     19  C   UNL     1       3.112   7.735  17.726  0.00  0.00    +0.000 C 
ATOM     20  C   UNL     1       3.109   6.616  18.779  0.00  0.00    +0.000 C 
ATOM     21  C   UNL     1       2.114   7.104  19.845  0.00  0.00    +0.000 C 
ENDBRANCH   1  20
TORSDOF 2
ENDMDL
MODEL 8
REMARK VINA RESULT:      -7.1      1.184      5.277
REMARK  Name = 
REMARK  3 active torsions:
REMARK  status: ('A' for Active; 'I' for Inactive)
REMARK    1  A    between atoms: C_1  and  N_2
REMARK    2  A    between atoms: C_5  and  C_6
REMARK    3  A    between atoms: C_10  and  C_11
REMARK                            x       y       z     vdW  Elec       q    Type
REMARK                         _______ _______ _______ _____ _____    ______ ____
ROOT
ATOM      1  C   UNL     1       3.617   6.303  17.611  0.00  0.00    +0.000 A 
ATOM      2  N   UNL     1       3.735   7.626  17.412  0.00  0.00    +0.000 NA
ATOM      3  N   UNL     1       2.764   8.163  18.160  0.00  0.00    +0.000 N 
ATOM      4  C   UNL     1       2.054   7.245  18.870  0.00  0.00    +0.000 A 
ATOM      5  C   UNL     1       2.576   6.007  18.551  0.00  0.00    +0.000 A 
ATOM      6  H   UNL     1       2.643   9.171  18.138  0.00  0.00    +0.000 HD
ENDROOT
BRANCH   5   7
ATOM      7  C   UNL     1       2.077   4.753  19.100  0.00  0.00    +0.000 A 
ATOM      8  C   UNL     1       1.406   3.833  18.298  0.00  0.00    +0.000 A 
ATOM      9  C   UNL     1       0.912   2.678  18.878  0.00  0.00    +0.000 A 
ATOM     10  N   UNL     1       1.062   2.368  20.182  0.00  0.00    +0.000 NA
ATOM     11  C   UNL     1       1.735   3.245  20.943  0.00  0.00    +0.000 A 
ATOM     12  N   UNL     1       1.927   2.883  22.273  0.00  0.00    +0.000 N 
ATOM     13  C   UNL     1       2.259   4.432  20.448  0.00  0.00    +0.000 A 
ATOM     14  H   UNL     1       1.412   2.017  22.415  0.00  0.00    +0.000 HD
ATOM     15  H   UNL     1       1.625   3.612  22.908  0.00  0.00    +0.000 HD
ENDBRANCH   5   7
BRANCH   1  20
ATOM     16  C   UNL     1       7.952   4.484  17.938  0.00  0.00    +0.000 C 
ATOM     17  N   UNL     1       6.796   4.633  17.064  0.00  0.00    +0.000 NA
ATOM     18  C   UNL     1       6.820   5.894  16.319  0.00  0.00    +0.000 C 
ATOM     19  C   UNL     1       5.398   5.994  15.789  0.00  0.00    +0.000 C 
ATOM     20  C   UNL     1       4.529   5.352  16.882  0.00  0.00    +0.000 C 
ATOM     21  C   UNL     1       5.542   4.684  17.826  0.00  0.00    +0.000 C 
ENDBRANCH   1  20
TORSDOF 2
ENDMDL
MODEL 9
REMARK VINA RESULT:      -7.1      1.108      1.715
REMARK  Name = 
REMARK  3 active torsions:
REMARK  status: ('A' for Active; 'I' for Inactive)
REMARK    1  A    between atoms: C_1  and  N_2
REMARK    2  A    between atoms: C_5  and  C_6
REMARK    3  A    between atoms: C_10  and  C_11
REMARK                            x       y       z     vdW  Elec       q    Type
REMARK                         _______ _______ _______ _____ _____    ______ ____
ROOT
ATOM      1  C   UNL     1       2.721   6.053  18.124  0.00  0.00    +0.000 A 
ATOM      2  N   UNL     1       1.889   7.055  18.447  0.00  0.00    +0.000 NA
ATOM      3  N   UNL     1       2.543   8.164  18.079  0.00  0.00    +0.000 N 
ATOM      4  C   UNL     1       3.743   7.915  17.488  0.00  0.00    +0.000 A 
ATOM      5  C   UNL     1       3.908   6.544  17.487  0.00  0.00    +0.000 A 
ATOM      6  H   UNL     1       2.107   9.062  18.262  0.00  0.00    +0.000 HD
ENDROOT
BRANCH   5   7
ATOM      7  C   UNL     1       5.082   5.871  16.947  0.00  0.00    +0.000 A 
ATOM      8  C   UNL     1       5.239   5.687  15.575  0.00  0.00    +0.000 A 
ATOM      9  C   UNL     1       6.350   5.002  15.117  0.00  0.00    +0.000 A 
ATOM     10  N   UNL     1       7.318   4.516  15.920  0.00  0.00    +0.000 NA
ATOM     11  C   UNL     1       7.176   4.723  17.238  0.00  0.00    +0.000 A 
ATOM     12  N   UNL     1       8.211   4.262  18.047  0.00  0.00    +0.000 N 
ATOM     13  C   UNL     1       6.091   5.392  17.788  0.00  0.00    +0.000 A 
ATOM     14  H   UNL     1       8.855   3.761  17.437  0.00  0.00    +0.000 HD
ATOM     15  H   UNL     1       7.868   3.677  18.799  0.00  0.00    +0.000 HD
ENDBRANCH   5   7
BRANCH   1  20
ATOM     16  C   UNL     1       4.559   2.151  20.022  0.00  0.00    +0.000 C 
ATOM     17  N   UNL     1       3.433   2.678  19.263  0.00  0.00    +0.000 NA
ATOM     18  C   UNL     1       3.709   2.731  17.825  0.00  0.00    +0.000 C 
ATOM     19  C   UNL     1       2.591   3.624  17.306  0.00  0.00    +0.000 C 
ATOM     20  C   UNL     1       2.339   4.631  18.439  0.00  0.00    +0.000 C 
ATOM     21  C   UNL     1       3.135   4.068  19.628  0.00  0.00    +0.000 C 
ENDBRANCH   1  20
TORSDOF 2
ENDMDL
