MODEL 1
REMARK VINA RESULT:      -5.9      0.000      0.000
REMARK  Name = 
REMARK  10 active torsions:
REMARK  status: ('A' for Active; 'I' for Inactive)
REMARK    1  A    between atoms: C_1  and  C_2
REMARK    2  A    between atoms: C_4  and  C_5
REMARK    3  A    between atoms: C_6  and  O_7
REMARK    4  A    between atoms: C_12  and  C_13
REMARK    5  A    between atoms: C_17  and  C_18
REMARK    6  A    between atoms: C_18  and  O_20
REMARK    7  A    between atoms: C_25  and  C_26
REMARK    8  A    between atoms: C_28  and  O_29
REMARK    9  A    between atoms: C_30  and  C_31
REMARK   10  A    between atoms: C_33  and  C_34
REMARK                            x       y       z     vdW  Elec       q    Type
REMARK                         _______ _______ _______ _____ _____    ______ ____
ROOT
ATOM      1  C   UNL     1      -7.129  13.499  21.332  0.00  0.00    +0.000 C 
ATOM      2  C   UNL     1      -5.736  13.450  20.699  0.00  0.00    +0.000 C 
ATOM      3  C   UNL     1      -4.945  14.759  20.954  0.00  0.00    +0.000 C 
ATOM      4  C   UNL     1      -3.963  14.616  22.152  0.00  0.00    +0.000 C 
ATOM      5  C   UNL     1      -4.527  15.324  23.386  0.00  0.00    +0.000 C 
ATOM      6  C   UNL     1      -2.533  15.091  21.764  0.00  0.00    +0.000 C 
ATOM      7  C   UNL     1      -1.522  14.893  22.891  0.00  0.00    +0.000 C 
ATOM      8  C   UNL     1      -0.093  14.937  22.446  0.00  0.00    +0.000 C 
ATOM      9  O   UNL     1       0.770  15.593  23.022  0.00  0.00    +0.000 OA
ATOM     10  O   UNL     1       0.161  14.100  21.390  0.00  0.00    +0.000 OA
ATOM     11  C   UNL     1       1.532  13.989  20.940  0.00  0.00    +0.000 C 
ATOM     12  C   UNL     1       1.812  12.476  20.638  0.00  0.00    +0.000 C 
ATOM     13  C   UNL     1       1.210  12.070  19.290  0.00  0.00    +0.000 C 
ATOM     14  C   UNL     1       1.205  10.595  18.868  0.00  0.00    +0.000 C 
ATOM     15  C   UNL     1       0.295  10.444  17.602  0.00  0.00    +0.000 C 
ATOM     16  C   UNL     1      -1.193  10.182  17.938  0.00  0.00    +0.000 C 
ATOM     17  C   UNL     1      -2.288  10.398  16.896  0.00  0.00    +0.000 C 
ATOM     18  C   UNL     1      -3.761  10.241  17.441  0.00  0.00    +0.000 C 
ATOM     19  C   UNL     1      -3.890   9.128  18.503  0.00  0.00    +0.000 C 
ATOM     20  C   UNL     1      -4.357  11.610  17.854  0.00  0.00    +0.000 C 
ATOM     21  C   UNL     1      -5.516  11.647  18.872  0.00  0.00    +0.000 C 
ATOM     22  C   UNL     1      -6.771  10.918  18.400  0.00  0.00    +0.000 C 
ATOM     23  C   UNL     1      -5.853  13.135  19.188  0.00  0.00    +0.000 C 
ENDROOT
BRANCH  11  24
ATOM     24  C   UNL     1       1.767  14.896  19.702  0.00  0.00    +0.000 C 
ATOM     25  C   UNL     1       3.234  14.871  19.282  0.00  0.00    +0.000 C 
ATOM     26  C   UNL     1       3.418  16.086  18.401  0.00  0.00    +0.000 C 
ATOM     27  C   UNL     1       2.372  17.094  18.849  0.00  0.00    +0.000 C 
ATOM     28  C   UNL     1       1.470  16.391  19.873  0.00  0.00    +0.000 C 
BRANCH  28  29
ATOM     29  C   UNL     1       0.041  16.788  19.546  0.00  0.00    +0.000 C 
ATOM     30  O   UNL     1      -0.490  17.826  19.921  0.00  0.00    +0.000 OA
BRANCH  29  31
ATOM     31  O   UNL     1      -0.641  15.803  18.915  0.00  0.00    +0.000 OA
ATOM     32  H   UNL     1      -0.243  14.921  19.023  0.00  0.00    +0.000 HD
ENDBRANCH  29  31
ENDBRANCH  28  29
ENDBRANCH  11  24
BRANCH   6  33
ATOM     33  O   UNL     1      -2.549  16.466  21.383  0.00  0.00    +0.000 OA
ATOM     34  H   UNL     1      -2.788  16.550  20.447  0.00  0.00    +0.000 HD
ENDBRANCH   6  33
BRANCH  16  35
ATOM     35  C   UNL     1      -1.507  10.818  19.282  0.00  0.00    +0.000 C 
ATOM     36  N   UNL     1      -1.767  11.346  20.397  0.00  0.00    +0.000 NA
ENDBRANCH  16  35
BRANCH  17  37
ATOM     37  O   UNL     1      -2.103  11.614  16.174  0.00  0.00    +0.000 OA
ATOM     38  H   UNL     1      -1.773  11.418  15.278  0.00  0.00    +0.000 HD
ENDBRANCH  17  37
TORSDOF 6
ENDMDL
MODEL 2
REMARK VINA RESULT:      -5.7      2.653      7.668
REMARK  Name = 
REMARK  10 active torsions:
REMARK  status: ('A' for Active; 'I' for Inactive)
REMARK    1  A    between atoms: C_1  and  C_2
REMARK    2  A    between atoms: C_4  and  C_5
REMARK    3  A    between atoms: C_6  and  O_7
REMARK    4  A    between atoms: C_12  and  C_13
REMARK    5  A    between atoms: C_17  and  C_18
REMARK    6  A    between atoms: C_18  and  O_20
REMARK    7  A    between atoms: C_25  and  C_26
REMARK    8  A    between atoms: C_28  and  O_29
REMARK    9  A    between atoms: C_30  and  C_31
REMARK   10  A    between atoms: C_33  and  C_34
REMARK                            x       y       z     vdW  Elec       q    Type
REMARK                         _______ _______ _______ _____ _____    ______ ____
ROOT
ATOM      1  C   UNL     1       2.583  11.712  18.027  0.00  0.00    +0.000 C 
ATOM      2  C   UNL     1       1.707  12.705  18.794  0.00  0.00    +0.000 C 
ATOM      3  C   UNL     1       0.245  12.204  18.917  0.00  0.00    +0.000 C 
ATOM      4  C   UNL     1      -0.020  11.529  20.293  0.00  0.00    +0.000 C 
ATOM      5  C   UNL     1      -0.054  10.007  20.139  0.00  0.00    +0.000 C 
ATOM      6  C   UNL     1      -1.294  12.113  20.968  0.00  0.00    +0.000 C 
ATOM      7  C   UNL     1      -1.544  11.531  22.357  0.00  0.00    +0.000 C 
ATOM      8  C   UNL     1      -2.484  12.337  23.198  0.00  0.00    +0.000 C 
ATOM      9  O   UNL     1      -3.416  11.842  23.825  0.00  0.00    +0.000 OA
ATOM     10  O   UNL     1      -2.138  13.662  23.263  0.00  0.00    +0.000 OA
ATOM     11  C   UNL     1      -2.922  14.516  24.129  0.00  0.00    +0.000 C 
ATOM     12  C   UNL     1      -1.930  15.469  24.881  0.00  0.00    +0.000 C 
ATOM     13  C   UNL     1      -1.475  16.611  23.967  0.00  0.00    +0.000 C 
ATOM     14  C   UNL     1      -0.366  17.565  24.430  0.00  0.00    +0.000 C 
ATOM     15  C   UNL     1       0.079  18.438  23.208  0.00  0.00    +0.000 C 
ATOM     16  C   UNL     1       1.210  17.796  22.369  0.00  0.00    +0.000 C 
ATOM     17  C   UNL     1       1.508  18.272  20.949  0.00  0.00    +0.000 C 
ATOM     18  C   UNL     1       2.581  17.411  20.174  0.00  0.00    +0.000 C 
ATOM     19  C   UNL     1       3.714  16.902  21.090  0.00  0.00    +0.000 C 
ATOM     20  C   UNL     1       1.906  16.323  19.302  0.00  0.00    +0.000 C 
ATOM     21  C   UNL     1       2.717  15.073  18.902  0.00  0.00    +0.000 C 
ATOM     22  C   UNL     1       3.953  15.386  18.063  0.00  0.00    +0.000 C 
ATOM     23  C   UNL     1       1.781  14.100  18.126  0.00  0.00    +0.000 C 
ENDROOT
BRANCH  11  24
ATOM     24  C   UNL     1      -3.982  15.293  23.302  0.00  0.00    +0.000 C 
ATOM     25  C   UNL     1      -4.795  16.222  24.199  0.00  0.00    +0.000 C 
ATOM     26  C   UNL     1      -6.035  16.561  23.402  0.00  0.00    +0.000 C 
ATOM     27  C   UNL     1      -6.263  15.392  22.458  0.00  0.00    +0.000 C 
ATOM     28  C   UNL     1      -5.052  14.456  22.589  0.00  0.00    +0.000 C 
BRANCH  28  29
ATOM     29  C   UNL     1      -4.677  14.023  21.183  0.00  0.00    +0.000 C 
ATOM     30  O   UNL     1      -5.155  13.053  20.609  0.00  0.00    +0.000 OA
BRANCH  29  31
ATOM     31  O   UNL     1      -3.645  14.739  20.677  0.00  0.00    +0.000 OA
ATOM     32  H   UNL     1      -3.590  15.646  21.025  0.00  0.00    +0.000 HD
ENDBRANCH  29  31
ENDBRANCH  28  29
ENDBRANCH  11  24
BRANCH   6  33
ATOM     33  O   UNL     1      -2.441  11.885  20.150  0.00  0.00    +0.000 OA
ATOM     34  H   UNL     1      -3.251  12.044  20.657  0.00  0.00    +0.000 HD
ENDBRANCH   6  33
BRANCH  16  35
ATOM     35  C   UNL     1       1.106  16.285  22.489  0.00  0.00    +0.000 C 
ATOM     36  N   UNL     1       1.019  15.031  22.589  0.00  0.00    +0.000 NA
ENDBRANCH  16  35
BRANCH  17  37
ATOM     37  O   UNL     1       0.316  18.464  20.191  0.00  0.00    +0.000 OA
ATOM     38  H   UNL     1       0.384  19.286  19.672  0.00  0.00    +0.000 HD
ENDBRANCH  17  37
TORSDOF 6
ENDMDL
MODEL 3
REMARK VINA RESULT:      -5.7      1.105      1.263
REMARK  Name = 
REMARK  10 active torsions:
REMARK  status: ('A' for Active; 'I' for Inactive)
REMARK    1  A    between atoms: C_1  and  C_2
REMARK    2  A    between atoms: C_4  and  C_5
REMARK    3  A    between atoms: C_6  and  O_7
REMARK    4  A    between atoms: C_12  and  C_13
REMARK    5  A    between atoms: C_17  and  C_18
REMARK    6  A    between atoms: C_18  and  O_20
REMARK    7  A    between atoms: C_25  and  C_26
REMARK    8  A    between atoms: C_28  and  O_29
REMARK    9  A    between atoms: C_30  and  C_31
REMARK   10  A    between atoms: C_33  and  C_34
REMARK                            x       y       z     vdW  Elec       q    Type
REMARK                         _______ _______ _______ _____ _____    ______ ____
ROOT
ATOM      1  C   UNL     1      -7.190  15.456  21.317  0.00  0.00    +0.000 C 
ATOM      2  C   UNL     1      -5.910  14.971  20.630  0.00  0.00    +0.000 C 
ATOM      3  C   UNL     1      -4.768  16.014  20.743  0.00  0.00    +0.000 C 
ATOM      4  C   UNL     1      -3.791  15.674  21.905  0.00  0.00    +0.000 C 
ATOM      5  C   UNL     1      -4.052  16.592  23.102  0.00  0.00    +0.000 C 
ATOM      6  C   UNL     1      -2.313  15.695  21.418  0.00  0.00    +0.000 C 
ATOM      7  C   UNL     1      -1.327  15.290  22.512  0.00  0.00    +0.000 C 
ATOM      8  C   UNL     1       0.024  14.895  22.002  0.00  0.00    +0.000 C 
ATOM      9  O   UNL     1       1.072  15.314  22.485  0.00  0.00    +0.000 OA
ATOM     10  O   UNL     1      -0.037  13.955  21.007  0.00  0.00    +0.000 OA
ATOM     11  C   UNL     1       1.215  13.428  20.508  0.00  0.00    +0.000 C 
ATOM     12  C   UNL     1       1.038  11.882  20.316  0.00  0.00    +0.000 C 
ATOM     13  C   UNL     1       0.260  11.578  19.033  0.00  0.00    +0.000 C 
ATOM     14  C   UNL     1      -0.187  10.142  18.732  0.00  0.00    +0.000 C 
ATOM     15  C   UNL     1      -1.183  10.176  17.522  0.00  0.00    +0.000 C 
ATOM     16  C   UNL     1      -2.659  10.371  17.943  0.00  0.00    +0.000 C 
ATOM     17  C   UNL     1      -3.715  10.823  16.936  0.00  0.00    +0.000 C 
ATOM     18  C   UNL     1      -5.134  11.128  17.557  0.00  0.00    +0.000 C 
ATOM     19  C   UNL     1      -5.501  10.169  18.710  0.00  0.00    +0.000 C 
ATOM     20  C   UNL     1      -5.293  12.634  17.884  0.00  0.00    +0.000 C 
ATOM     21  C   UNL     1      -6.325  13.066  18.946  0.00  0.00    +0.000 C 
ATOM     22  C   UNL     1      -7.763  12.697  18.590  0.00  0.00    +0.000 C 
ATOM     23  C   UNL     1      -6.209  14.605  19.156  0.00  0.00    +0.000 C 
ENDROOT
BRANCH  11  24
ATOM     24  C   UNL     1       1.615  14.149  19.192  0.00  0.00    +0.000 C 
ATOM     25  C   UNL     1       3.044  13.792  18.791  0.00  0.00    +0.000 C 
ATOM     26  C   UNL     1       3.458  14.857  17.800  0.00  0.00    +0.000 C 
ATOM     27  C   UNL     1       2.638  16.091  18.140  0.00  0.00    +0.000 C 
ATOM     28  C   UNL     1       1.623  15.682  19.217  0.00  0.00    +0.000 C 
BRANCH  28  29
ATOM     29  C   UNL     1       0.299  16.323  18.839  0.00  0.00    +0.000 C 
ATOM     30  O   UNL     1       0.052  17.516  18.954  0.00  0.00    +0.000 OA
BRANCH  29  31
ATOM     31  O   UNL     1      -0.641  15.410  18.496  0.00  0.00    +0.000 OA
ATOM     32  H   UNL     1      -1.520  15.795  18.334  0.00  0.00    +0.000 HD
ENDBRANCH  29  31
ENDBRANCH  28  29
ENDBRANCH  11  24
BRANCH   6  33
ATOM     33  O   UNL     1      -1.967  16.990  20.928  0.00  0.00    +0.000 OA
ATOM     34  H   UNL     1      -1.064  16.984  20.575  0.00  0.00    +0.000 HD
ENDBRANCH   6  33
BRANCH  16  35
ATOM     35  C   UNL     1      -2.694  11.155  19.245  0.00  0.00    +0.000 C 
ATOM     36  N   UNL     1      -2.723  11.805  20.325  0.00  0.00    +0.000 NA
ENDBRANCH  16  35
BRANCH  17  37
ATOM     37  O   UNL     1      -3.242  11.886  16.112  0.00  0.00    +0.000 OA
ATOM     38  H   UNL     1      -3.086  12.680  16.655  0.00  0.00    +0.000 HD
ENDBRANCH  17  37
TORSDOF 6
ENDMDL
MODEL 4
REMARK VINA RESULT:      -5.7      2.608      6.732
REMARK  Name = 
REMARK  10 active torsions:
REMARK  status: ('A' for Active; 'I' for Inactive)
REMARK    1  A    between atoms: C_1  and  C_2
REMARK    2  A    between atoms: C_4  and  C_5
REMARK    3  A    between atoms: C_6  and  O_7
REMARK    4  A    between atoms: C_12  and  C_13
REMARK    5  A    between atoms: C_17  and  C_18
REMARK    6  A    between atoms: C_18  and  O_20
REMARK    7  A    between atoms: C_25  and  C_26
REMARK    8  A    between atoms: C_28  and  O_29
REMARK    9  A    between atoms: C_30  and  C_31
REMARK   10  A    between atoms: C_33  and  C_34
REMARK                            x       y       z     vdW  Elec       q    Type
REMARK                         _______ _______ _______ _____ _____    ______ ____
ROOT
ATOM      1  C   UNL     1      -3.763  16.666  25.401  0.00  0.00    +0.000 C 
ATOM      2  C   UNL     1      -2.680  15.984  24.562  0.00  0.00    +0.000 C 
ATOM      3  C   UNL     1      -3.039  14.506  24.256  0.00  0.00    +0.000 C 
ATOM      4  C   UNL     1      -3.666  14.345  22.842  0.00  0.00    +0.000 C 
ATOM      5  C   UNL     1      -5.181  14.152  22.953  0.00  0.00    +0.000 C 
ATOM      6  C   UNL     1      -2.954  13.219  22.038  0.00  0.00    +0.000 C 
ATOM      7  C   UNL     1      -3.491  13.083  20.615  0.00  0.00    +0.000 C 
ATOM      8  C   UNL     1      -2.587  12.328  19.690  0.00  0.00    +0.000 C 
ATOM      9  O   UNL     1      -2.983  11.435  18.947  0.00  0.00    +0.000 OA
ATOM     10  O   UNL     1      -1.301  12.801  19.699  0.00  0.00    +0.000 OA
ATOM     11  C   UNL     1      -0.364  12.208  18.769  0.00  0.00    +0.000 C 
ATOM     12  C   UNL     1       0.501  13.367  18.162  0.00  0.00    +0.000 C 
ATOM     13  C   UNL     1       1.581  13.815  19.151  0.00  0.00    +0.000 C 
ATOM     14  C   UNL     1       2.431  15.054  18.845  0.00  0.00    +0.000 C 
ATOM     15  C   UNL     1       3.241  15.431  20.132  0.00  0.00    +0.000 C 
ATOM     16  C   UNL     1       2.483  16.390  21.081  0.00  0.00    +0.000 C 
ATOM     17  C   UNL     1       2.909  16.560  22.537  0.00  0.00    +0.000 C 
ATOM     18  C   UNL     1       1.939  17.448  23.411  0.00  0.00    +0.000 C 
ATOM     19  C   UNL     1       1.337  18.630  22.621  0.00  0.00    +0.000 C 
ATOM     20  C   UNL     1       0.908  16.577  24.170  0.00  0.00    +0.000 C 
ATOM     21  C   UNL     1      -0.419  17.215  24.631  0.00  0.00    +0.000 C 
ATOM     22  C   UNL     1      -0.236  18.366  25.617  0.00  0.00    +0.000 C 
ATOM     23  C   UNL     1      -1.309  16.107  25.268  0.00  0.00    +0.000 C 
ENDROOT
BRANCH  11  24
ATOM     24  C   UNL     1       0.498  11.135  19.486  0.00  0.00    +0.000 C 
ATOM     25  C   UNL     1       0.866  10.005  18.527  0.00  0.00    +0.000 C 
ATOM     26  C   UNL     1       1.291   8.854  19.410  0.00  0.00    +0.000 C 
ATOM     27  C   UNL     1       0.563   9.044  20.731  0.00  0.00    +0.000 C 
ATOM     28  C   UNL     1      -0.149  10.403  20.668  0.00  0.00    +0.000 C 
BRANCH  28  29
ATOM     29  C   UNL     1       0.065  11.074  22.014  0.00  0.00    +0.000 C 
ATOM     30  O   UNL     1      -0.371  10.646  23.075  0.00  0.00    +0.000 OA
BRANCH  29  31
ATOM     31  O   UNL     1       0.667  12.282  21.903  0.00  0.00    +0.000 OA
ATOM     32  H   UNL     1       0.396  12.783  21.114  0.00  0.00    +0.000 HD
ENDBRANCH  29  31
ENDBRANCH  28  29
ENDBRANCH  11  24
BRANCH   6  33
ATOM     33  O   UNL     1      -3.083  11.967  22.711  0.00  0.00    +0.000 OA
ATOM     34  H   UNL     1      -3.308  12.110  23.643  0.00  0.00    +0.000 HD
ENDBRANCH   6  33
BRANCH  16  35
ATOM     35  C   UNL     1       0.990  16.160  20.912  0.00  0.00    +0.000 C 
ATOM     36  N   UNL     1      -0.249  15.970  20.773  0.00  0.00    +0.000 NA
ENDBRANCH  16  35
BRANCH  17  37
ATOM     37  O   UNL     1       3.203  15.309  23.155  0.00  0.00    +0.000 OA
ATOM     38  H   UNL     1       2.378  14.810  23.298  0.00  0.00    +0.000 HD
ENDBRANCH  17  37
TORSDOF 6
ENDMDL
MODEL 5
REMARK VINA RESULT:      -5.7      2.205      6.467
REMARK  Name = 
REMARK  10 active torsions:
REMARK  status: ('A' for Active; 'I' for Inactive)
REMARK    1  A    between atoms: C_1  and  C_2
REMARK    2  A    between atoms: C_4  and  C_5
REMARK    3  A    between atoms: C_6  and  O_7
REMARK    4  A    between atoms: C_12  and  C_13
REMARK    5  A    between atoms: C_17  and  C_18
REMARK    6  A    between atoms: C_18  and  O_20
REMARK    7  A    between atoms: C_25  and  C_26
REMARK    8  A    between atoms: C_28  and  O_29
REMARK    9  A    between atoms: C_30  and  C_31
REMARK   10  A    between atoms: C_33  and  C_34
REMARK                            x       y       z     vdW  Elec       q    Type
REMARK                         _______ _______ _______ _____ _____    ______ ____
ROOT
ATOM      1  C   UNL     1      -3.083   9.708  16.907  0.00  0.00    +0.000 C 
ATOM      2  C   UNL     1      -3.007  10.908  17.854  0.00  0.00    +0.000 C 
ATOM      3  C   UNL     1      -4.258  11.816  17.731  0.00  0.00    +0.000 C 
ATOM      4  C   UNL     1      -5.301  11.517  18.845  0.00  0.00    +0.000 C 
ATOM      5  C   UNL     1      -6.468  10.706  18.276  0.00  0.00    +0.000 C 
ATOM      6  C   UNL     1      -5.745  12.823  19.564  0.00  0.00    +0.000 C 
ATOM      7  C   UNL     1      -6.710  12.562  20.717  0.00  0.00    +0.000 C 
ATOM      8  C   UNL     1      -6.836  13.702  21.679  0.00  0.00    +0.000 C 
ATOM      9  O   UNL     1      -7.916  14.127  22.078  0.00  0.00    +0.000 OA
ATOM     10  O   UNL     1      -5.623  14.153  22.131  0.00  0.00    +0.000 OA
ATOM     11  C   UNL     1      -5.630  15.189  23.142  0.00  0.00    +0.000 C 
ATOM     12  C   UNL     1      -4.525  14.833  24.195  0.00  0.00    +0.000 C 
ATOM     13  C   UNL     1      -3.133  15.190  23.666  0.00  0.00    +0.000 C 
ATOM     14  C   UNL     1      -1.885  14.767  24.451  0.00  0.00    +0.000 C 
ATOM     15  C   UNL     1      -0.626  15.014  23.552  0.00  0.00    +0.000 C 
ATOM     16  C   UNL     1      -0.265  13.809  22.651  0.00  0.00    +0.000 C 
ATOM     17  C   UNL     1       0.653  13.975  21.441  0.00  0.00    +0.000 C 
ATOM     18  C   UNL     1       0.794  12.689  20.537  0.00  0.00    +0.000 C 
ATOM     19  C   UNL     1       0.793  11.379  21.354  0.00  0.00    +0.000 C 
ATOM     20  C   UNL     1      -0.206  12.721  19.353  0.00  0.00    +0.000 C 
ATOM     21  C   UNL     1      -0.616  11.394  18.682  0.00  0.00    +0.000 C 
ATOM     22  C   UNL     1       0.551  10.638  18.051  0.00  0.00    +0.000 C 
ATOM     23  C   UNL     1      -1.699  11.696  17.603  0.00  0.00    +0.000 C 
ENDROOT
BRANCH  11  24
ATOM     24  C   UNL     1      -5.403  16.579  22.488  0.00  0.00    +0.000 C 
ATOM     25  C   UNL     1      -6.568  17.518  22.790  0.00  0.00    +0.000 C 
ATOM     26  C   UNL     1      -6.459  18.630  21.771  0.00  0.00    +0.000 C 
ATOM     27  C   UNL     1      -5.754  18.030  20.565  0.00  0.00    +0.000 C 
ATOM     28  C   UNL     1      -5.300  16.616  20.958  0.00  0.00    +0.000 C 
BRANCH  28  29
ATOM     29  C   UNL     1      -3.891  16.441  20.419  0.00  0.00    +0.000 C 
ATOM     30  O   UNL     1      -3.229  17.338  19.913  0.00  0.00    +0.000 OA
BRANCH  29  31
ATOM     31  O   UNL     1      -3.492  15.147  20.420  0.00  0.00    +0.000 OA
ATOM     32  H   UNL     1      -2.737  14.972  21.011  0.00  0.00    +0.000 HD
ENDBRANCH  29  31
ENDBRANCH  28  29
ENDBRANCH  11  24
BRANCH   6  33
ATOM     33  O   UNL     1      -6.353  13.721  18.635  0.00  0.00    +0.000 OA
ATOM     34  H   UNL     1      -6.146  13.453  17.727  0.00  0.00    +0.000 HD
ENDBRANCH   6  33
BRANCH  16  35
ATOM     35  C   UNL     1      -1.536  13.036  22.341  0.00  0.00    +0.000 C 
ATOM     36  N   UNL     1      -2.591  12.395  22.084  0.00  0.00    +0.000 NA
ENDBRANCH  16  35
BRANCH  17  37
ATOM     37  O   UNL     1       0.331  15.139  20.684  0.00  0.00    +0.000 OA
ATOM     38  H   UNL     1       1.133  15.481  20.248  0.00  0.00    +0.000 HD
ENDBRANCH  17  37
TORSDOF 6
ENDMDL
MODEL 6
REMARK VINA RESULT:      -5.5      2.447      6.923
REMARK  Name = 
REMARK  10 active torsions:
REMARK  status: ('A' for Active; 'I' for Inactive)
REMARK    1  A    between atoms: C_1  and  C_2
REMARK    2  A    between atoms: C_4  and  C_5
REMARK    3  A    between atoms: C_6  and  O_7
REMARK    4  A    between atoms: C_12  and  C_13
REMARK    5  A    between atoms: C_17  and  C_18
REMARK    6  A    between atoms: C_18  and  O_20
REMARK    7  A    between atoms: C_25  and  C_26
REMARK    8  A    between atoms: C_28  and  O_29
REMARK    9  A    between atoms: C_30  and  C_31
REMARK   10  A    between atoms: C_33  and  C_34
REMARK                            x       y       z     vdW  Elec       q    Type
REMARK                         _______ _______ _______ _____ _____    ______ ____
ROOT
ATOM      1  C   UNL     1       1.076  16.744  22.075  0.00  0.00    +0.000 C 
ATOM      2  C   UNL     1       0.156  15.578  21.706  0.00  0.00    +0.000 C 
ATOM      3  C   UNL     1      -1.235  15.711  22.379  0.00  0.00    +0.000 C 
ATOM      4  C   UNL     1      -2.289  16.319  21.410  0.00  0.00    +0.000 C 
ATOM      5  C   UNL     1      -2.549  17.785  21.763  0.00  0.00    +0.000 C 
ATOM      6  C   UNL     1      -3.580  15.452  21.368  0.00  0.00    +0.000 C 
ATOM      7  C   UNL     1      -4.609  15.974  20.369  0.00  0.00    +0.000 C 
ATOM      8  C   UNL     1      -5.658  14.975  19.992  0.00  0.00    +0.000 C 
ATOM      9  O   UNL     1      -6.857  15.237  19.970  0.00  0.00    +0.000 OA
ATOM     10  O   UNL     1      -5.130  13.775  19.590  0.00  0.00    +0.000 OA
ATOM     11  C   UNL     1      -6.051  12.768  19.109  0.00  0.00    +0.000 C 
ATOM     12  C   UNL     1      -5.404  12.095  17.850  0.00  0.00    +0.000 C 
ATOM     13  C   UNL     1      -4.328  11.086  18.264  0.00  0.00    +0.000 C 
ATOM     14  C   UNL     1      -3.437  10.437  17.197  0.00  0.00    +0.000 C 
ATOM     15  C   UNL     1      -2.269   9.682  17.919  0.00  0.00    +0.000 C 
ATOM     16  C   UNL     1      -1.028  10.568  18.179  0.00  0.00    +0.000 C 
ATOM     17  C   UNL     1       0.035  10.160  19.197  0.00  0.00    +0.000 C 
ATOM     18  C   UNL     1       1.151  11.245  19.459  0.00  0.00    +0.000 C 
ATOM     19  C   UNL     1       1.536  12.028  18.185  0.00  0.00    +0.000 C 
ATOM     20  C   UNL     1       0.802  12.125  20.686  0.00  0.00    +0.000 C 
ATOM     21  C   UNL     1       1.431  13.529  20.805  0.00  0.00    +0.000 C 
ATOM     22  C   UNL     1       2.955  13.515  20.886  0.00  0.00    +0.000 C 
ATOM     23  C   UNL     1       0.839  14.235  22.060  0.00  0.00    +0.000 C 
ENDROOT
BRANCH  11  24
ATOM     24  C   UNL     1      -6.365  11.745  20.235  0.00  0.00    +0.000 C 
ATOM     25  C   UNL     1      -7.163  10.565  19.688  0.00  0.00    +0.000 C 
ATOM     26  C   UNL     1      -7.775   9.901  20.901  0.00  0.00    +0.000 C 
ATOM     27  C   UNL     1      -7.916  10.990  21.952  0.00  0.00    +0.000 C 
ATOM     28  C   UNL     1      -7.223  12.246  21.404  0.00  0.00    +0.000 C 
BRANCH  28  29
ATOM     29  C   UNL     1      -6.430  12.846  22.552  0.00  0.00    +0.000 C 
ATOM     30  O   UNL     1      -5.561  12.251  23.175  0.00  0.00    +0.000 OA
BRANCH  29  31
ATOM     31  O   UNL     1      -6.886  14.068  22.915  0.00  0.00    +0.000 OA
ATOM     32  H   UNL     1      -6.597  14.785  22.324  0.00  0.00    +0.000 HD
ENDBRANCH  29  31
ENDBRANCH  28  29
ENDBRANCH  11  24
BRANCH   6  33
ATOM     33  O   UNL     1      -4.176  15.382  22.664  0.00  0.00    +0.000 OA
ATOM     34  H   UNL     1      -3.524  15.609  23.344  0.00  0.00    +0.000 HD
ENDBRANCH   6  33
BRANCH  16  35
ATOM     35  C   UNL     1      -1.484  12.010  18.329  0.00  0.00    +0.000 C 
ATOM     36  N   UNL     1      -1.863  13.206  18.454  0.00  0.00    +0.000 NA
ENDBRANCH  16  35
BRANCH  17  37
ATOM     37  O   UNL     1      -0.545   9.674  20.405  0.00  0.00    +0.000 OA
ATOM     38  H   UNL     1      -0.037  10.003  21.169  0.00  0.00    +0.000 HD
ENDBRANCH  17  37
TORSDOF 6
ENDMDL
MODEL 7
REMARK VINA RESULT:      -5.4      2.461      6.568
REMARK  Name = 
REMARK  10 active torsions:
REMARK  status: ('A' for Active; 'I' for Inactive)
REMARK    1  A    between atoms: C_1  and  C_2
REMARK    2  A    between atoms: C_4  and  C_5
REMARK    3  A    between atoms: C_6  and  O_7
REMARK    4  A    between atoms: C_12  and  C_13
REMARK    5  A    between atoms: C_17  and  C_18
REMARK    6  A    between atoms: C_18  and  O_20
REMARK    7  A    between atoms: C_25  and  C_26
REMARK    8  A    between atoms: C_28  and  O_29
REMARK    9  A    between atoms: C_30  and  C_31
REMARK   10  A    between atoms: C_33  and  C_34
REMARK                            x       y       z     vdW  Elec       q    Type
REMARK                         _______ _______ _______ _____ _____    ______ ____
ROOT
ATOM      1  C   UNL     1      -4.233  16.940  23.699  0.00  0.00    +0.000 C 
ATOM      2  C   UNL     1      -3.040  16.111  23.219  0.00  0.00    +0.000 C 
ATOM      3  C   UNL     1      -3.394  14.605  23.114  0.00  0.00    +0.000 C 
ATOM      4  C   UNL     1      -3.748  14.196  21.655  0.00  0.00    +0.000 C 
ATOM      5  C   UNL     1      -5.263  14.035  21.503  0.00  0.00    +0.000 C 
ATOM      6  C   UNL     1      -2.943  12.940  21.214  0.00  0.00    +0.000 C 
ATOM      7  C   UNL     1      -3.206  12.553  19.760  0.00  0.00    +0.000 C 
ATOM      8  C   UNL     1      -2.175  11.639  19.174  0.00  0.00    +0.000 C 
ATOM      9  O   UNL     1      -2.459  10.629  18.537  0.00  0.00    +0.000 OA
ATOM     10  O   UNL     1      -0.896  12.098  19.349  0.00  0.00    +0.000 OA
ATOM     11  C   UNL     1       0.175  11.342  18.736  0.00  0.00    +0.000 C 
ATOM     12  C   UNL     1       1.186  12.367  18.115  0.00  0.00    +0.000 C 
ATOM     13  C   UNL     1       2.076  12.979  19.200  0.00  0.00    +0.000 C 
ATOM     14  C   UNL     1       3.019  14.138  18.851  0.00  0.00    +0.000 C 
ATOM     15  C   UNL     1       3.586  14.735  20.184  0.00  0.00    +0.000 C 
ATOM     16  C   UNL     1       2.701  15.854  20.786  0.00  0.00    +0.000 C 
ATOM     17  C   UNL     1       2.850  16.280  22.244  0.00  0.00    +0.000 C 
ATOM     18  C   UNL     1       1.770  17.317  22.744  0.00  0.00    +0.000 C 
ATOM     19  C   UNL     1       1.376  18.341  21.658  0.00  0.00    +0.000 C 
ATOM     20  C   UNL     1       0.579  16.602  23.431  0.00  0.00    +0.000 C 
ATOM     21  C   UNL     1      -0.784  17.321  23.507  0.00  0.00    +0.000 C 
ATOM     22  C   UNL     1      -0.744  18.630  24.292  0.00  0.00    +0.000 C 
ATOM     23  C   UNL     1      -1.823  16.351  24.145  0.00  0.00    +0.000 C 
ENDROOT
BRANCH  11  24
ATOM     24  C   UNL     1       0.842  10.409  19.783  0.00  0.00    +0.000 C 
ATOM     25  C   UNL     1       1.312   9.111  19.132  0.00  0.00    +0.000 C 
ATOM     26  C   UNL     1       1.517   8.143  20.275  0.00  0.00    +0.000 C 
ATOM     27  C   UNL     1       0.579   8.594  21.383  0.00  0.00    +0.000 C 
ATOM     28  C   UNL     1      -0.039   9.929  20.943  0.00  0.00    +0.000 C 
BRANCH  28  29
ATOM     29  C   UNL     1      -0.029  10.840  22.158  0.00  0.00    +0.000 C 
ATOM     30  O   UNL     1       0.035  12.062  22.104  0.00  0.00    +0.000 OA
BRANCH  29  31
ATOM     31  O   UNL     1       0.051  10.153  23.323  0.00  0.00    +0.000 OA
ATOM     32  H   UNL     1       0.809  10.409  23.877  0.00  0.00    +0.000 HD
ENDBRANCH  29  31
ENDBRANCH  28  29
ENDBRANCH  11  24
BRANCH   6  33
ATOM     33  O   UNL     1      -3.248  11.830  22.058  0.00  0.00    +0.000 OA
ATOM     34  H   UNL     1      -3.514  12.142  22.936  0.00  0.00    +0.000 HD
ENDBRANCH   6  33
BRANCH  16  35
ATOM     35  C   UNL     1       1.259  15.606  20.375  0.00  0.00    +0.000 C 
ATOM     36  N   UNL     1       0.063  15.400  20.034  0.00  0.00    +0.000 NA
ENDBRANCH  16  35
BRANCH  17  37
ATOM     37  O   UNL     1       2.971  15.159  23.117  0.00  0.00    +0.000 OA
ATOM     38  H   UNL     1       3.911  14.918  23.215  0.00  0.00    +0.000 HD
ENDBRANCH  17  37
TORSDOF 6
ENDMDL
MODEL 8
REMARK VINA RESULT:      -5.4      2.119      6.106
REMARK  Name = 
REMARK  10 active torsions:
REMARK  status: ('A' for Active; 'I' for Inactive)
REMARK    1  A    between atoms: C_1  and  C_2
REMARK    2  A    between atoms: C_4  and  C_5
REMARK    3  A    between atoms: C_6  and  O_7
REMARK    4  A    between atoms: C_12  and  C_13
REMARK    5  A    between atoms: C_17  and  C_18
REMARK    6  A    between atoms: C_18  and  O_20
REMARK    7  A    between atoms: C_25  and  C_26
REMARK    8  A    between atoms: C_28  and  O_29
REMARK    9  A    between atoms: C_30  and  C_31
REMARK   10  A    between atoms: C_33  and  C_34
REMARK                            x       y       z     vdW  Elec       q    Type
REMARK                         _______ _______ _______ _____ _____    ______ ____
ROOT
ATOM      1  C   UNL     1      -7.014  14.696  19.772  0.00  0.00    +0.000 C 
ATOM      2  C   UNL     1      -5.607  14.249  20.177  0.00  0.00    +0.000 C 
ATOM      3  C   UNL     1      -5.396  12.732  19.931  0.00  0.00    +0.000 C 
ATOM      4  C   UNL     1      -4.656  12.462  18.589  0.00  0.00    +0.000 C 
ATOM      5  C   UNL     1      -5.645  11.972  17.529  0.00  0.00    +0.000 C 
ATOM      6  C   UNL     1      -3.446  11.507  18.798  0.00  0.00    +0.000 C 
ATOM      7  C   UNL     1      -2.648  11.280  17.516  0.00  0.00    +0.000 C 
ATOM      8  C   UNL     1      -1.275  10.727  17.741  0.00  0.00    +0.000 C 
ATOM      9  O   UNL     1      -0.821   9.780  17.106  0.00  0.00    +0.000 OA
ATOM     10  O   UNL     1      -0.556  11.446  18.660  0.00  0.00    +0.000 OA
ATOM     11  C   UNL     1       0.820  11.058  18.883  0.00  0.00    +0.000 C 
ATOM     12  C   UNL     1       1.672  12.370  18.992  0.00  0.00    +0.000 C 
ATOM     13  C   UNL     1       1.504  13.014  20.371  0.00  0.00    +0.000 C 
ATOM     14  C   UNL     1       2.102  14.400  20.646  0.00  0.00    +0.000 C 
ATOM     15  C   UNL     1       1.546  14.918  22.016  0.00  0.00    +0.000 C 
ATOM     16  C   UNL     1       0.216  15.700  21.887  0.00  0.00    +0.000 C 
ATOM     17  C   UNL     1      -0.681  15.938  23.100  0.00  0.00    +0.000 C 
ATOM     18  C   UNL     1      -2.072  16.609  22.773  0.00  0.00    +0.000 C 
ATOM     19  C   UNL     1      -1.979  17.655  21.641  0.00  0.00    +0.000 C 
ATOM     20  C   UNL     1      -3.181  15.544  22.589  0.00  0.00    +0.000 C 
ATOM     21  C   UNL     1      -4.437  15.903  21.767  0.00  0.00    +0.000 C 
ATOM     22  C   UNL     1      -5.244  17.059  22.353  0.00  0.00    +0.000 C 
ATOM     23  C   UNL     1      -5.334  14.635  21.650  0.00  0.00    +0.000 C 
ENDROOT
BRANCH  11  24
ATOM     24  C   UNL     1       0.931  10.170  20.152  0.00  0.00    +0.000 C 
ATOM     25  C   UNL     1       1.418   8.769  19.793  0.00  0.00    +0.000 C 
ATOM     26  C   UNL     1       1.061   7.905  20.982  0.00  0.00    +0.000 C 
ATOM     27  C   UNL     1      -0.139   8.567  21.639  0.00  0.00    +0.000 C 
ATOM     28  C   UNL     1      -0.366   9.909  20.929  0.00  0.00    +0.000 C 
BRANCH  28  29
ATOM     29  C   UNL     1      -0.667  10.933  22.010  0.00  0.00    +0.000 C 
ATOM     30  O   UNL     1      -0.362  10.802  23.188  0.00  0.00    +0.000 OA
BRANCH  29  31
ATOM     31  O   UNL     1      -1.443  11.949  21.562  0.00  0.00    +0.000 OA
ATOM     32  H   UNL     1      -1.803  11.802  20.669  0.00  0.00    +0.000 HD
ENDBRANCH  29  31
ENDBRANCH  28  29
ENDBRANCH  11  24
BRANCH   6  33
ATOM     33  O   UNL     1      -3.886  10.249  19.307  0.00  0.00    +0.000 OA
ATOM     34  H   UNL     1      -4.080  10.321  20.254  0.00  0.00    +0.000 HD
ENDBRANCH   6  33
BRANCH  16  35
ATOM     35  C   UNL     1      -0.537  15.180  20.673  0.00  0.00    +0.000 C 
ATOM     36  N   UNL     1      -1.161  14.748  19.667  0.00  0.00    +0.000 NA
ENDBRANCH  16  35
BRANCH  17  37
ATOM     37  O   UNL     1      -0.819  14.764  23.898  0.00  0.00    +0.000 OA
ATOM     38  H   UNL     1      -1.229  14.054  23.371  0.00  0.00    +0.000 HD
ENDBRANCH  17  37
TORSDOF 6
ENDMDL
MODEL 9
REMARK VINA RESULT:      -5.4      2.428      6.092
REMARK  Name = 
REMARK  10 active torsions:
REMARK  status: ('A' for Active; 'I' for Inactive)
REMARK    1  A    between atoms: C_1  and  C_2
REMARK    2  A    between atoms: C_4  and  C_5
REMARK    3  A    between atoms: C_6  and  O_7
REMARK    4  A    between atoms: C_12  and  C_13
REMARK    5  A    between atoms: C_17  and  C_18
REMARK    6  A    between atoms: C_18  and  O_20
REMARK    7  A    between atoms: C_25  and  C_26
REMARK    8  A    between atoms: C_28  and  O_29
REMARK    9  A    between atoms: C_30  and  C_31
REMARK   10  A    between atoms: C_33  and  C_34
REMARK                            x       y       z     vdW  Elec       q    Type
REMARK                         _______ _______ _______ _____ _____    ______ ____
ROOT
ATOM      1  C   UNL     1      -6.978  13.068  17.374  0.00  0.00    +0.000 C 
ATOM      2  C   UNL     1      -5.780  12.892  18.311  0.00  0.00    +0.000 C 
ATOM      3  C   UNL     1      -5.195  11.458  18.229  0.00  0.00    +0.000 C 
ATOM      4  C   UNL     1      -3.956  11.393  17.291  0.00  0.00    +0.000 C 
ATOM      5  C   UNL     1      -4.339  10.758  15.952  0.00  0.00    +0.000 C 
ATOM      6  C   UNL     1      -2.758  10.688  17.992  0.00  0.00    +0.000 C 
ATOM      7  C   UNL     1      -1.498  10.674  17.130  0.00  0.00    +0.000 C 
ATOM      8  C   UNL     1      -0.240  10.395  17.892  0.00  0.00    +0.000 C 
ATOM      9  O   UNL     1       0.602   9.582  17.522  0.00  0.00    +0.000 OA
ATOM     10  O   UNL     1      -0.090  11.205  18.987  0.00  0.00    +0.000 OA
ATOM     11  C   UNL     1       1.139  11.090  19.742  0.00  0.00    +0.000 C 
ATOM     12  C   UNL     1       1.604  12.539  20.118  0.00  0.00    +0.000 C 
ATOM     13  C   UNL     1       0.792  13.083  21.296  0.00  0.00    +0.000 C 
ATOM     14  C   UNL     1       0.950  14.548  21.723  0.00  0.00    +0.000 C 
ATOM     15  C   UNL     1      -0.184  14.892  22.747  0.00  0.00    +0.000 C 
ATOM     16  C   UNL     1      -1.486  15.399  22.081  0.00  0.00    +0.000 C 
ATOM     17  C   UNL     1      -2.811  15.407  22.841  0.00  0.00    +0.000 C 
ATOM     18  C   UNL     1      -4.069  15.802  21.973  0.00  0.00    +0.000 C 
ATOM     19  C   UNL     1      -3.753  16.889  20.923  0.00  0.00    +0.000 C 
ATOM     20  C   UNL     1      -4.786  14.546  21.418  0.00  0.00    +0.000 C 
ATOM     21  C   UNL     1      -5.670  14.681  20.161  0.00  0.00    +0.000 C 
ATOM     22  C   UNL     1      -6.851  15.631  20.339  0.00  0.00    +0.000 C 
ATOM     23  C   UNL     1      -6.182  13.267  19.758  0.00  0.00    +0.000 C 
ENDROOT
BRANCH  11  24
ATOM     24  C   UNL     1       0.922  10.192  20.990  0.00  0.00    +0.000 C 
ATOM     25  C   UNL     1       1.520   8.805  20.771  0.00  0.00    +0.000 C 
ATOM     26  C   UNL     1       0.874   7.923  21.817  0.00  0.00    +0.000 C 
ATOM     27  C   UNL     1      -0.474   8.553  22.126  0.00  0.00    +0.000 C 
ATOM     28  C   UNL     1      -0.531   9.897  21.386  0.00  0.00    +0.000 C 
BRANCH  28  29
ATOM     29  C   UNL     1      -1.136  10.904  22.348  0.00  0.00    +0.000 C 
ATOM     30  O   UNL     1      -2.054  11.663  22.065  0.00  0.00    +0.000 OA
BRANCH  29  31
ATOM     31  O   UNL     1      -0.455  10.980  23.516  0.00  0.00    +0.000 OA
ATOM     32  H   UNL     1       0.512  11.002  23.405  0.00  0.00    +0.000 HD
ENDBRANCH  29  31
ENDBRANCH  28  29
ENDBRANCH  11  24
BRANCH   6  33
ATOM     33  O   UNL     1      -3.104   9.349  18.343  0.00  0.00    +0.000 OA
ATOM     34  H   UNL     1      -3.672   8.960  17.661  0.00  0.00    +0.000 HD
ENDBRANCH   6  33
BRANCH  16  35
ATOM     35  C   UNL     1      -1.591  14.789  20.694  0.00  0.00    +0.000 C 
ATOM     36  N   UNL     1      -1.680  14.283  19.542  0.00  0.00    +0.000 NA
ENDBRANCH  16  35
BRANCH  17  37
ATOM     37  O   UNL     1      -3.012  14.199  23.572  0.00  0.00    +0.000 OA
ATOM     38  H   UNL     1      -3.696  13.660  23.134  0.00  0.00    +0.000 HD
ENDBRANCH  17  37
TORSDOF 6
ENDMDL
