MODEL 1
REMARK VINA RESULT:      -9.3      0.000      0.000
REMARK  Name = 
REMARK  4 active torsions:
REMARK  status: ('A' for Active; 'I' for Inactive)
REMARK    1  A    between atoms: C_1  and  C_2
REMARK    2  A    between atoms: C_6  and  C_7
REMARK    3  A    between atoms: C_13  and  C_14
REMARK    4  A    between atoms: C_18  and  C_19
REMARK                            x       y       z     vdW  Elec       q    Type
REMARK                         _______ _______ _______ _____ _____    ______ ____
ROOT
ATOM      1  C   UNL     1       2.739   7.022  18.563  0.00  0.00    +0.000 A 
ATOM      2  N   UNL     1       2.324   6.892  19.809  0.00  0.00    +0.000 NA
ATOM      3  C   UNL     1       1.621   8.015  20.199  0.00  0.00    +0.000 A 
ATOM      4  C   UNL     1       1.051   8.236  21.458  0.00  0.00    +0.000 A 
ATOM      5  C   UNL     1       0.346   9.411  21.714  0.00  0.00    +0.000 A 
ATOM      6  S   UNL     1      -0.446   9.921  23.146  0.00  0.00    +0.000 S 
ATOM      7  C   UNL     1      -0.918  11.387  22.373  0.00  0.00    +0.000 A 
ATOM      8  N   UNL     1      -0.539  11.496  21.115  0.00  0.00    +0.000 NA
ATOM      9  C   UNL     1       0.194  10.388  20.735  0.00  0.00    +0.000 A 
ATOM     10  C   UNL     1       0.776  10.175  19.481  0.00  0.00    +0.000 A 
ATOM     11  C   UNL     1       1.478   8.999  19.224  0.00  0.00    +0.000 A 
ATOM     12  S   UNL     1       2.272   8.490  17.792  0.00  0.00    +0.000 S 
ENDROOT
BRANCH   1  18
ATOM     13  C   UNL     1       3.632   2.183  17.728  0.00  0.00    +0.000 C 
ATOM     14  C   UNL     1       3.941   3.621  17.432  0.00  0.00    +0.000 A 
ATOM     15  C   UNL     1       4.922   3.969  16.500  0.00  0.00    +0.000 A 
ATOM     16  C   UNL     1       5.201   5.310  16.239  0.00  0.00    +0.000 A 
ATOM     17  C   UNL     1       4.497   6.315  16.904  0.00  0.00    +0.000 A 
ATOM     18  C   UNL     1       3.501   5.994  17.838  0.00  0.00    +0.000 A 
ATOM     19  C   UNL     1       3.241   4.637  18.099  0.00  0.00    +0.000 A 
ENDBRANCH   1  18
BRANCH   7  20
ATOM     20  C   UNL     1      -1.716  12.399  23.083  0.00  0.00    +0.000 A 
ATOM     21  C   UNL     1      -1.221  13.677  23.379  0.00  0.00    +0.000 A 
ATOM     22  C   UNL     1      -2.015  14.616  24.039  0.00  0.00    +0.000 A 
ATOM     23  C   UNL     1      -3.317  14.292  24.412  0.00  0.00    +0.000 A 
ATOM     24  C   UNL     1      -3.840  13.028  24.126  0.00  0.00    +0.000 A 
ATOM     25  C   UNL     1      -5.239  12.664  24.525  0.00  0.00    +0.000 C 
ATOM     26  C   UNL     1      -3.036  12.091  23.458  0.00  0.00    +0.000 A 
ENDBRANCH   7  20
TORSDOF 2
ENDMDL
MODEL 2
REMARK VINA RESULT:      -9.2      0.223     10.202
REMARK  Name = 
REMARK  4 active torsions:
REMARK  status: ('A' for Active; 'I' for Inactive)
REMARK    1  A    between atoms: C_1  and  C_2
REMARK    2  A    between atoms: C_6  and  C_7
REMARK    3  A    between atoms: C_13  and  C_14
REMARK    4  A    between atoms: C_18  and  C_19
REMARK                            x       y       z     vdW  Elec       q    Type
REMARK                         _______ _______ _______ _____ _____    ______ ____
ROOT
ATOM      1  C   UNL     1      -1.059  11.522  22.382  0.00  0.00    +0.000 A 
ATOM      2  N   UNL     1      -0.690  11.632  21.120  0.00  0.00    +0.000 NA
ATOM      3  C   UNL     1       0.064  10.537  20.743  0.00  0.00    +0.000 A 
ATOM      4  C   UNL     1       0.639  10.324  19.486  0.00  0.00    +0.000 A 
ATOM      5  C   UNL     1       1.362   9.159  19.232  0.00  0.00    +0.000 A 
ATOM      6  S   UNL     1       2.152   8.652  17.798  0.00  0.00    +0.000 S 
ATOM      7  C   UNL     1       2.663   7.205  18.580  0.00  0.00    +0.000 A 
ATOM      8  N   UNL     1       2.257   7.077  19.827  0.00  0.00    +0.000 NA
ATOM      9  C   UNL     1       1.532   8.188  20.214  0.00  0.00    +0.000 A 
ATOM     10  C   UNL     1       0.970   8.407  21.476  0.00  0.00    +0.000 A 
ATOM     11  C   UNL     1       0.245   9.570  21.729  0.00  0.00    +0.000 A 
ATOM     12  S   UNL     1      -0.544  10.076  23.164  0.00  0.00    +0.000 S 
ENDROOT
BRANCH   1  18
ATOM     13  C   UNL     1      -5.494  12.763  24.305  0.00  0.00    +0.000 C 
ATOM     14  C   UNL     1      -4.064  13.121  24.024  0.00  0.00    +0.000 A 
ATOM     15  C   UNL     1      -3.541  14.356  24.418  0.00  0.00    +0.000 A 
ATOM     16  C   UNL     1      -2.212  14.676  24.146  0.00  0.00    +0.000 A 
ATOM     17  C   UNL     1      -1.392  13.762  23.483  0.00  0.00    +0.000 A 
ATOM     18  C   UNL     1      -1.888  12.512  23.085  0.00  0.00    +0.000 A 
ATOM     19  C   UNL     1      -3.234  12.209  23.356  0.00  0.00    +0.000 A 
ENDBRANCH   1  18
BRANCH   7  20
ATOM     20  C   UNL     1       3.457   6.193  17.864  0.00  0.00    +0.000 A 
ATOM     21  C   UNL     1       4.515   6.534  17.009  0.00  0.00    +0.000 A 
ATOM     22  C   UNL     1       5.257   5.545  16.361  0.00  0.00    +0.000 A 
ATOM     23  C   UNL     1       4.954   4.200  16.560  0.00  0.00    +0.000 A 
ATOM     24  C   UNL     1       3.908   3.830  17.410  0.00  0.00    +0.000 A 
ATOM     25  C   UNL     1       3.568   2.386  17.630  0.00  0.00    +0.000 C 
ATOM     26  C   UNL     1       3.170   4.831  18.061  0.00  0.00    +0.000 A 
ENDBRANCH   7  20
TORSDOF 2
ENDMDL
MODEL 3
REMARK VINA RESULT:      -9.1      0.380      1.373
REMARK  Name = 
REMARK  4 active torsions:
REMARK  status: ('A' for Active; 'I' for Inactive)
REMARK    1  A    between atoms: C_1  and  C_2
REMARK    2  A    between atoms: C_6  and  C_7
REMARK    3  A    between atoms: C_13  and  C_14
REMARK    4  A    between atoms: C_18  and  C_19
REMARK                            x       y       z     vdW  Elec       q    Type
REMARK                         _______ _______ _______ _____ _____    ______ ____
ROOT
ATOM      1  C   UNL     1       2.788   6.825  18.528  0.00  0.00    +0.000 A 
ATOM      2  N   UNL     1       2.366   6.708  19.772  0.00  0.00    +0.000 NA
ATOM      3  C   UNL     1       1.685   7.847  20.156  0.00  0.00    +0.000 A 
ATOM      4  C   UNL     1       1.114   8.085  21.412  0.00  0.00    +0.000 A 
ATOM      5  C   UNL     1       0.433   9.275  21.660  0.00  0.00    +0.000 A 
ATOM      6  S   UNL     1      -0.354   9.807  23.087  0.00  0.00    +0.000 S 
ATOM      7  C   UNL     1      -0.792  11.279  22.306  0.00  0.00    +0.000 A 
ATOM      8  N   UNL     1      -0.407  11.375  21.050  0.00  0.00    +0.000 NA
ATOM      9  C   UNL     1       0.304  10.251  20.677  0.00  0.00    +0.000 A 
ATOM     10  C   UNL     1       0.887  10.021  19.426  0.00  0.00    +0.000 A 
ATOM     11  C   UNL     1       1.566   8.830  19.176  0.00  0.00    +0.000 A 
ATOM     12  S   UNL     1       2.353   8.298  17.749  0.00  0.00    +0.000 S 
ENDROOT
BRANCH   1  18
ATOM     13  C   UNL     1       6.644   5.577  15.615  0.00  0.00    +0.000 C 
ATOM     14  C   UNL     1       5.420   5.167  16.378  0.00  0.00    +0.000 A 
ATOM     15  C   UNL     1       4.999   3.835  16.403  0.00  0.00    +0.000 A 
ATOM     16  C   UNL     1       3.856   3.470  17.113  0.00  0.00    +0.000 A 
ATOM     17  C   UNL     1       3.126   4.434  17.810  0.00  0.00    +0.000 A 
ATOM     18  C   UNL     1       3.531   5.778  17.810  0.00  0.00    +0.000 A 
ATOM     19  C   UNL     1       4.678   6.130  17.079  0.00  0.00    +0.000 A 
ENDBRANCH   1  18
BRANCH   7  20
ATOM     20  C   UNL     1      -1.573  12.310  23.010  0.00  0.00    +0.000 A 
ATOM     21  C   UNL     1      -1.065  13.592  23.268  0.00  0.00    +0.000 A 
ATOM     22  C   UNL     1      -1.843  14.549  23.923  0.00  0.00    +0.000 A 
ATOM     23  C   UNL     1      -3.139  14.240  24.327  0.00  0.00    +0.000 A 
ATOM     24  C   UNL     1      -3.674  12.972  24.079  0.00  0.00    +0.000 A 
ATOM     25  C   UNL     1      -5.066  12.625  24.512  0.00  0.00    +0.000 C 
ATOM     26  C   UNL     1      -2.886  12.018  23.416  0.00  0.00    +0.000 A 
ENDBRANCH   7  20
TORSDOF 2
ENDMDL
MODEL 4
REMARK VINA RESULT:      -9.1      0.340      1.390
REMARK  Name = 
REMARK  4 active torsions:
REMARK  status: ('A' for Active; 'I' for Inactive)
REMARK    1  A    between atoms: C_1  and  C_2
REMARK    2  A    between atoms: C_6  and  C_7
REMARK    3  A    between atoms: C_13  and  C_14
REMARK    4  A    between atoms: C_18  and  C_19
REMARK                            x       y       z     vdW  Elec       q    Type
REMARK                         _______ _______ _______ _____ _____    ______ ____
ROOT
ATOM      1  C   UNL     1       2.689   7.137  18.573  0.00  0.00    +0.000 A 
ATOM      2  N   UNL     1       2.264   6.996  19.814  0.00  0.00    +0.000 NA
ATOM      3  C   UNL     1       1.555   8.114  20.208  0.00  0.00    +0.000 A 
ATOM      4  C   UNL     1       0.974   8.324  21.464  0.00  0.00    +0.000 A 
ATOM      5  C   UNL     1       0.264   9.495  21.722  0.00  0.00    +0.000 A 
ATOM      6  S   UNL     1      -0.542   9.992  23.152  0.00  0.00    +0.000 S 
ATOM      7  C   UNL     1      -1.011  11.462  22.386  0.00  0.00    +0.000 A 
ATOM      8  N   UNL     1      -0.622  11.582  21.133  0.00  0.00    +0.000 NA
ATOM      9  C   UNL     1       0.117  10.479  20.750  0.00  0.00    +0.000 A 
ATOM     10  C   UNL     1       0.710  10.277  19.499  0.00  0.00    +0.000 A 
ATOM     11  C   UNL     1       1.417   9.105  19.239  0.00  0.00    +0.000 A 
ATOM     12  S   UNL     1       2.223   8.609  17.810  0.00  0.00    +0.000 S 
ENDROOT
BRANCH   1  18
ATOM     13  C   UNL     1       3.589   2.307  17.696  0.00  0.00    +0.000 C 
ATOM     14  C   UNL     1       3.902   3.747  17.420  0.00  0.00    +0.000 A 
ATOM     15  C   UNL     1       4.895   4.105  16.504  0.00  0.00    +0.000 A 
ATOM     16  C   UNL     1       5.179   5.448  16.261  0.00  0.00    +0.000 A 
ATOM     17  C   UNL     1       4.467   6.447  16.929  0.00  0.00    +0.000 A 
ATOM     18  C   UNL     1       3.459   6.116  17.846  0.00  0.00    +0.000 A 
ATOM     19  C   UNL     1       3.195   4.757  18.089  0.00  0.00    +0.000 A 
ENDBRANCH   1  18
BRANCH   7  20
ATOM     20  C   UNL     1      -1.818  12.467  23.098  0.00  0.00    +0.000 A 
ATOM     21  C   UNL     1      -3.144  12.229  23.486  0.00  0.00    +0.000 A 
ATOM     22  C   UNL     1      -3.872  13.200  24.175  0.00  0.00    +0.000 A 
ATOM     23  C   UNL     1      -3.285  14.423  24.488  0.00  0.00    +0.000 A 
ATOM     24  C   UNL     1      -1.962  14.688  24.118  0.00  0.00    +0.000 A 
ATOM     25  C   UNL     1      -1.319  16.002  24.446  0.00  0.00    +0.000 C 
ATOM     26  C   UNL     1      -1.237  13.703  23.430  0.00  0.00    +0.000 A 
ENDBRANCH   7  20
TORSDOF 2
ENDMDL
MODEL 5
REMARK VINA RESULT:      -9.1      0.389     10.305
REMARK  Name = 
REMARK  4 active torsions:
REMARK  status: ('A' for Active; 'I' for Inactive)
REMARK    1  A    between atoms: C_1  and  C_2
REMARK    2  A    between atoms: C_6  and  C_7
REMARK    3  A    between atoms: C_13  and  C_14
REMARK    4  A    between atoms: C_18  and  C_19
REMARK                            x       y       z     vdW  Elec       q    Type
REMARK                         _______ _______ _______ _____ _____    ______ ____
ROOT
ATOM      1  C   UNL     1      -0.819  11.389  22.357  0.00  0.00    +0.000 A 
ATOM      2  N   UNL     1      -0.390  11.504  21.115  0.00  0.00    +0.000 NA
ATOM      3  C   UNL     1       0.305  10.370  20.741  0.00  0.00    +0.000 A 
ATOM      4  C   UNL     1       0.918  10.148  19.503  0.00  0.00    +0.000 A 
ATOM      5  C   UNL     1       1.572   8.944  19.248  0.00  0.00    +0.000 A 
ATOM      6  S   UNL     1       2.387   8.420  17.834  0.00  0.00    +0.000 S 
ATOM      7  C   UNL     1       2.766   6.922  18.598  0.00  0.00    +0.000 A 
ATOM      8  N   UNL     1       2.299   6.792  19.823  0.00  0.00    +0.000 NA
ATOM      9  C   UNL     1       1.634   7.940  20.209  0.00  0.00    +0.000 A 
ATOM     10  C   UNL     1       1.034   8.166  21.453  0.00  0.00    +0.000 A 
ATOM     11  C   UNL     1       0.378   9.369  21.707  0.00  0.00    +0.000 A 
ATOM     12  S   UNL     1      -0.437   9.893  23.121  0.00  0.00    +0.000 S 
ENDROOT
BRANCH   1  18
ATOM     13  C   UNL     1      -5.181  12.782  24.342  0.00  0.00    +0.000 C 
ATOM     14  C   UNL     1      -3.751  13.099  24.022  0.00  0.00    +0.000 A 
ATOM     15  C   UNL     1      -3.191  14.331  24.371  0.00  0.00    +0.000 A 
ATOM     16  C   UNL     1      -1.862  14.614  24.062  0.00  0.00    +0.000 A 
ATOM     17  C   UNL     1      -1.077  13.664  23.407  0.00  0.00    +0.000 A 
ATOM     18  C   UNL     1      -1.611  12.415  23.052  0.00  0.00    +0.000 A 
ATOM     19  C   UNL     1      -2.956  12.152  23.360  0.00  0.00    +0.000 A 
ENDBRANCH   1  18
BRANCH   7  20
ATOM     20  C   UNL     1       3.522   5.876  17.888  0.00  0.00    +0.000 A 
ATOM     21  C   UNL     1       3.043   4.566  17.750  0.00  0.00    +0.000 A 
ATOM     22  C   UNL     1       3.781   3.606  17.056  0.00  0.00    +0.000 A 
ATOM     23  C   UNL     1       5.007   3.943  16.487  0.00  0.00    +0.000 A 
ATOM     24  C   UNL     1       5.507   5.243  16.604  0.00  0.00    +0.000 A 
ATOM     25  C   UNL     1       6.827   5.618  16.000  0.00  0.00    +0.000 C 
ATOM     26  C   UNL     1       4.756   6.202  17.301  0.00  0.00    +0.000 A 
ENDBRANCH   7  20
TORSDOF 2
ENDMDL
MODEL 6
REMARK VINA RESULT:      -9.0      0.449     10.286
REMARK  Name = 
REMARK  4 active torsions:
REMARK  status: ('A' for Active; 'I' for Inactive)
REMARK    1  A    between atoms: C_1  and  C_2
REMARK    2  A    between atoms: C_6  and  C_7
REMARK    3  A    between atoms: C_13  and  C_14
REMARK    4  A    between atoms: C_18  and  C_19
REMARK                            x       y       z     vdW  Elec       q    Type
REMARK                         _______ _______ _______ _____ _____    ______ ____
ROOT
ATOM      1  C   UNL     1      -1.109  11.586  22.417  0.00  0.00    +0.000 A 
ATOM      2  N   UNL     1      -0.745  11.706  21.155  0.00  0.00    +0.000 NA
ATOM      3  C   UNL     1       0.010  10.616  20.769  0.00  0.00    +0.000 A 
ATOM      4  C   UNL     1       0.582  10.413  19.508  0.00  0.00    +0.000 A 
ATOM      5  C   UNL     1       1.307   9.251  19.244  0.00  0.00    +0.000 A 
ATOM      6  S   UNL     1       2.093   8.757  17.803  0.00  0.00    +0.000 S 
ATOM      7  C   UNL     1       2.609   7.305  18.573  0.00  0.00    +0.000 A 
ATOM      8  N   UNL     1       2.207   7.167  19.820  0.00  0.00    +0.000 NA
ATOM      9  C   UNL     1       1.482   8.273  20.218  0.00  0.00    +0.000 A 
ATOM     10  C   UNL     1       0.923   8.482  21.483  0.00  0.00    +0.000 A 
ATOM     11  C   UNL     1       0.196   9.642  21.747  0.00  0.00    +0.000 A 
ATOM     12  S   UNL     1      -0.590  10.136  23.188  0.00  0.00    +0.000 S 
ENDROOT
BRANCH   1  18
ATOM     13  C   UNL     1      -1.415  15.933  24.851  0.00  0.00    +0.000 C 
ATOM     14  C   UNL     1      -2.087  14.699  24.327  0.00  0.00    +0.000 A 
ATOM     15  C   UNL     1      -3.457  14.490  24.514  0.00  0.00    +0.000 A 
ATOM     16  C   UNL     1      -4.067  13.336  24.026  0.00  0.00    +0.000 A 
ATOM     17  C   UNL     1      -3.314  12.381  23.341  0.00  0.00    +0.000 A 
ATOM     18  C   UNL     1      -1.939  12.569  23.131  0.00  0.00    +0.000 A 
ATOM     19  C   UNL     1      -1.338  13.732  23.640  0.00  0.00    +0.000 A 
ENDBRANCH   1  18
BRANCH   7  20
ATOM     20  C   UNL     1       3.404   6.300  17.848  0.00  0.00    +0.000 A 
ATOM     21  C   UNL     1       4.435   6.650  16.965  0.00  0.00    +0.000 A 
ATOM     22  C   UNL     1       5.178   5.668  16.308  0.00  0.00    +0.000 A 
ATOM     23  C   UNL     1       4.902   4.320  16.526  0.00  0.00    +0.000 A 
ATOM     24  C   UNL     1       3.884   3.940  17.405  0.00  0.00    +0.000 A 
ATOM     25  C   UNL     1       3.574   2.493  17.645  0.00  0.00    +0.000 C 
ATOM     26  C   UNL     1       3.145   4.935  18.064  0.00  0.00    +0.000 A 
ENDBRANCH   7  20
TORSDOF 2
ENDMDL
MODEL 7
REMARK VINA RESULT:      -9.0      0.505      1.946
REMARK  Name = 
REMARK  4 active torsions:
REMARK  status: ('A' for Active; 'I' for Inactive)
REMARK    1  A    between atoms: C_1  and  C_2
REMARK    2  A    between atoms: C_6  and  C_7
REMARK    3  A    between atoms: C_13  and  C_14
REMARK    4  A    between atoms: C_18  and  C_19
REMARK                            x       y       z     vdW  Elec       q    Type
REMARK                         _______ _______ _______ _____ _____    ______ ____
ROOT
ATOM      1  C   UNL     1       2.712   7.008  18.615  0.00  0.00    +0.000 A 
ATOM      2  N   UNL     1       2.276   6.883  19.854  0.00  0.00    +0.000 NA
ATOM      3  C   UNL     1       1.582   8.015  20.235  0.00  0.00    +0.000 A 
ATOM      4  C   UNL     1       0.995   8.243  21.484  0.00  0.00    +0.000 A 
ATOM      5  C   UNL     1       0.301   9.426  21.730  0.00  0.00    +0.000 A 
ATOM      6  S   UNL     1      -0.507   9.946  23.149  0.00  0.00    +0.000 S 
ATOM      7  C   UNL     1      -0.948  11.418  22.370  0.00  0.00    +0.000 A 
ATOM      8  N   UNL     1      -0.548  11.523  21.118  0.00  0.00    +0.000 NA
ATOM      9  C   UNL     1       0.176  10.406  20.749  0.00  0.00    +0.000 A 
ATOM     10  C   UNL     1       0.775  10.186  19.504  0.00  0.00    +0.000 A 
ATOM     11  C   UNL     1       1.466   9.001  19.257  0.00  0.00    +0.000 A 
ATOM     12  S   UNL     1       2.275   8.482  17.838  0.00  0.00    +0.000 S 
ENDROOT
BRANCH   1  18
ATOM     13  C   UNL     1       6.837   5.705  16.126  0.00  0.00    +0.000 C 
ATOM     14  C   UNL     1       5.493   5.333  16.678  0.00  0.00    +0.000 A 
ATOM     15  C   UNL     1       4.980   4.043  16.517  0.00  0.00    +0.000 A 
ATOM     16  C   UNL     1       3.727   3.714  17.031  0.00  0.00    +0.000 A 
ATOM     17  C   UNL     1       2.977   4.670  17.718  0.00  0.00    +0.000 A 
ATOM     18  C   UNL     1       3.472   5.970  17.902  0.00  0.00    +0.000 A 
ATOM     19  C   UNL     1       4.731   6.289  17.366  0.00  0.00    +0.000 A 
ENDBRANCH   1  18
BRANCH   7  20
ATOM     20  C   UNL     1      -1.745  12.440  23.068  0.00  0.00    +0.000 A 
ATOM     21  C   UNL     1      -3.072  12.219  23.463  0.00  0.00    +0.000 A 
ATOM     22  C   UNL     1      -3.790  13.207  24.139  0.00  0.00    +0.000 A 
ATOM     23  C   UNL     1      -3.191  14.430  24.432  0.00  0.00    +0.000 A 
ATOM     24  C   UNL     1      -1.868  14.677  24.055  0.00  0.00    +0.000 A 
ATOM     25  C   UNL     1      -1.212  15.991  24.361  0.00  0.00    +0.000 C 
ATOM     26  C   UNL     1      -1.152  13.676  23.380  0.00  0.00    +0.000 A 
ENDBRANCH   7  20
TORSDOF 2
ENDMDL
MODEL 8
REMARK VINA RESULT:      -8.9      0.509     10.382
REMARK  Name = 
REMARK  4 active torsions:
REMARK  status: ('A' for Active; 'I' for Inactive)
REMARK    1  A    between atoms: C_1  and  C_2
REMARK    2  A    between atoms: C_6  and  C_7
REMARK    3  A    between atoms: C_13  and  C_14
REMARK    4  A    between atoms: C_18  and  C_19
REMARK                            x       y       z     vdW  Elec       q    Type
REMARK                         _______ _______ _______ _____ _____    ______ ____
ROOT
ATOM      1  C   UNL     1      -0.870  11.394  22.345  0.00  0.00    +0.000 A 
ATOM      2  N   UNL     1      -0.452  11.511  21.099  0.00  0.00    +0.000 NA
ATOM      3  C   UNL     1       0.256  10.386  20.723  0.00  0.00    +0.000 A 
ATOM      4  C   UNL     1       0.863  10.169  19.481  0.00  0.00    +0.000 A 
ATOM      5  C   UNL     1       1.533   8.973  19.226  0.00  0.00    +0.000 A 
ATOM      6  S   UNL     1       2.344   8.456  17.807  0.00  0.00    +0.000 S 
ATOM      7  C   UNL     1       2.751   6.967  18.573  0.00  0.00    +0.000 A 
ATOM      8  N   UNL     1       2.296   6.835  19.802  0.00  0.00    +0.000 NA
ATOM      9  C   UNL     1       1.617   7.974  20.190  0.00  0.00    +0.000 A 
ATOM     10  C   UNL     1       1.024   8.196  21.437  0.00  0.00    +0.000 A 
ATOM     11  C   UNL     1       0.352   9.390  21.692  0.00  0.00    +0.000 A 
ATOM     12  S   UNL     1      -0.459   9.907  23.111  0.00  0.00    +0.000 S 
ENDROOT
BRANCH   1  18
ATOM     13  C   UNL     1      -1.158  15.968  24.320  0.00  0.00    +0.000 C 
ATOM     14  C   UNL     1      -1.811  14.652  24.015  0.00  0.00    +0.000 A 
ATOM     15  C   UNL     1      -3.135  14.402  24.383  0.00  0.00    +0.000 A 
ATOM     16  C   UNL     1      -3.726  13.173  24.097  0.00  0.00    +0.000 A 
ATOM     17  C   UNL     1      -3.000  12.184  23.433  0.00  0.00    +0.000 A 
ATOM     18  C   UNL     1      -1.671  12.411  23.043  0.00  0.00    +0.000 A 
ATOM     19  C   UNL     1      -1.087  13.651  23.351  0.00  0.00    +0.000 A 
ENDBRANCH   1  18
BRANCH   7  20
ATOM     20  C   UNL     1       3.517   5.930  17.861  0.00  0.00    +0.000 A 
ATOM     21  C   UNL     1       3.033   4.626  17.685  0.00  0.00    +0.000 A 
ATOM     22  C   UNL     1       3.781   3.675  16.990  0.00  0.00    +0.000 A 
ATOM     23  C   UNL     1       5.023   4.014  16.457  0.00  0.00    +0.000 A 
ATOM     24  C   UNL     1       5.529   5.308  16.612  0.00  0.00    +0.000 A 
ATOM     25  C   UNL     1       6.865   5.685  16.048  0.00  0.00    +0.000 C 
ATOM     26  C   UNL     1       4.768   6.259  17.310  0.00  0.00    +0.000 A 
ENDBRANCH   7  20
TORSDOF 2
ENDMDL
MODEL 9
REMARK VINA RESULT:      -8.6      1.078      1.421
REMARK  Name = 
REMARK  4 active torsions:
REMARK  status: ('A' for Active; 'I' for Inactive)
REMARK    1  A    between atoms: C_1  and  C_2
REMARK    2  A    between atoms: C_6  and  C_7
REMARK    3  A    between atoms: C_13  and  C_14
REMARK    4  A    between atoms: C_18  and  C_19
REMARK                            x       y       z     vdW  Elec       q    Type
REMARK                         _______ _______ _______ _____ _____    ______ ____
ROOT
ATOM      1  C   UNL     1       2.628   6.951  18.757  0.00  0.00    +0.000 A 
ATOM      2  N   UNL     1       2.221   8.143  18.365  0.00  0.00    +0.000 NA
ATOM      3  C   UNL     1       1.507   8.761  19.373  0.00  0.00    +0.000 A 
ATOM      4  C   UNL     1       0.908  10.024  19.307  0.00  0.00    +0.000 A 
ATOM      5  C   UNL     1       0.232  10.540  20.411  0.00  0.00    +0.000 A 
ATOM      6  S   UNL     1      -0.572  12.043  20.596  0.00  0.00    +0.000 S 
ATOM      7  C   UNL     1      -0.997  11.625  22.213  0.00  0.00    +0.000 A 
ATOM      8  N   UNL     1      -0.552  10.453  22.616  0.00  0.00    +0.000 NA
ATOM      9  C   UNL     1       0.132   9.820  21.597  0.00  0.00    +0.000 A 
ATOM     10  C   UNL     1       0.717   8.550  21.660  0.00  0.00    +0.000 A 
ATOM     11  C   UNL     1       1.396   8.035  20.557  0.00  0.00    +0.000 A 
ATOM     12  S   UNL     1       2.199   6.533  20.372  0.00  0.00    +0.000 S 
ENDROOT
BRANCH   1  18
ATOM     13  C   UNL     1       3.769   2.273  17.443  0.00  0.00    +0.000 C 
ATOM     14  C   UNL     1       3.992   3.748  17.284  0.00  0.00    +0.000 A 
ATOM     15  C   UNL     1       4.935   4.239  16.377  0.00  0.00    +0.000 A 
ATOM     16  C   UNL     1       5.136   5.612  16.244  0.00  0.00    +0.000 A 
ATOM     17  C   UNL     1       4.390   6.507  17.013  0.00  0.00    +0.000 A 
ATOM     18  C   UNL     1       3.431   6.041  17.925  0.00  0.00    +0.000 A 
ATOM     19  C   UNL     1       3.250   4.654  18.056  0.00  0.00    +0.000 A 
ENDBRANCH   1  18
BRANCH   7  20
ATOM     20  C   UNL     1      -1.764  12.552  23.062  0.00  0.00    +0.000 A 
ATOM     21  C   UNL     1      -1.260  13.798  23.462  0.00  0.00    +0.000 A 
ATOM     22  C   UNL     1      -2.025  14.657  24.253  0.00  0.00    +0.000 A 
ATOM     23  C   UNL     1      -3.306  14.284  24.653  0.00  0.00    +0.000 A 
ATOM     24  C   UNL     1      -3.837  13.051  24.265  0.00  0.00    +0.000 A 
ATOM     25  C   UNL     1      -5.213  12.635  24.692  0.00  0.00    +0.000 C 
ATOM     26  C   UNL     1      -3.062  12.195  23.467  0.00  0.00    +0.000 A 
ENDBRANCH   7  20
TORSDOF 2
ENDMDL
