MODEL 1
REMARK VINA RESULT:      -8.1      0.000      0.000
REMARK  Name = 
REMARK  8 active torsions:
REMARK  status: ('A' for Active; 'I' for Inactive)
REMARK    1  A    between atoms: C_1  and  O_2
REMARK    2  A    between atoms: O_2  and  C_3
REMARK    3  A    between atoms: C_6  and  C_7
REMARK    4  A    between atoms: C_7  and  C_8
REMARK    5  A    between atoms: C_8  and  N_9
REMARK    6  A    between atoms: C_10  and  C_12
REMARK    7  A    between atoms: C_13  and  C_14
REMARK    8  A    between atoms: C_20  and  C_21
REMARK                            x       y       z     vdW  Elec       q    Type
REMARK                         _______ _______ _______ _____ _____    ______ ____
ROOT
ATOM      1  N   UNL     1       7.075   8.272  17.773  0.00  0.00    +0.000 N 
ATOM      2  C   UNL     1       6.961   7.108  17.064  0.00  0.00    +0.000 C 
ATOM      3  O   UNL     1       7.838   6.741  16.277  0.00  0.00    +0.000 OA
ATOM      4  H   UNL     1       6.328   8.564  18.409  0.00  0.00    +0.000 HD
ENDROOT
BRANCH   2   5
ATOM      5  C   UNL     1       5.782   6.216  17.200  0.00  0.00    +0.000 A 
ATOM      6  C   UNL     1       6.065   4.852  17.241  0.00  0.00    +0.000 A 
ATOM      7  C   UNL     1       6.514   4.423  18.655  0.00  0.00    +0.000 C 
ATOM      8  N   UNL     1       5.090   4.032  16.758  0.00  0.00    +0.000 N 
ATOM      9  O   UNL     1       5.411   2.964  16.148  0.00  0.00    +0.000 OA
ATOM     10  C   UNL     1       3.807   4.265  17.213  0.00  0.00    +0.000 A 
ATOM     11  C   UNL     1       2.895   3.205  17.241  0.00  0.00    +0.000 A 
ATOM     12  C   UNL     1       1.854   3.247  18.154  0.00  0.00    +0.000 A 
ATOM     13  C   UNL     1       1.694   4.364  18.976  0.00  0.00    +0.000 A 
ATOM     14  C   UNL     1       0.868   4.208  20.227  0.00  0.00    +0.000 C 
ATOM     15  C   UNL     1       2.458   5.533  18.731  0.00  0.00    +0.000 A 
ATOM     16  C   UNL     1       3.558   5.508  17.838  0.00  0.00    +0.000 A 
ATOM     17  N   UNL     1       4.522   6.579  17.630  0.00  0.00    +0.000 N 
ATOM     18  O   UNL     1       4.224   7.785  17.919  0.00  0.00    +0.000 OA
ENDBRANCH   2   5
BRANCH   1  19
ATOM     19  C   UNL     1       8.288   9.063  17.586  0.00  0.00    +0.000 C 
BRANCH  19  20
ATOM     20  C   UNL     1       8.621  10.082  18.682  0.00  0.00    +0.000 C 
BRANCH  20  24
ATOM     21  C   UNL     1      10.808  13.627  17.476  0.00  0.00    +0.000 A 
ATOM     22  C   UNL     1      11.452  12.391  17.514  0.00  0.00    +0.000 A 
ATOM     23  C   UNL     1      10.766  11.234  17.898  0.00  0.00    +0.000 A 
ATOM     24  C   UNL     1       9.425  11.301  18.291  0.00  0.00    +0.000 A 
ATOM     25  C   UNL     1       8.781  12.548  18.239  0.00  0.00    +0.000 A 
ATOM     26  C   UNL     1       9.467  13.704  17.840  0.00  0.00    +0.000 A 
BRANCH  21  28
ATOM     27  C   UNL     1      10.938  15.917  16.880  0.00  0.00    +0.000 C 
ATOM     28  O   UNL     1      11.598  14.677  17.097  0.00  0.00    +0.000 OA
ENDBRANCH  21  28
ENDBRANCH  20  24
ENDBRANCH  19  20
ENDBRANCH   1  19
TORSDOF 5
ENDMDL
MODEL 2
REMARK VINA RESULT:      -8.1      0.966      1.027
REMARK  Name = 
REMARK  8 active torsions:
REMARK  status: ('A' for Active; 'I' for Inactive)
REMARK    1  A    between atoms: C_1  and  O_2
REMARK    2  A    between atoms: O_2  and  C_3
REMARK    3  A    between atoms: C_6  and  C_7
REMARK    4  A    between atoms: C_7  and  C_8
REMARK    5  A    between atoms: C_8  and  N_9
REMARK    6  A    between atoms: C_10  and  C_12
REMARK    7  A    between atoms: C_13  and  C_14
REMARK    8  A    between atoms: C_20  and  C_21
REMARK                            x       y       z     vdW  Elec       q    Type
REMARK                         _______ _______ _______ _____ _____    ______ ____
ROOT
ATOM      1  N   UNL     1       7.060   8.164  17.925  0.00  0.00    +0.000 N 
ATOM      2  C   UNL     1       6.902   7.079  17.107  0.00  0.00    +0.000 C 
ATOM      3  O   UNL     1       7.724   6.806  16.229  0.00  0.00    +0.000 OA
ATOM      4  H   UNL     1       6.357   8.380  18.637  0.00  0.00    +0.000 HD
ENDROOT
BRANCH   2   5
ATOM      5  C   UNL     1       5.739   6.164  17.230  0.00  0.00    +0.000 A 
ATOM      6  C   UNL     1       6.049   4.807  17.287  0.00  0.00    +0.000 A 
ATOM      7  C   UNL     1       6.482   4.397  18.712  0.00  0.00    +0.000 C 
ATOM      8  N   UNL     1       5.099   3.963  16.794  0.00  0.00    +0.000 N 
ATOM      9  O   UNL     1       5.453   2.897  16.198  0.00  0.00    +0.000 OA
ATOM     10  C   UNL     1       3.804   4.173  17.225  0.00  0.00    +0.000 A 
ATOM     11  C   UNL     1       2.914   3.094  17.246  0.00  0.00    +0.000 A 
ATOM     12  C   UNL     1       1.856   3.122  18.140  0.00  0.00    +0.000 A 
ATOM     13  C   UNL     1       1.659   4.242  18.949  0.00  0.00    +0.000 A 
ATOM     14  C   UNL     1       0.814   4.080  20.188  0.00  0.00    +0.000 C 
ATOM     15  C   UNL     1       2.403   5.425  18.708  0.00  0.00    +0.000 A 
ATOM     16  C   UNL     1       3.519   5.416  17.835  0.00  0.00    +0.000 A 
ATOM     17  N   UNL     1       4.465   6.504  17.635  0.00  0.00    +0.000 N 
ATOM     18  O   UNL     1       4.137   7.706  17.909  0.00  0.00    +0.000 OA
ENDBRANCH   2   5
BRANCH   1  19
ATOM     19  C   UNL     1       8.254   8.984  17.739  0.00  0.00    +0.000 C 
BRANCH  19  20
ATOM     20  C   UNL     1       8.931   9.512  19.008  0.00  0.00    +0.000 C 
BRANCH  20  24
ATOM     21  C   UNL     1      10.585  13.513  18.765  0.00  0.00    +0.000 A 
ATOM     22  C   UNL     1      10.871  12.706  19.867  0.00  0.00    +0.000 A 
ATOM     23  C   UNL     1      10.349  11.413  19.965  0.00  0.00    +0.000 A 
ATOM     24  C   UNL     1       9.496  10.913  18.976  0.00  0.00    +0.000 A 
ATOM     25  C   UNL     1       9.222  11.728  17.865  0.00  0.00    +0.000 A 
ATOM     26  C   UNL     1       9.757  13.019  17.761  0.00  0.00    +0.000 A 
BRANCH  21  28
ATOM     27  C   UNL     1      12.333  14.893  19.574  0.00  0.00    +0.000 C 
ATOM     28  O   UNL     1      11.146  14.759  18.802  0.00  0.00    +0.000 OA
ENDBRANCH  21  28
ENDBRANCH  20  24
ENDBRANCH  19  20
ENDBRANCH   1  19
TORSDOF 5
ENDMDL
MODEL 3
REMARK VINA RESULT:      -8.0      5.466      8.450
REMARK  Name = 
REMARK  8 active torsions:
REMARK  status: ('A' for Active; 'I' for Inactive)
REMARK    1  A    between atoms: C_1  and  O_2
REMARK    2  A    between atoms: O_2  and  C_3
REMARK    3  A    between atoms: C_6  and  C_7
REMARK    4  A    between atoms: C_7  and  C_8
REMARK    5  A    between atoms: C_8  and  N_9
REMARK    6  A    between atoms: C_10  and  C_12
REMARK    7  A    between atoms: C_13  and  C_14
REMARK    8  A    between atoms: C_20  and  C_21
REMARK                            x       y       z     vdW  Elec       q    Type
REMARK                         _______ _______ _______ _____ _____    ______ ____
ROOT
ATOM      1  N   UNL     1       2.119   6.970  20.070  0.00  0.00    +0.000 N 
ATOM      2  C   UNL     1       1.922   8.147  19.399  0.00  0.00    +0.000 C 
ATOM      3  O   UNL     1       2.201   8.264  18.203  0.00  0.00    +0.000 OA
ATOM      4  H   UNL     1       1.894   6.901  21.065  0.00  0.00    +0.000 HD
ENDROOT
BRANCH   2   5
ATOM      5  C   UNL     1       1.358   9.348  20.067  0.00  0.00    +0.000 A 
ATOM      6  C   UNL     1       0.994  10.389  19.216  0.00  0.00    +0.000 A 
ATOM      7  C   UNL     1      -0.390  10.129  18.583  0.00  0.00    +0.000 C 
ATOM      8  N   UNL     1       1.070  11.641  19.749  0.00  0.00    +0.000 N 
ATOM      9  O   UNL     1       1.412  12.619  19.012  0.00  0.00    +0.000 OA
ATOM     10  C   UNL     1       0.494  11.818  20.991  0.00  0.00    +0.000 A 
ATOM     11  C   UNL     1       0.030  13.089  21.347  0.00  0.00    +0.000 A 
ATOM     12  C   UNL     1      -0.994  13.187  22.276  0.00  0.00    +0.000 A 
ATOM     13  C   UNL     1      -1.496  12.035  22.883  0.00  0.00    +0.000 A 
ATOM     14  C   UNL     1      -2.860  12.108  23.521  0.00  0.00    +0.000 C 
ATOM     15  C   UNL     1      -0.821  10.799  22.713  0.00  0.00    +0.000 A 
ATOM     16  C   UNL     1       0.199  10.656  21.739  0.00  0.00    +0.000 A 
ATOM     17  N   UNL     1       0.843   9.412  21.345  0.00  0.00    +0.000 N 
ATOM     18  O   UNL     1       0.849   8.407  22.131  0.00  0.00    +0.000 OA
ENDBRANCH   2   5
BRANCH   1  19
ATOM     19  C   UNL     1       2.653   5.841  19.313  0.00  0.00    +0.000 C 
BRANCH  19  20
ATOM     20  C   UNL     1       4.134   5.510  19.525  0.00  0.00    +0.000 C 
BRANCH  20  24
ATOM     21  C   UNL     1       6.807   5.403  16.112  0.00  0.00    +0.000 A 
ATOM     22  C   UNL     1       5.481   5.802  15.947  0.00  0.00    +0.000 A 
ATOM     23  C   UNL     1       4.602   5.846  17.033  0.00  0.00    +0.000 A 
ATOM     24  C   UNL     1       5.026   5.451  18.306  0.00  0.00    +0.000 A 
ATOM     25  C   UNL     1       6.366   5.061  18.466  0.00  0.00    +0.000 A 
ATOM     26  C   UNL     1       7.249   5.031  17.378  0.00  0.00    +0.000 A 
BRANCH  21  28
ATOM     27  C   UNL     1       7.010   4.671  13.868  0.00  0.00    +0.000 C 
ATOM     28  O   UNL     1       7.552   5.392  14.966  0.00  0.00    +0.000 OA
ENDBRANCH  21  28
ENDBRANCH  20  24
ENDBRANCH  19  20
ENDBRANCH   1  19
TORSDOF 5
ENDMDL
MODEL 4
REMARK VINA RESULT:      -7.9      0.933      1.028
REMARK  Name = 
REMARK  8 active torsions:
REMARK  status: ('A' for Active; 'I' for Inactive)
REMARK    1  A    between atoms: C_1  and  O_2
REMARK    2  A    between atoms: O_2  and  C_3
REMARK    3  A    between atoms: C_6  and  C_7
REMARK    4  A    between atoms: C_7  and  C_8
REMARK    5  A    between atoms: C_8  and  N_9
REMARK    6  A    between atoms: C_10  and  C_12
REMARK    7  A    between atoms: C_13  and  C_14
REMARK    8  A    between atoms: C_20  and  C_21
REMARK                            x       y       z     vdW  Elec       q    Type
REMARK                         _______ _______ _______ _____ _____    ______ ____
ROOT
ATOM      1  N   UNL     1       7.243   8.162  18.089  0.00  0.00    +0.000 N 
ATOM      2  C   UNL     1       7.042   7.185  17.152  0.00  0.00    +0.000 C 
ATOM      3  O   UNL     1       7.828   7.016  16.216  0.00  0.00    +0.000 OA
ATOM      4  H   UNL     1       6.569   8.294  18.848  0.00  0.00    +0.000 HD
ENDROOT
BRANCH   2   5
ATOM      5  C   UNL     1       5.874   6.270  17.207  0.00  0.00    +0.000 A 
ATOM      6  C   UNL     1       6.178   4.911  17.194  0.00  0.00    +0.000 A 
ATOM      7  C   UNL     1       6.589   4.422  18.600  0.00  0.00    +0.000 C 
ATOM      8  N   UNL     1       5.233   4.100  16.641  0.00  0.00    +0.000 N 
ATOM      9  O   UNL     1       5.592   3.067  15.992  0.00  0.00    +0.000 OA
ATOM     10  C   UNL     1       3.932   4.292  17.064  0.00  0.00    +0.000 A 
ATOM     11  C   UNL     1       3.038   3.217  17.012  0.00  0.00    +0.000 A 
ATOM     12  C   UNL     1       1.967   3.201  17.891  0.00  0.00    +0.000 A 
ATOM     13  C   UNL     1       1.762   4.275  18.758  0.00  0.00    +0.000 A 
ATOM     14  C   UNL     1       0.899   4.048  19.973  0.00  0.00    +0.000 C 
ATOM     15  C   UNL     1       2.514   5.466  18.593  0.00  0.00    +0.000 A 
ATOM     16  C   UNL     1       3.643   5.500  17.737  0.00  0.00    +0.000 A 
ATOM     17  N   UNL     1       4.596   6.593  17.612  0.00  0.00    +0.000 N 
ATOM     18  O   UNL     1       4.268   7.780  17.947  0.00  0.00    +0.000 OA
ENDBRANCH   2   5
BRANCH   1  19
ATOM     19  C   UNL     1       8.438   8.991  17.958  0.00  0.00    +0.000 C 
BRANCH  19  20
ATOM     20  C   UNL     1       8.933   9.691  19.228  0.00  0.00    +0.000 C 
BRANCH  20  24
ATOM     21  C   UNL     1      11.513  13.158  18.878  0.00  0.00    +0.000 A 
ATOM     22  C   UNL     1      11.061  12.507  17.730  0.00  0.00    +0.000 A 
ATOM     23  C   UNL     1      10.227  11.388  17.820  0.00  0.00    +0.000 A 
ATOM     24  C   UNL     1       9.859  10.874  19.067  0.00  0.00    +0.000 A 
ATOM     25  C   UNL     1      10.310  11.542  20.217  0.00  0.00    +0.000 A 
ATOM     26  C   UNL     1      11.134  12.672  20.126  0.00  0.00    +0.000 A 
BRANCH  21  28
ATOM     27  C   UNL     1      11.695  15.489  18.495  0.00  0.00    +0.000 C 
ATOM     28  O   UNL     1      12.332  14.228  18.649  0.00  0.00    +0.000 OA
ENDBRANCH  21  28
ENDBRANCH  20  24
ENDBRANCH  19  20
ENDBRANCH   1  19
TORSDOF 5
ENDMDL
MODEL 5
REMARK VINA RESULT:      -7.9      5.461      8.369
REMARK  Name = 
REMARK  8 active torsions:
REMARK  status: ('A' for Active; 'I' for Inactive)
REMARK    1  A    between atoms: C_1  and  O_2
REMARK    2  A    between atoms: O_2  and  C_3
REMARK    3  A    between atoms: C_6  and  C_7
REMARK    4  A    between atoms: C_7  and  C_8
REMARK    5  A    between atoms: C_8  and  N_9
REMARK    6  A    between atoms: C_10  and  C_12
REMARK    7  A    between atoms: C_13  and  C_14
REMARK    8  A    between atoms: C_20  and  C_21
REMARK                            x       y       z     vdW  Elec       q    Type
REMARK                         _______ _______ _______ _____ _____    ______ ____
ROOT
ATOM      1  N   UNL     1       1.903   8.497  19.337  0.00  0.00    +0.000 N 
ATOM      2  C   UNL     1       2.375   7.240  19.597  0.00  0.00    +0.000 C 
ATOM      3  O   UNL     1       1.869   6.526  20.468  0.00  0.00    +0.000 OA
ATOM      4  H   UNL     1       2.348   9.077  18.620  0.00  0.00    +0.000 HD
ENDROOT
BRANCH   2   5
ATOM      5  C   UNL     1       3.516   6.657  18.847  0.00  0.00    +0.000 A 
ATOM      6  C   UNL     1       4.042   5.481  19.377  0.00  0.00    +0.000 A 
ATOM      7  C   UNL     1       3.190   4.260  18.969  0.00  0.00    +0.000 C 
ATOM      8  N   UNL     1       5.367   5.266  19.138  0.00  0.00    +0.000 N 
ATOM      9  O   UNL     1       6.079   4.688  20.019  0.00  0.00    +0.000 OA
ATOM     10  C   UNL     1       5.793   5.432  17.835  0.00  0.00    +0.000 A 
ATOM     11  C   UNL     1       6.917   4.725  17.395  0.00  0.00    +0.000 A 
ATOM     12  C   UNL     1       7.034   4.436  16.045  0.00  0.00    +0.000 A 
ATOM     13  C   UNL     1       6.075   4.907  15.147  0.00  0.00    +0.000 A 
ATOM     14  C   UNL     1       5.971   4.229  13.805  0.00  0.00    +0.000 C 
ATOM     15  C   UNL     1       5.108   5.850  15.580  0.00  0.00    +0.000 A 
ATOM     16  C   UNL     1       4.934   6.131  16.958  0.00  0.00    +0.000 A 
ATOM     17  N   UNL     1       3.873   6.937  17.544  0.00  0.00    +0.000 N 
ATOM     18  O   UNL     1       3.253   7.804  16.842  0.00  0.00    +0.000 OA
ENDBRANCH   2   5
BRANCH   1  19
ATOM     19  C   UNL     1       0.758   8.965  20.113  0.00  0.00    +0.000 C 
BRANCH  19  20
ATOM     20  C   UNL     1       0.253  10.380  19.810  0.00  0.00    +0.000 C 
BRANCH  20  24
ATOM     21  C   UNL     1      -3.007  10.825  16.985  0.00  0.00    +0.000 A 
ATOM     22  C   UNL     1      -2.001   9.888  16.747  0.00  0.00    +0.000 A 
ATOM     23  C   UNL     1      -0.942   9.727  17.645  0.00  0.00    +0.000 A 
ATOM     24  C   UNL     1      -0.848  10.531  18.785  0.00  0.00    +0.000 A 
ATOM     25  C   UNL     1      -1.870  11.464  19.023  0.00  0.00    +0.000 A 
ATOM     26  C   UNL     1      -2.939  11.615  18.129  0.00  0.00    +0.000 A 
BRANCH  21  28
ATOM     27  C   UNL     1      -3.630  10.364  14.746  0.00  0.00    +0.000 C 
ATOM     28  O   UNL     1      -3.974  10.890  16.021  0.00  0.00    +0.000 OA
ENDBRANCH  21  28
ENDBRANCH  20  24
ENDBRANCH  19  20
ENDBRANCH   1  19
TORSDOF 5
ENDMDL
MODEL 6
REMARK VINA RESULT:      -7.8      5.440      8.298
REMARK  Name = 
REMARK  8 active torsions:
REMARK  status: ('A' for Active; 'I' for Inactive)
REMARK    1  A    between atoms: C_1  and  O_2
REMARK    2  A    between atoms: O_2  and  C_3
REMARK    3  A    between atoms: C_6  and  C_7
REMARK    4  A    between atoms: C_7  and  C_8
REMARK    5  A    between atoms: C_8  and  N_9
REMARK    6  A    between atoms: C_10  and  C_12
REMARK    7  A    between atoms: C_13  and  C_14
REMARK    8  A    between atoms: C_20  and  C_21
REMARK                            x       y       z     vdW  Elec       q    Type
REMARK                         _______ _______ _______ _____ _____    ______ ____
ROOT
ATOM      1  N   UNL     1       2.082   7.654  20.209  0.00  0.00    +0.000 N 
ATOM      2  C   UNL     1       2.592   6.391  20.081  0.00  0.00    +0.000 C 
ATOM      3  O   UNL     1       2.131   5.440  20.718  0.00  0.00    +0.000 OA
ATOM      4  H   UNL     1       2.491   8.431  19.682  0.00  0.00    +0.000 HD
ENDROOT
BRANCH   2   5
ATOM      5  C   UNL     1       3.725   6.088  19.170  0.00  0.00    +0.000 A 
ATOM      6  C   UNL     1       4.623   5.128  19.631  0.00  0.00    +0.000 A 
ATOM      7  C   UNL     1       4.084   3.702  19.386  0.00  0.00    +0.000 C 
ATOM      8  N   UNL     1       5.906   5.259  19.189  0.00  0.00    +0.000 N 
ATOM      9  O   UNL     1       6.870   4.944  19.954  0.00  0.00    +0.000 OA
ATOM     10  C   UNL     1       6.072   5.453  17.832  0.00  0.00    +0.000 A 
ATOM     11  C   UNL     1       7.268   5.044  17.231  0.00  0.00    +0.000 A 
ATOM     12  C   UNL     1       7.258   4.716  15.885  0.00  0.00    +0.000 A 
ATOM     13  C   UNL     1       6.085   4.860  15.143  0.00  0.00    +0.000 A 
ATOM     14  C   UNL     1       5.971   4.099  13.846  0.00  0.00    +0.000 C 
ATOM     15  C   UNL     1       4.974   5.537  15.707  0.00  0.00    +0.000 A 
ATOM     16  C   UNL     1       4.936   5.845  17.089  0.00  0.00    +0.000 A 
ATOM     17  N   UNL     1       3.794   6.374  17.822  0.00  0.00    +0.000 N 
ATOM     18  O   UNL     1       2.866   7.001  17.212  0.00  0.00    +0.000 OA
ENDBRANCH   2   5
BRANCH   1  19
ATOM     19  C   UNL     1       0.950   7.839  21.112  0.00  0.00    +0.000 C 
BRANCH  19  20
ATOM     20  C   UNL     1       1.043   9.006  22.101  0.00  0.00    +0.000 C 
BRANCH  20  24
ATOM     21  C   UNL     1      -1.898  12.179  21.809  0.00  0.00    +0.000 A 
ATOM     22  C   UNL     1      -1.760  11.465  22.999  0.00  0.00    +0.000 A 
ATOM     23  C   UNL     1      -0.817  10.439  23.116  0.00  0.00    +0.000 A 
ATOM     24  C   UNL     1      -0.018  10.081  22.026  0.00  0.00    +0.000 A 
ATOM     25  C   UNL     1      -0.155  10.813  20.835  0.00  0.00    +0.000 A 
ATOM     26  C   UNL     1      -1.091  11.850  20.724  0.00  0.00    +0.000 A 
BRANCH  21  28
ATOM     27  C   UNL     1      -4.019  12.867  22.609  0.00  0.00    +0.000 C 
ATOM     28  O   UNL     1      -2.866  13.145  21.826  0.00  0.00    +0.000 OA
ENDBRANCH  21  28
ENDBRANCH  20  24
ENDBRANCH  19  20
ENDBRANCH   1  19
TORSDOF 5
ENDMDL
MODEL 7
REMARK VINA RESULT:      -7.8      5.436      8.608
REMARK  Name = 
REMARK  8 active torsions:
REMARK  status: ('A' for Active; 'I' for Inactive)
REMARK    1  A    between atoms: C_1  and  O_2
REMARK    2  A    between atoms: O_2  and  C_3
REMARK    3  A    between atoms: C_6  and  C_7
REMARK    4  A    between atoms: C_7  and  C_8
REMARK    5  A    between atoms: C_8  and  N_9
REMARK    6  A    between atoms: C_10  and  C_12
REMARK    7  A    between atoms: C_13  and  C_14
REMARK    8  A    between atoms: C_20  and  C_21
REMARK                            x       y       z     vdW  Elec       q    Type
REMARK                         _______ _______ _______ _____ _____    ______ ____
ROOT
ATOM      1  N   UNL     1       1.973   8.490  19.020  0.00  0.00    +0.000 N 
ATOM      2  C   UNL     1       2.479   7.268  19.371  0.00  0.00    +0.000 C 
ATOM      3  O   UNL     1       2.000   6.613  20.300  0.00  0.00    +0.000 OA
ATOM      4  H   UNL     1       2.396   9.023  18.256  0.00  0.00    +0.000 HD
ENDROOT
BRANCH   2   5
ATOM      5  C   UNL     1       3.627   6.657  18.654  0.00  0.00    +0.000 A 
ATOM      6  C   UNL     1       4.123   5.481  19.213  0.00  0.00    +0.000 A 
ATOM      7  C   UNL     1       3.260   4.267  18.804  0.00  0.00    +0.000 C 
ATOM      8  N   UNL     1       5.448   5.242  19.006  0.00  0.00    +0.000 N 
ATOM      9  O   UNL     1       6.132   4.665  19.910  0.00  0.00    +0.000 OA
ATOM     10  C   UNL     1       5.905   5.382  17.710  0.00  0.00    +0.000 A 
ATOM     11  C   UNL     1       7.026   4.651  17.305  0.00  0.00    +0.000 A 
ATOM     12  C   UNL     1       7.168   4.340  15.962  0.00  0.00    +0.000 A 
ATOM     13  C   UNL     1       6.236   4.813  15.037  0.00  0.00    +0.000 A 
ATOM     14  C   UNL     1       6.150   4.117  13.702  0.00  0.00    +0.000 C 
ATOM     15  C   UNL     1       5.275   5.777  15.435  0.00  0.00    +0.000 A 
ATOM     16  C   UNL     1       5.076   6.081  16.804  0.00  0.00    +0.000 A 
ATOM     17  N   UNL     1       4.015   6.912  17.356  0.00  0.00    +0.000 N 
ATOM     18  O   UNL     1       3.425   7.778  16.628  0.00  0.00    +0.000 OA
ENDBRANCH   2   5
BRANCH   1  19
ATOM     19  C   UNL     1       0.825   8.989  19.772  0.00  0.00    +0.000 C 
BRANCH  19  20
ATOM     20  C   UNL     1       0.425  10.449  19.529  0.00  0.00    +0.000 C 
BRANCH  20  24
ATOM     21  C   UNL     1      -3.397  11.215  17.629  0.00  0.00    +0.000 A 
ATOM     22  C   UNL     1      -3.053  11.890  18.800  0.00  0.00    +0.000 A 
ATOM     23  C   UNL     1      -1.825  11.660  19.428  0.00  0.00    +0.000 A 
ATOM     24  C   UNL     1      -0.931  10.716  18.916  0.00  0.00    +0.000 A 
ATOM     25  C   UNL     1      -1.280  10.048  17.731  0.00  0.00    +0.000 A 
ATOM     26  C   UNL     1      -2.505  10.290  17.094  0.00  0.00    +0.000 A 
BRANCH  21  28
ATOM     27  C   UNL     1      -5.746  11.156  17.928  0.00  0.00    +0.000 C 
ATOM     28  O   UNL     1      -4.630  11.523  17.127  0.00  0.00    +0.000 OA
ENDBRANCH  21  28
ENDBRANCH  20  24
ENDBRANCH  19  20
ENDBRANCH   1  19
TORSDOF 5
ENDMDL
MODEL 8
REMARK VINA RESULT:      -7.8      6.538     10.587
REMARK  Name = 
REMARK  8 active torsions:
REMARK  status: ('A' for Active; 'I' for Inactive)
REMARK    1  A    between atoms: C_1  and  O_2
REMARK    2  A    between atoms: O_2  and  C_3
REMARK    3  A    between atoms: C_6  and  C_7
REMARK    4  A    between atoms: C_7  and  C_8
REMARK    5  A    between atoms: C_8  and  N_9
REMARK    6  A    between atoms: C_10  and  C_12
REMARK    7  A    between atoms: C_13  and  C_14
REMARK    8  A    between atoms: C_20  and  C_21
REMARK                            x       y       z     vdW  Elec       q    Type
REMARK                         _______ _______ _______ _____ _____    ______ ____
ROOT
ATOM      1  N   UNL     1       1.197   9.450  18.766  0.00  0.00    +0.000 N 
ATOM      2  C   UNL     1       1.426  10.785  18.955  0.00  0.00    +0.000 C 
ATOM      3  O   UNL     1       2.187  11.421  18.221  0.00  0.00    +0.000 OA
ATOM      4  H   UNL     1       0.574   8.939  19.397  0.00  0.00    +0.000 HD
ENDROOT
BRANCH   2   5
ATOM      5  C   UNL     1       0.773  11.548  20.049  0.00  0.00    +0.000 A 
ATOM      6  C   UNL     1       0.429  12.862  19.739  0.00  0.00    +0.000 A 
ATOM      7  C   UNL     1      -0.897  12.916  18.950  0.00  0.00    +0.000 C 
ATOM      8  N   UNL     1       0.421  13.733  20.787  0.00  0.00    +0.000 N 
ATOM      9  O   UNL     1       0.775  14.941  20.604  0.00  0.00    +0.000 OA
ATOM     10  C   UNL     1      -0.246  13.323  21.924  0.00  0.00    +0.000 A 
ATOM     11  C   UNL     1      -0.781  14.291  22.781  0.00  0.00    +0.000 A 
ATOM     12  C   UNL     1      -1.870  13.952  23.569  0.00  0.00    +0.000 A 
ATOM     13  C   UNL     1      -2.367  12.649  23.545  0.00  0.00    +0.000 A 
ATOM     14  C   UNL     1      -3.774  12.420  24.038  0.00  0.00    +0.000 C 
ATOM     15  C   UNL     1      -1.636  11.628  22.886  0.00  0.00    +0.000 A 
ATOM     16  C   UNL     1      -0.547  11.947  22.037  0.00  0.00    +0.000 A 
ATOM     17  N   UNL     1       0.170  11.021  21.172  0.00  0.00    +0.000 N 
ATOM     18  O   UNL     1       0.160   9.768  21.413  0.00  0.00    +0.000 OA
ENDBRANCH   2   5
BRANCH   1  19
ATOM     19  C   UNL     1       1.869   8.800  17.643  0.00  0.00    +0.000 C 
BRANCH  19  20
ATOM     20  C   UNL     1       2.906   7.727  17.991  0.00  0.00    +0.000 C 
BRANCH  20  24
ATOM     21  C   UNL     1       1.411   4.108  19.854  0.00  0.00    +0.000 A 
ATOM     22  C   UNL     1       1.670   5.236  20.632  0.00  0.00    +0.000 A 
ATOM     23  C   UNL     1       2.150   6.414  20.052  0.00  0.00    +0.000 A 
ATOM     24  C   UNL     1       2.419   6.473  18.681  0.00  0.00    +0.000 A 
ATOM     25  C   UNL     1       2.146   5.335  17.903  0.00  0.00    +0.000 A 
ATOM     26  C   UNL     1       1.650   4.160  18.484  0.00  0.00    +0.000 A 
BRANCH  21  28
ATOM     27  C   UNL     1       1.761   2.592  21.641  0.00  0.00    +0.000 C 
ATOM     28  O   UNL     1       0.958   3.021  20.549  0.00  0.00    +0.000 OA
ENDBRANCH  21  28
ENDBRANCH  20  24
ENDBRANCH  19  20
ENDBRANCH   1  19
TORSDOF 5
ENDMDL
MODEL 9
REMARK VINA RESULT:      -7.7      5.449      8.232
REMARK  Name = 
REMARK  8 active torsions:
REMARK  status: ('A' for Active; 'I' for Inactive)
REMARK    1  A    between atoms: C_1  and  O_2
REMARK    2  A    between atoms: O_2  and  C_3
REMARK    3  A    between atoms: C_6  and  C_7
REMARK    4  A    between atoms: C_7  and  C_8
REMARK    5  A    between atoms: C_8  and  N_9
REMARK    6  A    between atoms: C_10  and  C_12
REMARK    7  A    between atoms: C_13  and  C_14
REMARK    8  A    between atoms: C_20  and  C_21
REMARK                            x       y       z     vdW  Elec       q    Type
REMARK                         _______ _______ _______ _____ _____    ______ ____
ROOT
ATOM      1  N   UNL     1       2.161   7.702  20.277  0.00  0.00    +0.000 N 
ATOM      2  C   UNL     1       2.542   6.415  20.013  0.00  0.00    +0.000 C 
ATOM      3  O   UNL     1       1.941   5.450  20.494  0.00  0.00    +0.000 OA
ATOM      4  H   UNL     1       2.684   8.486  19.879  0.00  0.00    +0.000 HD
ENDROOT
BRANCH   2   5
ATOM      5  C   UNL     1       3.695   6.101  19.131  0.00  0.00    +0.000 A 
ATOM      6  C   UNL     1       4.572   5.133  19.616  0.00  0.00    +0.000 A 
ATOM      7  C   UNL     1       4.026   3.712  19.357  0.00  0.00    +0.000 C 
ATOM      8  N   UNL     1       5.867   5.251  19.207  0.00  0.00    +0.000 N 
ATOM      9  O   UNL     1       6.808   4.928  19.998  0.00  0.00    +0.000 OA
ATOM     10  C   UNL     1       6.070   5.444  17.855  0.00  0.00    +0.000 A 
ATOM     11  C   UNL     1       7.277   5.023  17.285  0.00  0.00    +0.000 A 
ATOM     12  C   UNL     1       7.299   4.695  15.939  0.00  0.00    +0.000 A 
ATOM     13  C   UNL     1       6.147   4.849  15.167  0.00  0.00    +0.000 A 
ATOM     14  C   UNL     1       6.060   4.089  13.868  0.00  0.00    +0.000 C 
ATOM     15  C   UNL     1       5.028   5.537  15.702  0.00  0.00    +0.000 A 
ATOM     16  C   UNL     1       4.957   5.845  17.083  0.00  0.00    +0.000 A 
ATOM     17  N   UNL     1       3.802   6.385  17.786  0.00  0.00    +0.000 N 
ATOM     18  O   UNL     1       2.896   7.021  17.152  0.00  0.00    +0.000 OA
ENDBRANCH   2   5
BRANCH   1  19
ATOM     19  C   UNL     1       0.996   7.901  21.136  0.00  0.00    +0.000 C 
BRANCH  19  20
ATOM     20  C   UNL     1       1.071   9.056  22.140  0.00  0.00    +0.000 C 
BRANCH  20  24
ATOM     21  C   UNL     1      -2.019  12.092  21.943  0.00  0.00    +0.000 A 
ATOM     22  C   UNL     1      -1.277  11.778  20.804  0.00  0.00    +0.000 A 
ATOM     23  C   UNL     1      -0.278  10.801  20.844  0.00  0.00    +0.000 A 
ATOM     24  C   UNL     1       0.027  10.145  22.041  0.00  0.00    +0.000 A 
ATOM     25  C   UNL     1      -0.732  10.460  23.180  0.00  0.00    +0.000 A 
ATOM     26  C   UNL     1      -1.743  11.429  23.135  0.00  0.00    +0.000 A 
BRANCH  21  28
ATOM     27  C   UNL     1      -3.476  13.221  20.455  0.00  0.00    +0.000 C 
ATOM     28  O   UNL     1      -2.953  13.075  21.768  0.00  0.00    +0.000 OA
ENDBRANCH  21  28
ENDBRANCH  20  24
ENDBRANCH  19  20
ENDBRANCH   1  19
TORSDOF 5
ENDMDL
