MODEL 1
REMARK VINA RESULT:      -8.5      0.000      0.000
REMARK  Name = 
REMARK  11 active torsions:
REMARK  status: ('A' for Active; 'I' for Inactive)
REMARK    1  A    between atoms: C_1  and  O_2
REMARK    2  A    between atoms: O_2  and  C_3
REMARK    3  A    between atoms: C_7  and  C_8
REMARK    4  A    between atoms: C_8  and  N_9
REMARK    5  A    between atoms: C_15  and  C_16
REMARK    6  A    between atoms: C_16  and  C_17
REMARK    7  A    between atoms: N_19  and  C_20
REMARK    8  A    between atoms: C_20  and  C_21
REMARK    9  A    between atoms: C_27  and  C_28
REMARK   10  A    between atoms: C_31  and  O_32
REMARK   11  A    between atoms: O_32  and  C_33
REMARK                            x       y       z     vdW  Elec       q    Type
REMARK                         _______ _______ _______ _____ _____    ______ ____
ROOT
ATOM      1  N   UNL     1       2.932   3.867  17.987  0.00  0.00    +0.000 NA
ATOM      2  C   UNL     1       2.203   2.591  17.823  0.00  0.00    +0.000 C 
ATOM      3  C   UNL     1       1.828   1.946  19.159  0.00  0.00    +0.000 C 
ATOM      4  N   UNL     1       1.042   2.846  19.960  0.00  0.00    +0.000 N 
ATOM      5  C   UNL     1       1.312   4.185  20.002  0.00  0.00    +0.000 C 
ATOM      6  O   UNL     1       0.739   4.877  20.846  0.00  0.00    +0.000 OA
ATOM      7  C   UNL     1       2.179   4.811  18.879  0.00  0.00    +0.000 C 
ATOM      8  H   UNL     1       0.492   2.499  20.737  0.00  0.00    +0.000 HD
ENDROOT
BRANCH   1   9
ATOM      9  C   UNL     1       4.355   3.652  18.310  0.00  0.00    +0.000 C 
BRANCH   9  14
ATOM     10  C   UNL     1       7.041   5.729  16.458  0.00  0.00    +0.000 A 
ATOM     11  C   UNL     1       6.932   5.171  15.175  0.00  0.00    +0.000 A 
ATOM     12  C   UNL     1       5.992   4.183  14.904  0.00  0.00    +0.000 A 
ATOM     13  C   UNL     1       5.182   3.703  15.928  0.00  0.00    +0.000 A 
ATOM     14  C   UNL     1       5.307   4.195  17.241  0.00  0.00    +0.000 A 
ATOM     15  C   UNL     1       6.236   5.230  17.509  0.00  0.00    +0.000 A 
BRANCH  10  17
ATOM     16  C   UNL     1       7.393   7.936  17.270  0.00  0.00    +0.000 C 
ATOM     17  O   UNL     1       7.931   6.739  16.712  0.00  0.00    +0.000 OA
ENDBRANCH  10  17
BRANCH  15  18
ATOM     18  O   UNL     1       6.205   5.689  18.802  0.00  0.00    +0.000 OA
ATOM     19  C   UNL     1       7.298   5.422  19.666  0.00  0.00    +0.000 C 
ENDBRANCH  15  18
ENDBRANCH   9  14
ENDBRANCH   1   9
BRANCH   7  20
ATOM     20  C   UNL     1       2.890   6.077  19.411  0.00  0.00    +0.000 C 
BRANCH  20  21
ATOM     21  C   UNL     1       2.877   7.267  18.466  0.00  0.00    +0.000 C 
ATOM     22  O   UNL     1       3.556   7.331  17.445  0.00  0.00    +0.000 OA
ATOM     23  N   UNL     1       1.972   8.246  18.814  0.00  0.00    +0.000 N 
ATOM     24  H   UNL     1       1.387   8.151  19.634  0.00  0.00    +0.000 HD
BRANCH  23  25
ATOM     25  C   UNL     1       1.690   9.362  17.937  0.00  0.00    +0.000 C 
BRANCH  25  26
ATOM     26  C   UNL     1       0.447  10.054  18.378  0.00  0.00    +0.000 A 
ATOM     27  C   UNL     1       0.285  10.916  19.443  0.00  0.00    +0.000 A 
ATOM     28  N   UNL     1      -1.020  11.330  19.404  0.00  0.00    +0.000 N 
ATOM     29  C   UNL     1      -1.688  12.211  20.247  0.00  0.00    +0.000 A 
ATOM     30  C   UNL     1      -2.978  12.489  20.007  0.00  0.00    +0.000 A 
ATOM     31  C   UNL     1      -3.629  11.868  18.864  0.00  0.00    +0.000 A 
ATOM     32  C   UNL     1      -2.987  11.010  18.031  0.00  0.00    +0.000 A 
ATOM     33  C   UNL     1      -3.720  10.430  16.849  0.00  0.00    +0.000 C 
ATOM     34  C   UNL     1      -1.608  10.706  18.307  0.00  0.00    +0.000 A 
ATOM     35  N   UNL     1      -0.744   9.924  17.685  0.00  0.00    +0.000 NA
ENDBRANCH  25  26
ENDBRANCH  23  25
ENDBRANCH  20  21
ENDBRANCH   7  20
TORSDOF 8
ENDMDL
MODEL 2
REMARK VINA RESULT:      -8.1      1.825      2.282
REMARK  Name = 
REMARK  11 active torsions:
REMARK  status: ('A' for Active; 'I' for Inactive)
REMARK    1  A    between atoms: C_1  and  O_2
REMARK    2  A    between atoms: O_2  and  C_3
REMARK    3  A    between atoms: C_7  and  C_8
REMARK    4  A    between atoms: C_8  and  N_9
REMARK    5  A    between atoms: C_15  and  C_16
REMARK    6  A    between atoms: C_16  and  C_17
REMARK    7  A    between atoms: N_19  and  C_20
REMARK    8  A    between atoms: C_20  and  C_21
REMARK    9  A    between atoms: C_27  and  C_28
REMARK   10  A    between atoms: C_31  and  O_32
REMARK   11  A    between atoms: O_32  and  C_33
REMARK                            x       y       z     vdW  Elec       q    Type
REMARK                         _______ _______ _______ _____ _____    ______ ____
ROOT
ATOM      1  N   UNL     1       2.964   3.844  17.919  0.00  0.00    +0.000 NA
ATOM      2  C   UNL     1       2.210   2.578  17.789  0.00  0.00    +0.000 C 
ATOM      3  C   UNL     1       1.854   1.957  19.142  0.00  0.00    +0.000 C 
ATOM      4  N   UNL     1       1.101   2.882  19.947  0.00  0.00    +0.000 N 
ATOM      5  C   UNL     1       1.395   4.216  19.965  0.00  0.00    +0.000 C 
ATOM      6  O   UNL     1       0.851   4.929  20.812  0.00  0.00    +0.000 OA
ATOM      7  C   UNL     1       2.246   4.813  18.814  0.00  0.00    +0.000 C 
ATOM      8  H   UNL     1       0.562   2.555  20.740  0.00  0.00    +0.000 HD
ENDROOT
BRANCH   1   9
ATOM      9  C   UNL     1       4.390   3.609  18.214  0.00  0.00    +0.000 C 
BRANCH   9  14
ATOM     10  C   UNL     1       7.065   5.885  16.595  0.00  0.00    +0.000 A 
ATOM     11  C   UNL     1       6.941   5.484  15.256  0.00  0.00    +0.000 A 
ATOM     12  C   UNL     1       5.996   4.537  14.880  0.00  0.00    +0.000 A 
ATOM     13  C   UNL     1       5.194   3.941  15.847  0.00  0.00    +0.000 A 
ATOM     14  C   UNL     1       5.333   4.274  17.208  0.00  0.00    +0.000 A 
ATOM     15  C   UNL     1       6.269   5.267  17.588  0.00  0.00    +0.000 A 
BRANCH  10  17
ATOM     16  C   UNL     1       7.416   8.128  17.304  0.00  0.00    +0.000 C 
ATOM     17  O   UNL     1       7.961   6.856  16.958  0.00  0.00    +0.000 OA
ENDBRANCH  10  17
BRANCH  15  18
ATOM     18  O   UNL     1       6.251   5.570  18.926  0.00  0.00    +0.000 OA
ATOM     19  C   UNL     1       7.451   5.483  19.679  0.00  0.00    +0.000 C 
ENDBRANCH  15  18
ENDBRANCH   9  14
ENDBRANCH   1   9
BRANCH   7  20
ATOM     20  C   UNL     1       2.990   6.073  19.313  0.00  0.00    +0.000 C 
BRANCH  20  21
ATOM     21  C   UNL     1       2.883   7.285  18.403  0.00  0.00    +0.000 C 
ATOM     22  O   UNL     1       3.588   7.453  17.411  0.00  0.00    +0.000 OA
ATOM     23  N   UNL     1       1.869   8.152  18.743  0.00  0.00    +0.000 N 
ATOM     24  H   UNL     1       1.268   7.969  19.537  0.00  0.00    +0.000 HD
BRANCH  23  25
ATOM     25  C   UNL     1       1.500   9.260  17.888  0.00  0.00    +0.000 C 
BRANCH  25  26
ATOM     26  C   UNL     1       1.467  10.523  18.678  0.00  0.00    +0.000 A 
ATOM     27  C   UNL     1       2.114  11.712  18.409  0.00  0.00    +0.000 A 
ATOM     28  N   UNL     1       1.728  12.585  19.390  0.00  0.00    +0.000 N 
ATOM     29  C   UNL     1       2.086  13.917  19.570  0.00  0.00    +0.000 A 
ATOM     30  C   UNL     1       1.566  14.596  20.605  0.00  0.00    +0.000 A 
ATOM     31  C   UNL     1       0.636  13.918  21.493  0.00  0.00    +0.000 A 
ATOM     32  C   UNL     1       0.275  12.619  21.325  0.00  0.00    +0.000 A 
ATOM     33  C   UNL     1      -0.719  11.994  22.270  0.00  0.00    +0.000 C 
ATOM     34  C   UNL     1       0.851  11.896  20.223  0.00  0.00    +0.000 A 
ATOM     35  N   UNL     1       0.692  10.649  19.818  0.00  0.00    +0.000 NA
ENDBRANCH  25  26
ENDBRANCH  23  25
ENDBRANCH  20  21
ENDBRANCH   7  20
TORSDOF 8
ENDMDL
MODEL 3
REMARK VINA RESULT:      -7.7      1.812      2.541
REMARK  Name = 
REMARK  11 active torsions:
REMARK  status: ('A' for Active; 'I' for Inactive)
REMARK    1  A    between atoms: C_1  and  O_2
REMARK    2  A    between atoms: O_2  and  C_3
REMARK    3  A    between atoms: C_7  and  C_8
REMARK    4  A    between atoms: C_8  and  N_9
REMARK    5  A    between atoms: C_15  and  C_16
REMARK    6  A    between atoms: C_16  and  C_17
REMARK    7  A    between atoms: N_19  and  C_20
REMARK    8  A    between atoms: C_20  and  C_21
REMARK    9  A    between atoms: C_27  and  C_28
REMARK   10  A    between atoms: C_31  and  O_32
REMARK   11  A    between atoms: O_32  and  C_33
REMARK                            x       y       z     vdW  Elec       q    Type
REMARK                         _______ _______ _______ _____ _____    ______ ____
ROOT
ATOM      1  N   UNL     1       3.632   3.898  17.454  0.00  0.00    +0.000 NA
ATOM      2  C   UNL     1       2.957   2.585  17.555  0.00  0.00    +0.000 C 
ATOM      3  C   UNL     1       3.033   1.985  18.961  0.00  0.00    +0.000 C 
ATOM      4  N   UNL     1       2.472   2.886  19.932  0.00  0.00    +0.000 N 
ATOM      5  C   UNL     1       2.669   4.236  19.851  0.00  0.00    +0.000 C 
ATOM      6  O   UNL     1       2.335   4.940  20.807  0.00  0.00    +0.000 OA
ATOM      7  C   UNL     1       3.126   4.848  18.502  0.00  0.00    +0.000 C 
ATOM      8  H   UNL     1       2.198   2.551  20.848  0.00  0.00    +0.000 HD
ENDROOT
BRANCH   1   9
ATOM      9  C   UNL     1       5.095   3.760  17.343  0.00  0.00    +0.000 C 
BRANCH   9  14
ATOM     10  C   UNL     1       7.180   4.955  14.312  0.00  0.00    +0.000 A 
ATOM     11  C   UNL     1       6.423   4.402  13.268  0.00  0.00    +0.000 A 
ATOM     12  C   UNL     1       5.252   3.699  13.531  0.00  0.00    +0.000 A 
ATOM     13  C   UNL     1       4.850   3.497  14.847  0.00  0.00    +0.000 A 
ATOM     14  C   UNL     1       5.618   3.983  15.921  0.00  0.00    +0.000 A 
ATOM     15  C   UNL     1       6.790   4.733  15.654  0.00  0.00    +0.000 A 
BRANCH  10  17
ATOM     16  C   UNL     1       8.599   5.937  12.677  0.00  0.00    +0.000 C 
ATOM     17  O   UNL     1       8.305   5.691  14.050  0.00  0.00    +0.000 OA
ENDBRANCH  10  17
BRANCH  15  18
ATOM     18  O   UNL     1       7.405   5.230  16.776  0.00  0.00    +0.000 OA
ATOM     19  C   UNL     1       7.208   6.588  17.138  0.00  0.00    +0.000 C 
ENDBRANCH  15  18
ENDBRANCH   9  14
ENDBRANCH   1   9
BRANCH   7  20
ATOM     20  C   UNL     1       3.893   6.166  18.758  0.00  0.00    +0.000 C 
BRANCH  20  21
ATOM     21  C   UNL     1       3.338   7.384  18.036  0.00  0.00    +0.000 C 
ATOM     22  O   UNL     1       3.806   7.823  16.989  0.00  0.00    +0.000 OA
ATOM     23  N   UNL     1       2.209   7.912  18.621  0.00  0.00    +0.000 N 
ATOM     24  H   UNL     1       1.813   7.505  19.458  0.00  0.00    +0.000 HD
BRANCH  23  25
ATOM     25  C   UNL     1       1.440   8.955  17.976  0.00  0.00    +0.000 C 
BRANCH  25  26
ATOM     26  C   UNL     1       0.872   9.876  19.000  0.00  0.00    +0.000 A 
ATOM     27  C   UNL     1       0.427  11.171  18.827  0.00  0.00    +0.000 A 
ATOM     28  N   UNL     1      -0.052  11.575  20.044  0.00  0.00    +0.000 N 
ATOM     29  C   UNL     1      -0.623  12.791  20.404  0.00  0.00    +0.000 A 
ATOM     30  C   UNL     1      -1.044  12.964  21.666  0.00  0.00    +0.000 A 
ATOM     31  C   UNL     1      -0.901  11.868  22.610  0.00  0.00    +0.000 A 
ATOM     32  C   UNL     1      -0.351  10.674  22.270  0.00  0.00    +0.000 A 
ATOM     33  C   UNL     1      -0.264   9.574  23.297  0.00  0.00    +0.000 C 
ATOM     34  C   UNL     1       0.113  10.505  20.919  0.00  0.00    +0.000 A 
ATOM     35  N   UNL     1       0.680   9.478  20.312  0.00  0.00    +0.000 NA
ENDBRANCH  25  26
ENDBRANCH  23  25
ENDBRANCH  20  21
ENDBRANCH   7  20
TORSDOF 8
ENDMDL
MODEL 4
REMARK VINA RESULT:      -7.5      3.051      9.700
REMARK  Name = 
REMARK  11 active torsions:
REMARK  status: ('A' for Active; 'I' for Inactive)
REMARK    1  A    between atoms: C_1  and  O_2
REMARK    2  A    between atoms: O_2  and  C_3
REMARK    3  A    between atoms: C_7  and  C_8
REMARK    4  A    between atoms: C_8  and  N_9
REMARK    5  A    between atoms: C_15  and  C_16
REMARK    6  A    between atoms: C_16  and  C_17
REMARK    7  A    between atoms: N_19  and  C_20
REMARK    8  A    between atoms: C_20  and  C_21
REMARK    9  A    between atoms: C_27  and  C_28
REMARK   10  A    between atoms: C_31  and  O_32
REMARK   11  A    between atoms: O_32  and  C_33
REMARK                            x       y       z     vdW  Elec       q    Type
REMARK                         _______ _______ _______ _____ _____    ______ ____
ROOT
ATOM      1  N   UNL     1       0.172   9.756  20.337  0.00  0.00    +0.000 NA
ATOM      2  C   UNL     1      -0.203  10.612  19.191  0.00  0.00    +0.000 C 
ATOM      3  C   UNL     1       1.000  11.020  18.337  0.00  0.00    +0.000 C 
ATOM      4  N   UNL     1       1.705   9.861  17.858  0.00  0.00    +0.000 N 
ATOM      5  C   UNL     1       1.882   8.758  18.644  0.00  0.00    +0.000 C 
ATOM      6  O   UNL     1       2.653   7.876  18.259  0.00  0.00    +0.000 OA
ATOM      7  C   UNL     1       0.975   8.569  19.887  0.00  0.00    +0.000 C 
ATOM      8  H   UNL     1       2.346   9.935  17.077  0.00  0.00    +0.000 HD
ENDROOT
BRANCH   1   9
ATOM      9  C   UNL     1       0.728  10.541  21.454  0.00  0.00    +0.000 C 
BRANCH   9  14
ATOM     10  C   UNL     1      -0.993  13.771  22.703  0.00  0.00    +0.000 A 
ATOM     11  C   UNL     1      -2.142  13.218  23.289  0.00  0.00    +0.000 A 
ATOM     12  C   UNL     1      -2.336  11.841  23.319  0.00  0.00    +0.000 A 
ATOM     13  C   UNL     1      -1.407  11.002  22.715  0.00  0.00    +0.000 A 
ATOM     14  C   UNL     1      -0.274  11.525  22.062  0.00  0.00    +0.000 A 
ATOM     15  C   UNL     1      -0.055  12.924  22.066  0.00  0.00    +0.000 A 
BRANCH  10  17
ATOM     16  C   UNL     1      -1.935  15.953  22.660  0.00  0.00    +0.000 C 
ATOM     17  O   UNL     1      -0.777  15.124  22.720  0.00  0.00    +0.000 OA
ENDBRANCH  10  17
BRANCH  15  18
ATOM     18  O   UNL     1       1.124  13.308  21.478  0.00  0.00    +0.000 OA
ATOM     19  C   UNL     1       1.093  14.071  20.282  0.00  0.00    +0.000 C 
ENDBRANCH  15  18
ENDBRANCH   9  14
ENDBRANCH   1   9
BRANCH   7  20
ATOM     20  C   UNL     1       1.707   7.709  20.943  0.00  0.00    +0.000 C 
BRANCH  20  21
ATOM     21  C   UNL     1       1.772   6.223  20.630  0.00  0.00    +0.000 C 
ATOM     22  O   UNL     1       0.779   5.511  20.510  0.00  0.00    +0.000 OA
ATOM     23  N   UNL     1       3.048   5.754  20.413  0.00  0.00    +0.000 N 
ATOM     24  H   UNL     1       3.849   6.369  20.469  0.00  0.00    +0.000 HD
BRANCH  23  25
ATOM     25  C   UNL     1       3.290   4.413  19.925  0.00  0.00    +0.000 C 
BRANCH  25  26
ATOM     26  C   UNL     1       4.215   4.454  18.758  0.00  0.00    +0.000 A 
ATOM     27  C   UNL     1       4.212   3.644  17.641  0.00  0.00    +0.000 A 
ATOM     28  N   UNL     1       5.216   4.107  16.833  0.00  0.00    +0.000 N 
ATOM     29  C   UNL     1       5.622   3.648  15.585  0.00  0.00    +0.000 A 
ATOM     30  C   UNL     1       6.631   4.272  14.958  0.00  0.00    +0.000 A 
ATOM     31  C   UNL     1       7.255   5.417  15.601  0.00  0.00    +0.000 A 
ATOM     32  C   UNL     1       6.865   5.878  16.817  0.00  0.00    +0.000 A 
ATOM     33  C   UNL     1       7.542   7.090  17.406  0.00  0.00    +0.000 C 
ATOM     34  C   UNL     1       5.795   5.192  17.488  0.00  0.00    +0.000 A 
ATOM     35  N   UNL     1       5.214   5.407  18.654  0.00  0.00    +0.000 NA
ENDBRANCH  25  26
ENDBRANCH  23  25
ENDBRANCH  20  21
ENDBRANCH   7  20
TORSDOF 8
ENDMDL
MODEL 5
REMARK VINA RESULT:      -7.4      2.123      3.099
REMARK  Name = 
REMARK  11 active torsions:
REMARK  status: ('A' for Active; 'I' for Inactive)
REMARK    1  A    between atoms: C_1  and  O_2
REMARK    2  A    between atoms: O_2  and  C_3
REMARK    3  A    between atoms: C_7  and  C_8
REMARK    4  A    between atoms: C_8  and  N_9
REMARK    5  A    between atoms: C_15  and  C_16
REMARK    6  A    between atoms: C_16  and  C_17
REMARK    7  A    between atoms: N_19  and  C_20
REMARK    8  A    between atoms: C_20  and  C_21
REMARK    9  A    between atoms: C_27  and  C_28
REMARK   10  A    between atoms: C_31  and  O_32
REMARK   11  A    between atoms: O_32  and  C_33
REMARK                            x       y       z     vdW  Elec       q    Type
REMARK                         _______ _______ _______ _____ _____    ______ ____
ROOT
ATOM      1  N   UNL     1       3.041   6.100  18.156  0.00  0.00    +0.000 NA
ATOM      2  C   UNL     1       2.684   4.822  18.806  0.00  0.00    +0.000 C 
ATOM      3  C   UNL     1       2.781   4.884  20.332  0.00  0.00    +0.000 C 
ATOM      4  N   UNL     1       1.949   5.935  20.855  0.00  0.00    +0.000 N 
ATOM      5  C   UNL     1       1.833   7.138  20.217  0.00  0.00    +0.000 C 
ATOM      6  O   UNL     1       1.268   8.065  20.803  0.00  0.00    +0.000 OA
ATOM      7  C   UNL     1       2.245   7.239  18.726  0.00  0.00    +0.000 C 
ATOM      8  H   UNL     1       1.686   5.946  21.834  0.00  0.00    +0.000 HD
ENDROOT
BRANCH   1   9
ATOM      9  C   UNL     1       4.501   6.292  18.079  0.00  0.00    +0.000 C 
BRANCH   9  14
ATOM     10  C   UNL     1       6.788   5.133  15.184  0.00  0.00    +0.000 A 
ATOM     11  C   UNL     1       6.233   3.869  14.932  0.00  0.00    +0.000 A 
ATOM     12  C   UNL     1       5.128   3.420  15.646  0.00  0.00    +0.000 A 
ATOM     13  C   UNL     1       4.595   4.210  16.659  0.00  0.00    +0.000 A 
ATOM     14  C   UNL     1       5.164   5.457  16.981  0.00  0.00    +0.000 A 
ATOM     15  C   UNL     1       6.265   5.932  16.228  0.00  0.00    +0.000 A 
BRANCH  10  17
ATOM     16  C   UNL     1       7.848   5.260  13.059  0.00  0.00    +0.000 C 
ATOM     17  O   UNL     1       7.845   5.597  14.445  0.00  0.00    +0.000 OA
ENDBRANCH  10  17
BRANCH  15  18
ATOM     18  O   UNL     1       6.677   7.195  16.574  0.00  0.00    +0.000 OA
ATOM     19  C   UNL     1       7.701   7.356  17.543  0.00  0.00    +0.000 C 
ENDBRANCH  15  18
ENDBRANCH   9  14
ENDBRANCH   1   9
BRANCH   7  20
ATOM     20  C   UNL     1       2.662   8.691  18.396  0.00  0.00    +0.000 C 
BRANCH  20  21
ATOM     21  C   UNL     1       1.526   9.602  17.958  0.00  0.00    +0.000 C 
ATOM     22  O   UNL     1       0.502   9.197  17.416  0.00  0.00    +0.000 OA
ATOM     23  N   UNL     1       1.711  10.925  18.294  0.00  0.00    +0.000 N 
ATOM     24  H   UNL     1       2.542  11.230  18.784  0.00  0.00    +0.000 HD
BRANCH  23  25
ATOM     25  C   UNL     1       0.659  11.904  18.123  0.00  0.00    +0.000 C 
BRANCH  25  26
ATOM     26  C   UNL     1      -0.129  12.030  19.381  0.00  0.00    +0.000 A 
ATOM     27  C   UNL     1      -1.166  12.899  19.651  0.00  0.00    +0.000 A 
ATOM     28  N   UNL     1      -1.598  12.594  20.914  0.00  0.00    +0.000 N 
ATOM     29  C   UNL     1      -2.629  13.167  21.652  0.00  0.00    +0.000 A 
ATOM     30  C   UNL     1      -2.892  12.691  22.879  0.00  0.00    +0.000 A 
ATOM     31  C   UNL     1      -2.099  11.584  23.388  0.00  0.00    +0.000 A 
ATOM     32  C   UNL     1      -1.094  11.013  22.676  0.00  0.00    +0.000 A 
ATOM     33  C   UNL     1      -0.336   9.848  23.259  0.00  0.00    +0.000 C 
ATOM     34  C   UNL     1      -0.809  11.541  21.368  0.00  0.00    +0.000 A 
ATOM     35  N   UNL     1       0.091  11.197  20.464  0.00  0.00    +0.000 NA
ENDBRANCH  25  26
ENDBRANCH  23  25
ENDBRANCH  20  21
ENDBRANCH   7  20
TORSDOF 8
ENDMDL
MODEL 6
REMARK VINA RESULT:      -7.3      4.558      8.114
REMARK  Name = 
REMARK  11 active torsions:
REMARK  status: ('A' for Active; 'I' for Inactive)
REMARK    1  A    between atoms: C_1  and  O_2
REMARK    2  A    between atoms: O_2  and  C_3
REMARK    3  A    between atoms: C_7  and  C_8
REMARK    4  A    between atoms: C_8  and  N_9
REMARK    5  A    between atoms: C_15  and  C_16
REMARK    6  A    between atoms: C_16  and  C_17
REMARK    7  A    between atoms: N_19  and  C_20
REMARK    8  A    between atoms: C_20  and  C_21
REMARK    9  A    between atoms: C_27  and  C_28
REMARK   10  A    between atoms: C_31  and  O_32
REMARK   11  A    between atoms: O_32  and  C_33
REMARK                            x       y       z     vdW  Elec       q    Type
REMARK                         _______ _______ _______ _____ _____    ______ ____
ROOT
ATOM      1  N   UNL     1       5.409   4.541  16.696  0.00  0.00    +0.000 NA
ATOM      2  C   UNL     1       5.378   3.254  15.968  0.00  0.00    +0.000 C 
ATOM      3  C   UNL     1       5.504   3.427  14.452  0.00  0.00    +0.000 C 
ATOM      4  N   UNL     1       6.709   4.138  14.116  0.00  0.00    +0.000 N 
ATOM      5  C   UNL     1       7.153   5.186  14.873  0.00  0.00    +0.000 C 
ATOM      6  O   UNL     1       8.075   5.879  14.436  0.00  0.00    +0.000 OA
ATOM      7  C   UNL     1       6.617   5.349  16.318  0.00  0.00    +0.000 C 
ATOM      8  H   UNL     1       7.081   4.105  13.175  0.00  0.00    +0.000 HD
ENDROOT
BRANCH   1   9
ATOM      9  C   UNL     1       4.110   5.236  16.644  0.00  0.00    +0.000 C 
BRANCH   9  14
ATOM     10  C   UNL     1       1.959   4.213  19.691  0.00  0.00    +0.000 A 
ATOM     11  C   UNL     1       1.984   5.414  20.415  0.00  0.00    +0.000 A 
ATOM     12  C   UNL     1       2.640   6.534  19.917  0.00  0.00    +0.000 A 
ATOM     13  C   UNL     1       3.324   6.451  18.710  0.00  0.00    +0.000 A 
ATOM     14  C   UNL     1       3.373   5.245  17.986  0.00  0.00    +0.000 A 
ATOM     15  C   UNL     1       2.672   4.115  18.473  0.00  0.00    +0.000 A 
BRANCH  10  17
ATOM     16  C   UNL     1       1.504   2.757  21.515  0.00  0.00    +0.000 C 
ATOM     17  O   UNL     1       1.269   3.125  20.158  0.00  0.00    +0.000 OA
ENDBRANCH  10  17
BRANCH  15  18
ATOM     18  O   UNL     1       2.719   3.025  17.640  0.00  0.00    +0.000 OA
ATOM     19  C   UNL     1       3.078   1.757  18.166  0.00  0.00    +0.000 C 
ENDBRANCH  15  18
ENDBRANCH   9  14
ENDBRANCH   1   9
BRANCH   7  20
ATOM     20  C   UNL     1       6.693   6.835  16.739  0.00  0.00    +0.000 C 
BRANCH  20  21
ATOM     21  C   UNL     1       7.575   7.117  17.945  0.00  0.00    +0.000 C 
ATOM     22  O   UNL     1       7.940   6.251  18.736  0.00  0.00    +0.000 OA
ATOM     23  N   UNL     1       7.996   8.425  18.035  0.00  0.00    +0.000 N 
ATOM     24  H   UNL     1       7.722   9.112  17.345  0.00  0.00    +0.000 HD
BRANCH  23  25
ATOM     25  C   UNL     1       8.985   8.837  19.009  0.00  0.00    +0.000 C 
BRANCH  25  26
ATOM     26  C   UNL     1       9.106  10.321  19.014  0.00  0.00    +0.000 A 
ATOM     27  C   UNL     1       9.091  11.180  17.934  0.00  0.00    +0.000 A 
ATOM     28  N   UNL     1       9.178  12.444  18.451  0.00  0.00    +0.000 N 
ATOM     29  C   UNL     1       9.190  13.667  17.787  0.00  0.00    +0.000 A 
ATOM     30  C   UNL     1       9.265  14.797  18.507  0.00  0.00    +0.000 A 
ATOM     31  C   UNL     1       9.318  14.704  19.957  0.00  0.00    +0.000 A 
ATOM     32  C   UNL     1       9.302  13.517  20.617  0.00  0.00    +0.000 A 
ATOM     33  C   UNL     1       9.329  13.503  22.124  0.00  0.00    +0.000 C 
ATOM     34  C   UNL     1       9.238  12.311  19.836  0.00  0.00    +0.000 A 
ATOM     35  N   UNL     1       9.210  11.040  20.192  0.00  0.00    +0.000 NA
ENDBRANCH  25  26
ENDBRANCH  23  25
ENDBRANCH  20  21
ENDBRANCH   7  20
TORSDOF 8
ENDMDL
MODEL 7
REMARK VINA RESULT:      -7.3      4.407      8.029
REMARK  Name = 
REMARK  11 active torsions:
REMARK  status: ('A' for Active; 'I' for Inactive)
REMARK    1  A    between atoms: C_1  and  O_2
REMARK    2  A    between atoms: O_2  and  C_3
REMARK    3  A    between atoms: C_7  and  C_8
REMARK    4  A    between atoms: C_8  and  N_9
REMARK    5  A    between atoms: C_15  and  C_16
REMARK    6  A    between atoms: C_16  and  C_17
REMARK    7  A    between atoms: N_19  and  C_20
REMARK    8  A    between atoms: C_20  and  C_21
REMARK    9  A    between atoms: C_27  and  C_28
REMARK   10  A    between atoms: C_31  and  O_32
REMARK   11  A    between atoms: O_32  and  C_33
REMARK                            x       y       z     vdW  Elec       q    Type
REMARK                         _______ _______ _______ _____ _____    ______ ____
ROOT
ATOM      1  N   UNL     1       5.005   5.447  17.870  0.00  0.00    +0.000 NA
ATOM      2  C   UNL     1       4.816   4.002  17.616  0.00  0.00    +0.000 C 
ATOM      3  C   UNL     1       4.903   3.643  16.131  0.00  0.00    +0.000 C 
ATOM      4  N   UNL     1       6.161   4.065  15.576  0.00  0.00    +0.000 N 
ATOM      5  C   UNL     1       6.739   5.250  15.935  0.00  0.00    +0.000 C 
ATOM      6  O   UNL     1       7.710   5.653  15.291  0.00  0.00    +0.000 OA
ATOM      7  C   UNL     1       6.275   5.945  17.241  0.00  0.00    +0.000 C 
ATOM      8  H   UNL     1       6.493   3.678  14.700  0.00  0.00    +0.000 HD
ENDROOT
BRANCH   1   9
ATOM      9  C   UNL     1       3.783   6.222  17.586  0.00  0.00    +0.000 C 
BRANCH   9  14
ATOM     10  C   UNL     1       1.642   7.792  20.398  0.00  0.00    +0.000 A 
ATOM     11  C   UNL     1       1.331   6.639  21.134  0.00  0.00    +0.000 A 
ATOM     12  C   UNL     1       1.831   5.397  20.758  0.00  0.00    +0.000 A 
ATOM     13  C   UNL     1       2.607   5.285  19.611  0.00  0.00    +0.000 A 
ATOM     14  C   UNL     1       2.888   6.410  18.813  0.00  0.00    +0.000 A 
ATOM     15  C   UNL     1       2.412   7.682  19.216  0.00  0.00    +0.000 A 
BRANCH  10  17
ATOM     16  C   UNL     1      -0.184   9.307  20.553  0.00  0.00    +0.000 C 
ATOM     17  O   UNL     1       1.192   9.023  20.797  0.00  0.00    +0.000 OA
ENDBRANCH  10  17
BRANCH  15  18
ATOM     18  O   UNL     1       2.823   8.715  18.410  0.00  0.00    +0.000 OA
ATOM     19  C   UNL     1       1.876   9.379  17.588  0.00  0.00    +0.000 C 
ENDBRANCH  15  18
ENDBRANCH   9  14
ENDBRANCH   1   9
BRANCH   7  20
ATOM     20  C   UNL     1       6.519   7.469  17.138  0.00  0.00    +0.000 C 
BRANCH  20  21
ATOM     21  C   UNL     1       7.690   7.989  17.955  0.00  0.00    +0.000 C 
ATOM     22  O   UNL     1       8.411   7.270  18.642  0.00  0.00    +0.000 OA
ATOM     23  N   UNL     1       7.925   9.337  17.799  0.00  0.00    +0.000 N 
ATOM     24  H   UNL     1       7.347   9.902  17.190  0.00  0.00    +0.000 HD
BRANCH  23  25
ATOM     25  C   UNL     1       9.103   9.970  18.351  0.00  0.00    +0.000 C 
BRANCH  25  26
ATOM     26  C   UNL     1       8.926  11.449  18.367  0.00  0.00    +0.000 A 
ATOM     27  C   UNL     1       8.066  12.211  17.603  0.00  0.00    +0.000 A 
ATOM     28  N   UNL     1       8.233  13.505  18.018  0.00  0.00    +0.000 N 
ATOM     29  C   UNL     1       7.593  14.659  17.577  0.00  0.00    +0.000 A 
ATOM     30  C   UNL     1       7.905  15.833  18.146  0.00  0.00    +0.000 A 
ATOM     31  C   UNL     1       8.891  15.856  19.214  0.00  0.00    +0.000 A 
ATOM     32  C   UNL     1       9.519  14.736  19.657  0.00  0.00    +0.000 A 
ATOM     33  C   UNL     1      10.508  14.836  20.791  0.00  0.00    +0.000 C 
ATOM     34  C   UNL     1       9.190  13.485  19.029  0.00  0.00    +0.000 A 
ATOM     35  N   UNL     1       9.629  12.258  19.243  0.00  0.00    +0.000 NA
ENDBRANCH  25  26
ENDBRANCH  23  25
ENDBRANCH  20  21
ENDBRANCH   7  20
TORSDOF 8
ENDMDL
MODEL 8
REMARK VINA RESULT:      -7.2      1.721      2.333
REMARK  Name = 
REMARK  11 active torsions:
REMARK  status: ('A' for Active; 'I' for Inactive)
REMARK    1  A    between atoms: C_1  and  O_2
REMARK    2  A    between atoms: O_2  and  C_3
REMARK    3  A    between atoms: C_7  and  C_8
REMARK    4  A    between atoms: C_8  and  N_9
REMARK    5  A    between atoms: C_15  and  C_16
REMARK    6  A    between atoms: C_16  and  C_17
REMARK    7  A    between atoms: N_19  and  C_20
REMARK    8  A    between atoms: C_20  and  C_21
REMARK    9  A    between atoms: C_27  and  C_28
REMARK   10  A    between atoms: C_31  and  O_32
REMARK   11  A    between atoms: O_32  and  C_33
REMARK                            x       y       z     vdW  Elec       q    Type
REMARK                         _______ _______ _______ _____ _____    ______ ____
ROOT
ATOM      1  N   UNL     1       3.839   3.372  19.332  0.00  0.00    +0.000 NA
ATOM      2  C   UNL     1       4.311   1.973  19.416  0.00  0.00    +0.000 C 
ATOM      3  C   UNL     1       4.543   1.510  20.856  0.00  0.00    +0.000 C 
ATOM      4  N   UNL     1       3.347   1.659  21.641  0.00  0.00    +0.000 N 
ATOM      5  C   UNL     1       2.524   2.739  21.490  0.00  0.00    +0.000 C 
ATOM      6  O   UNL     1       1.624   2.915  22.314  0.00  0.00    +0.000 OA
ATOM      7  C   UNL     1       2.631   3.589  20.197  0.00  0.00    +0.000 C 
ATOM      8  H   UNL     1       3.241   1.163  22.518  0.00  0.00    +0.000 HD
ENDROOT
BRANCH   1   9
ATOM      9  C   UNL     1       4.942   4.337  19.490  0.00  0.00    +0.000 C 
BRANCH   9  14
ATOM     10  C   UNL     1       6.906   6.341  16.828  0.00  0.00    +0.000 A 
ATOM     11  C   UNL     1       6.215   5.945  15.673  0.00  0.00    +0.000 A 
ATOM     12  C   UNL     1       5.122   5.090  15.754  0.00  0.00    +0.000 A 
ATOM     13  C   UNL     1       4.737   4.578  16.988  0.00  0.00    +0.000 A 
ATOM     14  C   UNL     1       5.446   4.904  18.160  0.00  0.00    +0.000 A 
ATOM     15  C   UNL     1       6.535   5.806  18.084  0.00  0.00    +0.000 A 
BRANCH  10  17
ATOM     16  C   UNL     1       7.799   8.451  17.465  0.00  0.00    +0.000 C 
ATOM     17  O   UNL     1       7.951   7.224  16.754  0.00  0.00    +0.000 OA
ENDBRANCH  10  17
BRANCH  15  18
ATOM     18  O   UNL     1       7.090   6.116  19.300  0.00  0.00    +0.000 OA
ATOM     19  C   UNL     1       8.311   5.505  19.689  0.00  0.00    +0.000 C 
ENDBRANCH  15  18
ENDBRANCH   9  14
ENDBRANCH   1   9
BRANCH   7  20
ATOM     20  C   UNL     1       2.154   5.033  20.480  0.00  0.00    +0.000 C 
BRANCH  20  21
ATOM     21  C   UNL     1       2.039   5.923  19.253  0.00  0.00    +0.000 C 
ATOM     22  O   UNL     1       1.601   5.537  18.173  0.00  0.00    +0.000 OA
ATOM     23  N   UNL     1       2.399   7.233  19.479  0.00  0.00    +0.000 N 
ATOM     24  H   UNL     1       2.711   7.541  20.391  0.00  0.00    +0.000 HD
BRANCH  23  25
ATOM     25  C   UNL     1       2.181   8.261  18.483  0.00  0.00    +0.000 C 
BRANCH  25  26
ATOM     26  C   UNL     1       1.278   9.313  19.027  0.00  0.00    +0.000 A 
ATOM     27  C   UNL     1       0.658  10.338  18.342  0.00  0.00    +0.000 A 
ATOM     28  N   UNL     1      -0.107  11.003  19.263  0.00  0.00    +0.000 N 
ATOM     29  C   UNL     1      -0.937  12.105  19.085  0.00  0.00    +0.000 A 
ATOM     30  C   UNL     1      -1.614  12.586  20.139  0.00  0.00    +0.000 A 
ATOM     31  C   UNL     1      -1.466  11.930  21.427  0.00  0.00    +0.000 A 
ATOM     32  C   UNL     1      -0.663  10.851  21.613  0.00  0.00    +0.000 A 
ATOM     33  C   UNL     1      -0.584  10.206  22.974  0.00  0.00    +0.000 C 
ATOM     34  C   UNL     1       0.071  10.353  20.481  0.00  0.00    +0.000 A 
ATOM     35  N   UNL     1       0.913   9.342  20.361  0.00  0.00    +0.000 NA
ENDBRANCH  25  26
ENDBRANCH  23  25
ENDBRANCH  20  21
ENDBRANCH   7  20
TORSDOF 8
ENDMDL
MODEL 9
REMARK VINA RESULT:      -7.2      2.825      3.773
REMARK  Name = 
REMARK  11 active torsions:
REMARK  status: ('A' for Active; 'I' for Inactive)
REMARK    1  A    between atoms: C_1  and  O_2
REMARK    2  A    between atoms: O_2  and  C_3
REMARK    3  A    between atoms: C_7  and  C_8
REMARK    4  A    between atoms: C_8  and  N_9
REMARK    5  A    between atoms: C_15  and  C_16
REMARK    6  A    between atoms: C_16  and  C_17
REMARK    7  A    between atoms: N_19  and  C_20
REMARK    8  A    between atoms: C_20  and  C_21
REMARK    9  A    between atoms: C_27  and  C_28
REMARK   10  A    between atoms: C_31  and  O_32
REMARK   11  A    between atoms: O_32  and  C_33
REMARK                            x       y       z     vdW  Elec       q    Type
REMARK                         _______ _______ _______ _____ _____    ______ ____
ROOT
ATOM      1  N   UNL     1       3.115   5.847  18.163  0.00  0.00    +0.000 NA
ATOM      2  C   UNL     1       2.860   4.569  18.862  0.00  0.00    +0.000 C 
ATOM      3  C   UNL     1       2.990   4.687  20.382  0.00  0.00    +0.000 C 
ATOM      4  N   UNL     1       2.103   5.698  20.895  0.00  0.00    +0.000 N 
ATOM      5  C   UNL     1       1.892   6.869  20.224  0.00  0.00    +0.000 C 
ATOM      6  O   UNL     1       1.282   7.775  20.795  0.00  0.00    +0.000 OA
ATOM      7  C   UNL     1       2.259   6.949  18.719  0.00  0.00    +0.000 C 
ATOM      8  H   UNL     1       1.864   5.722  21.879  0.00  0.00    +0.000 HD
ENDROOT
BRANCH   1   9
ATOM      9  C   UNL     1       4.556   6.132  18.041  0.00  0.00    +0.000 C 
BRANCH   9  14
ATOM     10  C   UNL     1       6.863   5.125  15.105  0.00  0.00    +0.000 A 
ATOM     11  C   UNL     1       6.331   3.862  14.805  0.00  0.00    +0.000 A 
ATOM     12  C   UNL     1       5.235   3.366  15.501  0.00  0.00    +0.000 A 
ATOM     13  C   UNL     1       4.688   4.107  16.543  0.00  0.00    +0.000 A 
ATOM     14  C   UNL     1       5.234   5.351  16.913  0.00  0.00    +0.000 A 
ATOM     15  C   UNL     1       6.326   5.875  16.178  0.00  0.00    +0.000 A 
BRANCH  10  17
ATOM     16  C   UNL     1       7.983   5.256  13.011  0.00  0.00    +0.000 C 
ATOM     17  O   UNL     1       7.911   5.636  14.384  0.00  0.00    +0.000 OA
ENDBRANCH  10  17
BRANCH  15  18
ATOM     18  O   UNL     1       6.715   7.130  16.572  0.00  0.00    +0.000 OA
ATOM     19  C   UNL     1       7.725   7.273  17.559  0.00  0.00    +0.000 C 
ENDBRANCH  15  18
ENDBRANCH   9  14
ENDBRANCH   1   9
BRANCH   7  20
ATOM     20  C   UNL     1       2.570   8.414  18.334  0.00  0.00    +0.000 C 
BRANCH  20  21
ATOM     21  C   UNL     1       1.354   9.316  18.203  0.00  0.00    +0.000 C 
ATOM     22  O   UNL     1       0.486   9.165  17.348  0.00  0.00    +0.000 OA
ATOM     23  N   UNL     1       1.268  10.281  19.182  0.00  0.00    +0.000 N 
ATOM     24  H   UNL     1       1.970  10.357  19.906  0.00  0.00    +0.000 HD
BRANCH  23  25
ATOM     25  C   UNL     1       0.090  11.110  19.326  0.00  0.00    +0.000 C 
BRANCH  25  26
ATOM     26  C   UNL     1       0.430  12.532  19.041  0.00  0.00    +0.000 A 
ATOM     27  C   UNL     1      -0.401  13.632  19.093  0.00  0.00    +0.000 A 
ATOM     28  N   UNL     1       0.384  14.716  18.804  0.00  0.00    +0.000 N 
ATOM     29  C   UNL     1       0.034  16.061  18.738  0.00  0.00    +0.000 A 
ATOM     30  C   UNL     1       0.983  16.966  18.451  0.00  0.00    +0.000 A 
ATOM     31  C   UNL     1       2.346  16.509  18.232  0.00  0.00    +0.000 A 
ATOM     32  C   UNL     1       2.700  15.200  18.299  0.00  0.00    +0.000 A 
ATOM     33  C   UNL     1       4.141  14.806  18.091  0.00  0.00    +0.000 C 
ATOM     34  C   UNL     1       1.673  14.236  18.591  0.00  0.00    +0.000 A 
ATOM     35  N   UNL     1       1.717  12.922  18.716  0.00  0.00    +0.000 NA
ENDBRANCH  25  26
ENDBRANCH  23  25
ENDBRANCH  20  21
ENDBRANCH   7  20
TORSDOF 8
ENDMDL
