MODEL 1
REMARK VINA RESULT:      -8.4      0.000      0.000
REMARK  Name = 
REMARK  3 active torsions:
REMARK  status: ('A' for Active; 'I' for Inactive)
REMARK    1  A    between atoms: C_1  and  C_2
REMARK    2  A    between atoms: C_9  and  C_10
REMARK    3  A    between atoms: C_16  and  C_17
REMARK                            x       y       z     vdW  Elec       q    Type
REMARK                         _______ _______ _______ _____ _____    ______ ____
ROOT
ATOM      1  C   UNL     1      -0.538  10.833  20.786  0.00  0.00    +0.000 C 
ATOM      2  C   UNL     1       0.340   9.731  20.347  0.00  0.00    +0.000 A 
ATOM      3  C   UNL     1       0.585   8.464  20.834  0.00  0.00    +0.000 A 
ATOM      4  C   UNL     1       1.535   7.871  19.962  0.00  0.00    +0.000 A 
ATOM      5  C   UNL     1       1.807   8.827  18.993  0.00  0.00    +0.000 A 
ATOM      6  C   UNL     1       2.694   8.632  17.940  0.00  0.00    +0.000 A 
ATOM      7  C   UNL     1       3.337   7.385  17.885  0.00  0.00    +0.000 A 
ATOM      8  C   UNL     1       3.108   6.380  18.844  0.00  0.00    +0.000 A 
ATOM      9  C   UNL     1       3.805   5.073  18.796  0.00  0.00    +0.000 A 
ATOM     10  C   UNL     1       3.529   4.152  19.748  0.00  0.00    +0.000 A 
ATOM     11  C   UNL     1       4.152   2.783  19.869  0.00  0.00    +0.000 C 
ATOM     12  C   UNL     1       2.538   4.419  20.828  0.00  0.00    +0.000 A 
ATOM     13  O   UNL     1       2.272   3.577  21.678  0.00  0.00    +0.000 OA
ATOM     14  O   UNL     1       1.930   5.658  20.848  0.00  0.00    +0.000 OA
ATOM     15  C   UNL     1       2.199   6.634  19.877  0.00  0.00    +0.000 A 
ATOM     16  O   UNL     1       1.083   9.956  19.226  0.00  0.00    +0.000 OA
ENDROOT
BRANCH   9  17
ATOM     17  C   UNL     1       4.805   4.736  17.753  0.00  0.00    +0.000 A 
ATOM     18  C   UNL     1       4.393   4.226  16.515  0.00  0.00    +0.000 A 
ATOM     19  C   UNL     1       5.334   3.953  15.521  0.00  0.00    +0.000 A 
ATOM     20  C   UNL     1       6.688   4.185  15.759  0.00  0.00    +0.000 A 
ATOM     21  C   UNL     1       7.106   4.678  16.994  0.00  0.00    +0.000 A 
ATOM     22  C   UNL     1       6.168   4.954  17.991  0.00  0.00    +0.000 A 
ENDBRANCH   9  17
TORSDOF 1
ENDMDL
MODEL 2
REMARK VINA RESULT:      -8.3      0.065      1.033
REMARK  Name = 
REMARK  3 active torsions:
REMARK  status: ('A' for Active; 'I' for Inactive)
REMARK    1  A    between atoms: C_1  and  C_2
REMARK    2  A    between atoms: C_9  and  C_10
REMARK    3  A    between atoms: C_16  and  C_17
REMARK                            x       y       z     vdW  Elec       q    Type
REMARK                         _______ _______ _______ _____ _____    ______ ____
ROOT
ATOM      1  C   UNL     1      -0.597  10.805  20.848  0.00  0.00    +0.000 C 
ATOM      2  C   UNL     1       0.293   9.721  20.391  0.00  0.00    +0.000 A 
ATOM      3  C   UNL     1       0.565   8.455  20.864  0.00  0.00    +0.000 A 
ATOM      4  C   UNL     1       1.514   7.884  19.977  0.00  0.00    +0.000 A 
ATOM      5  C   UNL     1       1.761   8.852  19.013  0.00  0.00    +0.000 A 
ATOM      6  C   UNL     1       2.639   8.680  17.949  0.00  0.00    +0.000 A 
ATOM      7  C   UNL     1       3.302   7.444  17.877  0.00  0.00    +0.000 A 
ATOM      8  C   UNL     1       3.099   6.428  18.830  0.00  0.00    +0.000 A 
ATOM      9  C   UNL     1       3.817   5.133  18.763  0.00  0.00    +0.000 A 
ATOM     10  C   UNL     1       3.565   4.200  19.711  0.00  0.00    +0.000 A 
ATOM     11  C   UNL     1       4.211   2.840  19.814  0.00  0.00    +0.000 C 
ATOM     12  C   UNL     1       2.582   4.442  20.804  0.00  0.00    +0.000 A 
ATOM     13  O   UNL     1       2.338   3.589  21.649  0.00  0.00    +0.000 OA
ATOM     14  O   UNL     1       1.954   5.671  20.840  0.00  0.00    +0.000 OA
ATOM     15  C   UNL     1       2.198   6.659  19.874  0.00  0.00    +0.000 A 
ATOM     16  O   UNL     1       1.021   9.968  19.264  0.00  0.00    +0.000 OA
ENDROOT
BRANCH   9  17
ATOM     17  C   UNL     1       4.810   4.820  17.708  0.00  0.00    +0.000 A 
ATOM     18  C   UNL     1       6.175   5.048  17.930  0.00  0.00    +0.000 A 
ATOM     19  C   UNL     1       7.110   4.710  16.950  0.00  0.00    +0.000 A 
ATOM     20  C   UNL     1       6.688   4.146  15.746  0.00  0.00    +0.000 A 
ATOM     21  C   UNL     1       5.331   3.931  15.514  0.00  0.00    +0.000 A 
ATOM     22  C   UNL     1       4.392   4.266  16.491  0.00  0.00    +0.000 A 
ENDBRANCH   9  17
TORSDOF 1
ENDMDL
MODEL 3
REMARK VINA RESULT:      -7.3      2.525      6.451
REMARK  Name = 
REMARK  3 active torsions:
REMARK  status: ('A' for Active; 'I' for Inactive)
REMARK    1  A    between atoms: C_1  and  C_2
REMARK    2  A    between atoms: C_9  and  C_10
REMARK    3  A    between atoms: C_16  and  C_17
REMARK                            x       y       z     vdW  Elec       q    Type
REMARK                         _______ _______ _______ _____ _____    ______ ____
ROOT
ATOM      1  C   UNL     1       7.834   5.115  13.033  0.00  0.00    +0.000 C 
ATOM      2  C   UNL     1       6.877   5.108  14.157  0.00  0.00    +0.000 A 
ATOM      3  C   UNL     1       6.157   6.097  14.794  0.00  0.00    +0.000 A 
ATOM      4  C   UNL     1       5.396   5.456  15.806  0.00  0.00    +0.000 A 
ATOM      5  C   UNL     1       5.708   4.106  15.717  0.00  0.00    +0.000 A 
ATOM      6  C   UNL     1       5.162   3.129  16.541  0.00  0.00    +0.000 A 
ATOM      7  C   UNL     1       4.246   3.567  17.512  0.00  0.00    +0.000 A 
ATOM      8  C   UNL     1       3.898   4.923  17.655  0.00  0.00    +0.000 A 
ATOM      9  C   UNL     1       2.948   5.385  18.695  0.00  0.00    +0.000 A 
ATOM     10  C   UNL     1       2.655   6.704  18.770  0.00  0.00    +0.000 A 
ATOM     11  C   UNL     1       1.731   7.355  19.770  0.00  0.00    +0.000 C 
ATOM     12  C   UNL     1       3.254   7.691  17.828  0.00  0.00    +0.000 A 
ATOM     13  O   UNL     1       2.971   8.882  17.881  0.00  0.00    +0.000 OA
ATOM     14  O   UNL     1       4.151   7.220  16.891  0.00  0.00    +0.000 OA
ATOM     15  C   UNL     1       4.478   5.859  16.792  0.00  0.00    +0.000 A 
ATOM     16  O   UNL     1       6.608   3.894  14.717  0.00  0.00    +0.000 OA
ENDROOT
BRANCH   9  17
ATOM     17  C   UNL     1       2.314   4.462  19.669  0.00  0.00    +0.000 A 
ATOM     18  C   UNL     1       1.191   3.710  19.303  0.00  0.00    +0.000 A 
ATOM     19  C   UNL     1       0.626   2.810  20.208  0.00  0.00    +0.000 A 
ATOM     20  C   UNL     1       1.177   2.658  21.480  0.00  0.00    +0.000 A 
ATOM     21  C   UNL     1       2.286   3.415  21.855  0.00  0.00    +0.000 A 
ATOM     22  C   UNL     1       2.855   4.316  20.953  0.00  0.00    +0.000 A 
ENDBRANCH   9  17
TORSDOF 1
ENDMDL
MODEL 4
REMARK VINA RESULT:      -7.2      2.550      6.556
REMARK  Name = 
REMARK  3 active torsions:
REMARK  status: ('A' for Active; 'I' for Inactive)
REMARK    1  A    between atoms: C_1  and  C_2
REMARK    2  A    between atoms: C_9  and  C_10
REMARK    3  A    between atoms: C_16  and  C_17
REMARK                            x       y       z     vdW  Elec       q    Type
REMARK                         _______ _______ _______ _____ _____    ______ ____
ROOT
ATOM      1  C   UNL     1       7.842   5.115  12.926  0.00  0.00    +0.000 C 
ATOM      2  C   UNL     1       6.898   5.099  14.059  0.00  0.00    +0.000 A 
ATOM      3  C   UNL     1       6.188   6.083  14.716  0.00  0.00    +0.000 A 
ATOM      4  C   UNL     1       5.436   5.433  15.729  0.00  0.00    +0.000 A 
ATOM      5  C   UNL     1       5.742   4.083  15.620  0.00  0.00    +0.000 A 
ATOM      6  C   UNL     1       5.201   3.098  16.439  0.00  0.00    +0.000 A 
ATOM      7  C   UNL     1       4.298   3.528  17.425  0.00  0.00    +0.000 A 
ATOM      8  C   UNL     1       3.955   4.884  17.588  0.00  0.00    +0.000 A 
ATOM      9  C   UNL     1       3.019   5.337  18.643  0.00  0.00    +0.000 A 
ATOM     10  C   UNL     1       2.731   6.656  18.735  0.00  0.00    +0.000 A 
ATOM     11  C   UNL     1       1.820   7.299  19.752  0.00  0.00    +0.000 C 
ATOM     12  C   UNL     1       3.323   7.652  17.799  0.00  0.00    +0.000 A 
ATOM     13  O   UNL     1       3.045   8.843  17.868  0.00  0.00    +0.000 OA
ATOM     14  O   UNL     1       4.208   7.189  16.846  0.00  0.00    +0.000 OA
ATOM     15  C   UNL     1       4.529   5.827  16.729  0.00  0.00    +0.000 A 
ATOM     16  O   UNL     1       6.630   3.879  14.608  0.00  0.00    +0.000 OA
ENDROOT
BRANCH   9  17
ATOM     17  C   UNL     1       2.392   4.406  19.613  0.00  0.00    +0.000 A 
ATOM     18  C   UNL     1       2.967   4.205  20.874  0.00  0.00    +0.000 A 
ATOM     19  C   UNL     1       2.349   3.363  21.800  0.00  0.00    +0.000 A 
ATOM     20  C   UNL     1       1.158   2.716  21.470  0.00  0.00    +0.000 A 
ATOM     21  C   UNL     1       0.589   2.900  20.211  0.00  0.00    +0.000 A 
ATOM     22  C   UNL     1       1.203   3.743  19.282  0.00  0.00    +0.000 A 
ENDBRANCH   9  17
TORSDOF 1
ENDMDL
MODEL 5
REMARK VINA RESULT:      -7.2      2.314      4.193
REMARK  Name = 
REMARK  3 active torsions:
REMARK  status: ('A' for Active; 'I' for Inactive)
REMARK    1  A    between atoms: C_1  and  C_2
REMARK    2  A    between atoms: C_9  and  C_10
REMARK    3  A    between atoms: C_16  and  C_17
REMARK                            x       y       z     vdW  Elec       q    Type
REMARK                         _______ _______ _______ _____ _____    ______ ____
ROOT
ATOM      1  C   UNL     1       1.144  13.374  18.640  0.00  0.00    +0.000 C 
ATOM      2  C   UNL     1       1.378  11.923  18.764  0.00  0.00    +0.000 A 
ATOM      3  C   UNL     1       2.168  11.028  18.074  0.00  0.00    +0.000 A 
ATOM      4  C   UNL     1       1.968   9.759  18.678  0.00  0.00    +0.000 A 
ATOM      5  C   UNL     1       1.059   9.969  19.706  0.00  0.00    +0.000 A 
ATOM      6  C   UNL     1       0.600   8.965  20.552  0.00  0.00    +0.000 A 
ATOM      7  C   UNL     1       1.103   7.674  20.323  0.00  0.00    +0.000 A 
ATOM      8  C   UNL     1       2.020   7.399  19.291  0.00  0.00    +0.000 A 
ATOM      9  C   UNL     1       2.532   6.031  19.038  0.00  0.00    +0.000 A 
ATOM     10  C   UNL     1       3.417   5.844  18.032  0.00  0.00    +0.000 A 
ATOM     11  C   UNL     1       4.028   4.527  17.619  0.00  0.00    +0.000 C 
ATOM     12  C   UNL     1       3.892   6.976  17.188  0.00  0.00    +0.000 A 
ATOM     13  O   UNL     1       4.710   6.809  16.291  0.00  0.00    +0.000 OA
ATOM     14  O   UNL     1       3.371   8.228  17.443  0.00  0.00    +0.000 OA
ATOM     15  C   UNL     1       2.449   8.453  18.477  0.00  0.00    +0.000 A 
ATOM     16  O   UNL     1       0.700  11.282  19.759  0.00  0.00    +0.000 OA
ENDROOT
BRANCH   9  17
ATOM     17  C   UNL     1       2.105   4.855  19.835  0.00  0.00    +0.000 A 
ATOM     18  C   UNL     1       1.170   3.951  19.315  0.00  0.00    +0.000 A 
ATOM     19  C   UNL     1       0.806   2.821  20.050  0.00  0.00    +0.000 A 
ATOM     20  C   UNL     1       1.369   2.592  21.305  0.00  0.00    +0.000 A 
ATOM     21  C   UNL     1       2.289   3.496  21.833  0.00  0.00    +0.000 A 
ATOM     22  C   UNL     1       2.658   4.626  21.101  0.00  0.00    +0.000 A 
ENDBRANCH   9  17
TORSDOF 1
ENDMDL
MODEL 6
REMARK VINA RESULT:      -7.1      2.275      4.299
REMARK  Name = 
REMARK  3 active torsions:
REMARK  status: ('A' for Active; 'I' for Inactive)
REMARK    1  A    between atoms: C_1  and  C_2
REMARK    2  A    between atoms: C_9  and  C_10
REMARK    3  A    between atoms: C_16  and  C_17
REMARK                            x       y       z     vdW  Elec       q    Type
REMARK                         _______ _______ _______ _____ _____    ______ ____
ROOT
ATOM      1  C   UNL     1       0.628  13.264  19.078  0.00  0.00    +0.000 C 
ATOM      2  C   UNL     1       0.949  11.826  19.146  0.00  0.00    +0.000 A 
ATOM      3  C   UNL     1       1.781  11.005  18.413  0.00  0.00    +0.000 A 
ATOM      4  C   UNL     1       1.664   9.706  18.973  0.00  0.00    +0.000 A 
ATOM      5  C   UNL     1       0.759   9.824  20.019  0.00  0.00    +0.000 A 
ATOM      6  C   UNL     1       0.373   8.765  20.832  0.00  0.00    +0.000 A 
ATOM      7  C   UNL     1       0.948   7.515  20.550  0.00  0.00    +0.000 A 
ATOM      8  C   UNL     1       1.865   7.332  19.498  0.00  0.00    +0.000 A 
ATOM      9  C   UNL     1       2.454   6.008  19.188  0.00  0.00    +0.000 A 
ATOM     10  C   UNL     1       3.333   5.909  18.165  0.00  0.00    +0.000 A 
ATOM     11  C   UNL     1       4.015   4.647  17.696  0.00  0.00    +0.000 C 
ATOM     12  C   UNL     1       3.728   7.098  17.357  0.00  0.00    +0.000 A 
ATOM     13  O   UNL     1       4.542   7.013  16.445  0.00  0.00    +0.000 OA
ATOM     14  O   UNL     1       3.138   8.306  17.665  0.00  0.00    +0.000 OA
ATOM     15  C   UNL     1       2.218   8.439  18.718  0.00  0.00    +0.000 A 
ATOM     16  O   UNL     1       0.324  11.110  20.124  0.00  0.00    +0.000 OA
ENDROOT
BRANCH   9  17
ATOM     17  C   UNL     1       2.108   4.780  19.946  0.00  0.00    +0.000 A 
ATOM     18  C   UNL     1       2.742   4.497  21.162  0.00  0.00    +0.000 A 
ATOM     19  C   UNL     1       2.380   3.365  21.894  0.00  0.00    +0.000 A 
ATOM     20  C   UNL     1       1.388   2.510  21.414  0.00  0.00    +0.000 A 
ATOM     21  C   UNL     1       0.764   2.779  20.197  0.00  0.00    +0.000 A 
ATOM     22  C   UNL     1       1.122   3.911  19.463  0.00  0.00    +0.000 A 
ENDBRANCH   9  17
TORSDOF 1
ENDMDL
MODEL 7
REMARK VINA RESULT:      -7.0      2.269      6.155
REMARK  Name = 
REMARK  3 active torsions:
REMARK  status: ('A' for Active; 'I' for Inactive)
REMARK    1  A    between atoms: C_1  and  C_2
REMARK    2  A    between atoms: C_9  and  C_10
REMARK    3  A    between atoms: C_16  and  C_17
REMARK                            x       y       z     vdW  Elec       q    Type
REMARK                         _______ _______ _______ _____ _____    ______ ____
ROOT
ATOM      1  C   UNL     1       7.265   4.025  13.438  0.00  0.00    +0.000 C 
ATOM      2  C   UNL     1       6.347   4.462  14.507  0.00  0.00    +0.000 A 
ATOM      3  C   UNL     1       5.551   3.786  15.407  0.00  0.00    +0.000 A 
ATOM      4  C   UNL     1       4.902   4.772  16.195  0.00  0.00    +0.000 A 
ATOM      5  C   UNL     1       5.351   5.996  15.716  0.00  0.00    +0.000 A 
ATOM      6  C   UNL     1       4.950   7.224  16.231  0.00  0.00    +0.000 A 
ATOM      7  C   UNL     1       4.035   7.189  17.295  0.00  0.00    +0.000 A 
ATOM      8  C   UNL     1       3.538   5.980  17.817  0.00  0.00    +0.000 A 
ATOM      9  C   UNL     1       2.555   5.947  18.926  0.00  0.00    +0.000 A 
ATOM     10  C   UNL     1       2.127   4.747  19.381  0.00  0.00    +0.000 A 
ATOM     11  C   UNL     1       1.121   4.521  20.483  0.00  0.00    +0.000 C 
ATOM     12  C   UNL     1       2.628   3.468  18.803  0.00  0.00    +0.000 A 
ATOM     13  O   UNL     1       2.257   2.381  19.230  0.00  0.00    +0.000 OA
ATOM     14  O   UNL     1       3.524   3.546  17.756  0.00  0.00    +0.000 OA
ATOM     15  C   UNL     1       3.983   4.776  17.260  0.00  0.00    +0.000 A 
ATOM     16  O   UNL     1       6.228   5.809  14.691  0.00  0.00    +0.000 OA
ENDROOT
BRANCH   9  17
ATOM     17  C   UNL     1       2.010   7.177  19.550  0.00  0.00    +0.000 A 
ATOM     18  C   UNL     1       1.647   8.273  18.756  0.00  0.00    +0.000 A 
ATOM     19  C   UNL     1       1.092   9.411  19.345  0.00  0.00    +0.000 A 
ATOM     20  C   UNL     1       0.899   9.460  20.724  0.00  0.00    +0.000 A 
ATOM     21  C   UNL     1       1.271   8.379  21.521  0.00  0.00    +0.000 A 
ATOM     22  C   UNL     1       1.825   7.238  20.937  0.00  0.00    +0.000 A 
ENDBRANCH   9  17
TORSDOF 1
ENDMDL
MODEL 8
REMARK VINA RESULT:      -7.0      2.141      3.756
REMARK  Name = 
REMARK  3 active torsions:
REMARK  status: ('A' for Active; 'I' for Inactive)
REMARK    1  A    between atoms: C_1  and  C_2
REMARK    2  A    between atoms: C_9  and  C_10
REMARK    3  A    between atoms: C_16  and  C_17
REMARK                            x       y       z     vdW  Elec       q    Type
REMARK                         _______ _______ _______ _____ _____    ______ ____
ROOT
ATOM      1  C   UNL     1       0.656  11.744  19.102  0.00  0.00    +0.000 C 
ATOM      2  C   UNL     1       1.272  10.418  18.899  0.00  0.00    +0.000 A 
ATOM      3  C   UNL     1       2.131   9.908  17.949  0.00  0.00    +0.000 A 
ATOM      4  C   UNL     1       2.371   8.555  18.304  0.00  0.00    +0.000 A 
ATOM      5  C   UNL     1       1.634   8.330  19.458  0.00  0.00    +0.000 A 
ATOM      6  C   UNL     1       1.603   7.114  20.132  0.00  0.00    +0.000 A 
ATOM      7  C   UNL     1       2.372   6.074  19.586  0.00  0.00    +0.000 A 
ATOM      8  C   UNL     1       3.133   6.241  18.414  0.00  0.00    +0.000 A 
ATOM      9  C   UNL     1       3.927   5.135  17.827  0.00  0.00    +0.000 A 
ATOM     10  C   UNL     1       4.640   5.371  16.702  0.00  0.00    +0.000 A 
ATOM     11  C   UNL     1       5.485   4.367  15.958  0.00  0.00    +0.000 C 
ATOM     12  C   UNL     1       4.653   6.712  16.052  0.00  0.00    +0.000 A 
ATOM     13  O   UNL     1       5.317   6.931  15.046  0.00  0.00    +0.000 OA
ATOM     14  O   UNL     1       3.882   7.706  16.619  0.00  0.00    +0.000 OA
ATOM     15  C   UNL     1       3.128   7.490  17.783  0.00  0.00    +0.000 A 
ATOM     16  O   UNL     1       0.965   9.460  19.820  0.00  0.00    +0.000 OA
ENDROOT
BRANCH   9  17
ATOM     17  C   UNL     1       3.961   3.774  18.415  0.00  0.00    +0.000 A 
ATOM     18  C   UNL     1       4.681   3.529  19.591  0.00  0.00    +0.000 A 
ATOM     19  C   UNL     1       4.673   2.256  20.166  0.00  0.00    +0.000 A 
ATOM     20  C   UNL     1       3.949   1.225  19.568  0.00  0.00    +0.000 A 
ATOM     21  C   UNL     1       3.243   1.458  18.390  0.00  0.00    +0.000 A 
ATOM     22  C   UNL     1       3.247   2.730  17.813  0.00  0.00    +0.000 A 
ENDBRANCH   9  17
TORSDOF 1
ENDMDL
MODEL 9
REMARK VINA RESULT:      -7.0      2.106      3.600
REMARK  Name = 
REMARK  3 active torsions:
REMARK  status: ('A' for Active; 'I' for Inactive)
REMARK    1  A    between atoms: C_1  and  C_2
REMARK    2  A    between atoms: C_9  and  C_10
REMARK    3  A    between atoms: C_16  and  C_17
REMARK                            x       y       z     vdW  Elec       q    Type
REMARK                         _______ _______ _______ _____ _____    ______ ____
ROOT
ATOM      1  C   UNL     1       0.578  11.929  19.067  0.00  0.00    +0.000 C 
ATOM      2  C   UNL     1       1.186  10.597  18.881  0.00  0.00    +0.000 A 
ATOM      3  C   UNL     1       2.057  10.075  17.948  0.00  0.00    +0.000 A 
ATOM      4  C   UNL     1       2.279   8.722  18.314  0.00  0.00    +0.000 A 
ATOM      5  C   UNL     1       1.520   8.509  19.457  0.00  0.00    +0.000 A 
ATOM      6  C   UNL     1       1.467   7.297  20.137  0.00  0.00    +0.000 A 
ATOM      7  C   UNL     1       2.236   6.247  19.609  0.00  0.00    +0.000 A 
ATOM      8  C   UNL     1       3.018   6.401  18.449  0.00  0.00    +0.000 A 
ATOM      9  C   UNL     1       3.811   5.285  17.881  0.00  0.00    +0.000 A 
ATOM     10  C   UNL     1       4.545   5.509  16.767  0.00  0.00    +0.000 A 
ATOM     11  C   UNL     1       5.394   4.493  16.042  0.00  0.00    +0.000 C 
ATOM     12  C   UNL     1       4.581   6.846  16.111  0.00  0.00    +0.000 A 
ATOM     13  O   UNL     1       5.264   7.054  15.114  0.00  0.00    +0.000 OA
ATOM     14  O   UNL     1       3.809   7.850  16.659  0.00  0.00    +0.000 OA
ATOM     15  C   UNL     1       3.034   7.647  17.812  0.00  0.00    +0.000 A 
ATOM     16  O   UNL     1       0.855   9.646  19.801  0.00  0.00    +0.000 OA
ENDROOT
BRANCH   9  17
ATOM     17  C   UNL     1       3.823   3.927  18.477  0.00  0.00    +0.000 A 
ATOM     18  C   UNL     1       2.956   2.936  17.998  0.00  0.00    +0.000 A 
ATOM     19  C   UNL     1       3.004   1.647  18.532  0.00  0.00    +0.000 A 
ATOM     20  C   UNL     1       3.913   1.342  19.544  0.00  0.00    +0.000 A 
ATOM     21  C   UNL     1       4.768   2.327  20.034  0.00  0.00    +0.000 A 
ATOM     22  C   UNL     1       4.726   3.618  19.503  0.00  0.00    +0.000 A 
ENDBRANCH   9  17
TORSDOF 1
ENDMDL
