MODEL 1
REMARK VINA RESULT:      -9.2      0.000      0.000
REMARK  Name = 
REMARK  7 active torsions:
REMARK  status: ('A' for Active; 'I' for Inactive)
REMARK    1  A    between atoms: C_1  and  C_2
REMARK    2  A    between atoms: C_10  and  O_11
REMARK    3  A    between atoms: N_14  and  C_15
REMARK    4  A    between atoms: C_15  and  C_16
REMARK    5  A    between atoms: C_19  and  C_20
REMARK    6  A    between atoms: C_21  and  C_22
REMARK    7  A    between atoms: N_24  and  O_25
REMARK                            x       y       z     vdW  Elec       q    Type
REMARK                         _______ _______ _______ _____ _____    ______ ____
ROOT
ATOM      1  C   UNL     1       3.820   2.626  20.346  0.00  0.00    +0.000 C 
ATOM      2  C   UNL     1       4.212   3.534  19.172  0.00  0.00    +0.000 C 
ATOM      3  N   UNL     1       5.689   3.750  19.231  0.00  0.00    +0.000 N 
ATOM      4  C   UNL     1       5.924   4.202  17.892  0.00  0.00    +0.000 A 
ATOM      5  C   UNL     1       6.981   5.006  17.519  0.00  0.00    +0.000 A 
ATOM      6  C   UNL     1       6.946   5.561  16.243  0.00  0.00    +0.000 A 
ATOM      7  C   UNL     1       5.893   5.259  15.360  0.00  0.00    +0.000 A 
ATOM      8  C   UNL     1       4.891   4.346  15.714  0.00  0.00    +0.000 A 
ATOM      9  C   UNL     1       4.932   3.800  16.984  0.00  0.00    +0.000 A 
ATOM     10  C   UNL     1       3.947   2.930  17.735  0.00  0.00    +0.000 C 
ATOM     11  C   UNL     1       2.459   3.154  17.495  0.00  0.00    +0.000 C 
ATOM     12  C   UNL     1       2.065   4.291  18.434  0.00  0.00    +0.000 C 
ATOM     13  N   UNL     1       3.311   4.690  19.063  0.00  0.00    +0.000 NA
ATOM     14  H   UNL     1       6.142   2.836  19.303  0.00  0.00    +0.000 HD
ENDROOT
BRANCH  10  15
ATOM     15  O   UNL     1       4.272   1.550  17.590  0.00  0.00    +0.000 OA
ATOM     16  H   UNL     1       4.338   1.178  18.487  0.00  0.00    +0.000 HD
ENDBRANCH  10  15
BRANCH  13  17
ATOM     17  C   UNL     1       3.309   5.709  20.079  0.00  0.00    +0.000 C 
BRANCH  17  18
ATOM     18  C   UNL     1       2.624   6.965  19.565  0.00  0.00    +0.000 A 
ATOM     19  C   UNL     1       1.720   7.662  20.365  0.00  0.00    +0.000 A 
ATOM     20  C   UNL     1       0.961   8.707  19.829  0.00  0.00    +0.000 A 
ATOM     21  C   UNL     1       1.098   9.086  18.487  0.00  0.00    +0.000 A 
ATOM     22  C   UNL     1       2.035   8.415  17.695  0.00  0.00    +0.000 A 
ATOM     23  C   UNL     1       2.800   7.372  18.230  0.00  0.00    +0.000 A 
BRANCH  21  24
ATOM     24  C   UNL     1       0.179  10.102  17.946  0.00  0.00    +0.000 C 
ATOM     25  C   UNL     1      -1.140   9.927  17.793  0.00  0.00    +0.000 C 
BRANCH  25  26
ATOM     26  C   UNL     1      -1.975  11.032  17.247  0.00  0.00    +0.000 C 
ATOM     27  O   UNL     1      -2.182  12.085  17.844  0.00  0.00    +0.000 OA
ATOM     28  N   UNL     1      -2.498  10.756  16.018  0.00  0.00    +0.000 N 
ATOM     29  H   UNL     1      -2.338   9.917  15.475  0.00  0.00    +0.000 HD
BRANCH  28  30
ATOM     30  O   UNL     1      -3.300  11.760  15.428  0.00  0.00    +0.000 OA
ATOM     31  H   UNL     1      -2.632  12.310  14.961  0.00  0.00    +0.000 HD
ENDBRANCH  28  30
ENDBRANCH  25  26
ENDBRANCH  21  24
ENDBRANCH  17  18
ENDBRANCH  13  17
TORSDOF 6
ENDMDL
MODEL 2
REMARK VINA RESULT:      -9.0      2.136      2.564
REMARK  Name = 
REMARK  7 active torsions:
REMARK  status: ('A' for Active; 'I' for Inactive)
REMARK    1  A    between atoms: C_1  and  C_2
REMARK    2  A    between atoms: C_10  and  O_11
REMARK    3  A    between atoms: N_14  and  C_15
REMARK    4  A    between atoms: C_15  and  C_16
REMARK    5  A    between atoms: C_19  and  C_20
REMARK    6  A    between atoms: C_21  and  C_22
REMARK    7  A    between atoms: N_24  and  O_25
REMARK                            x       y       z     vdW  Elec       q    Type
REMARK                         _______ _______ _______ _____ _____    ______ ____
ROOT
ATOM      1  C   UNL     1       3.499   2.356  20.602  0.00  0.00    +0.000 C 
ATOM      2  C   UNL     1       3.780   3.339  19.457  0.00  0.00    +0.000 C 
ATOM      3  N   UNL     1       5.194   3.803  19.588  0.00  0.00    +0.000 N 
ATOM      4  C   UNL     1       5.407   4.313  18.265  0.00  0.00    +0.000 A 
ATOM      5  C   UNL     1       6.325   5.293  17.951  0.00  0.00    +0.000 A 
ATOM      6  C   UNL     1       6.250   5.857  16.680  0.00  0.00    +0.000 A 
ATOM      7  C   UNL     1       5.305   5.395  15.746  0.00  0.00    +0.000 A 
ATOM      8  C   UNL     1       4.460   4.318  16.043  0.00  0.00    +0.000 A 
ATOM      9  C   UNL     1       4.539   3.763  17.308  0.00  0.00    +0.000 A 
ATOM     10  C   UNL     1       3.687   2.724  18.004  0.00  0.00    +0.000 C 
ATOM     11  C   UNL     1       2.194   2.694  17.697  0.00  0.00    +0.000 C 
ATOM     12  C   UNL     1       1.570   3.730  18.629  0.00  0.00    +0.000 C 
ATOM     13  N   UNL     1       2.700   4.325  19.318  0.00  0.00    +0.000 NA
ATOM     14  H   UNL     1       5.794   2.979  19.671  0.00  0.00    +0.000 HD
ENDROOT
BRANCH  10  15
ATOM     15  O   UNL     1       4.250   1.423  17.859  0.00  0.00    +0.000 OA
ATOM     16  H   UNL     1       4.711   1.406  17.002  0.00  0.00    +0.000 HD
ENDBRANCH  10  15
BRANCH  13  17
ATOM     17  C   UNL     1       2.478   5.309  20.345  0.00  0.00    +0.000 C 
BRANCH  17  18
ATOM     18  C   UNL     1       2.182   6.664  19.720  0.00  0.00    +0.000 A 
ATOM     19  C   UNL     1       2.686   6.995  18.463  0.00  0.00    +0.000 A 
ATOM     20  C   UNL     1       2.564   8.299  17.973  0.00  0.00    +0.000 A 
ATOM     21  C   UNL     1       1.924   9.296  18.722  0.00  0.00    +0.000 A 
ATOM     22  C   UNL     1       1.381   8.954  19.965  0.00  0.00    +0.000 A 
ATOM     23  C   UNL     1       1.497   7.649  20.456  0.00  0.00    +0.000 A 
BRANCH  21  24
ATOM     24  C   UNL     1       1.943  10.678  18.213  0.00  0.00    +0.000 C 
ATOM     25  C   UNL     1       1.796  11.768  18.976  0.00  0.00    +0.000 C 
BRANCH  25  26
ATOM     26  C   UNL     1       1.846  13.120  18.353  0.00  0.00    +0.000 C 
ATOM     27  O   UNL     1       0.876  13.868  18.273  0.00  0.00    +0.000 OA
ATOM     28  N   UNL     1       3.080  13.444  17.868  0.00  0.00    +0.000 N 
ATOM     29  H   UNL     1       3.914  12.876  17.932  0.00  0.00    +0.000 HD
BRANCH  28  30
ATOM     30  O   UNL     1       3.212  14.716  17.267  0.00  0.00    +0.000 OA
ATOM     31  H   UNL     1       3.311  15.305  18.047  0.00  0.00    +0.000 HD
ENDBRANCH  28  30
ENDBRANCH  25  26
ENDBRANCH  21  24
ENDBRANCH  17  18
ENDBRANCH  13  17
TORSDOF 6
ENDMDL
MODEL 3
REMARK VINA RESULT:      -9.0      1.372      1.588
REMARK  Name = 
REMARK  7 active torsions:
REMARK  status: ('A' for Active; 'I' for Inactive)
REMARK    1  A    between atoms: C_1  and  C_2
REMARK    2  A    between atoms: C_10  and  O_11
REMARK    3  A    between atoms: N_14  and  C_15
REMARK    4  A    between atoms: C_15  and  C_16
REMARK    5  A    between atoms: C_19  and  C_20
REMARK    6  A    between atoms: C_21  and  C_22
REMARK    7  A    between atoms: N_24  and  O_25
REMARK                            x       y       z     vdW  Elec       q    Type
REMARK                         _______ _______ _______ _____ _____    ______ ____
ROOT
ATOM      1  C   UNL     1       3.563   2.281  20.505  0.00  0.00    +0.000 C 
ATOM      2  C   UNL     1       3.836   3.368  19.456  0.00  0.00    +0.000 C 
ATOM      3  N   UNL     1       5.254   3.811  19.612  0.00  0.00    +0.000 N 
ATOM      4  C   UNL     1       5.453   4.445  18.342  0.00  0.00    +0.000 A 
ATOM      5  C   UNL     1       6.373   5.446  18.111  0.00  0.00    +0.000 A 
ATOM      6  C   UNL     1       6.286   6.131  16.902  0.00  0.00    +0.000 A 
ATOM      7  C   UNL     1       5.327   5.765  15.940  0.00  0.00    +0.000 A 
ATOM      8  C   UNL     1       4.479   4.668  16.144  0.00  0.00    +0.000 A 
ATOM      9  C   UNL     1       4.570   3.994  17.348  0.00  0.00    +0.000 A 
ATOM     10  C   UNL     1       3.720   2.897  17.951  0.00  0.00    +0.000 C 
ATOM     11  C   UNL     1       2.224   2.904  17.663  0.00  0.00    +0.000 C 
ATOM     12  C   UNL     1       1.618   3.848  18.699  0.00  0.00    +0.000 C 
ATOM     13  N   UNL     1       2.760   4.368  19.427  0.00  0.00    +0.000 NA
ATOM     14  H   UNL     1       5.850   2.980  19.608  0.00  0.00    +0.000 HD
ENDROOT
BRANCH  10  15
ATOM     15  O   UNL     1       4.274   1.613  17.675  0.00  0.00    +0.000 OA
ATOM     16  H   UNL     1       3.864   0.987  18.298  0.00  0.00    +0.000 HD
ENDBRANCH  10  15
BRANCH  13  17
ATOM     17  C   UNL     1       2.557   5.251  20.546  0.00  0.00    +0.000 C 
BRANCH  17  18
ATOM     18  C   UNL     1       2.250   6.658  20.059  0.00  0.00    +0.000 A 
ATOM     19  C   UNL     1       1.543   7.552  20.861  0.00  0.00    +0.000 A 
ATOM     20  C   UNL     1       1.109   8.776  20.344  0.00  0.00    +0.000 A 
ATOM     21  C   UNL     1       1.383   9.139  19.018  0.00  0.00    +0.000 A 
ATOM     22  C   UNL     1       2.130   8.261  18.225  0.00  0.00    +0.000 A 
ATOM     23  C   UNL     1       2.570   7.037  18.742  0.00  0.00    +0.000 A 
BRANCH  21  24
ATOM     24  C   UNL     1       0.788  10.378  18.491  0.00  0.00    +0.000 C 
ATOM     25  C   UNL     1      -0.128  11.113  19.134  0.00  0.00    +0.000 C 
BRANCH  25  26
ATOM     26  C   UNL     1      -0.651  12.360  18.509  0.00  0.00    +0.000 C 
ATOM     27  O   UNL     1      -1.522  12.371  17.645  0.00  0.00    +0.000 OA
ATOM     28  N   UNL     1      -0.056  13.492  18.985  0.00  0.00    +0.000 N 
ATOM     29  H   UNL     1       0.646  13.537  19.712  0.00  0.00    +0.000 HD
BRANCH  28  30
ATOM     30  O   UNL     1      -0.503  14.719  18.444  0.00  0.00    +0.000 OA
ATOM     31  H   UNL     1      -0.628  15.267  19.251  0.00  0.00    +0.000 HD
ENDBRANCH  28  30
ENDBRANCH  25  26
ENDBRANCH  21  24
ENDBRANCH  17  18
ENDBRANCH  13  17
TORSDOF 6
ENDMDL
MODEL 4
REMARK VINA RESULT:      -8.9      4.218      6.651
REMARK  Name = 
REMARK  7 active torsions:
REMARK  status: ('A' for Active; 'I' for Inactive)
REMARK    1  A    between atoms: C_1  and  C_2
REMARK    2  A    between atoms: C_10  and  O_11
REMARK    3  A    between atoms: N_14  and  C_15
REMARK    4  A    between atoms: C_15  and  C_16
REMARK    5  A    between atoms: C_19  and  C_20
REMARK    6  A    between atoms: C_21  and  C_22
REMARK    7  A    between atoms: N_24  and  O_25
REMARK                            x       y       z     vdW  Elec       q    Type
REMARK                         _______ _______ _______ _____ _____    ______ ____
ROOT
ATOM      1  C   UNL     1       2.966   2.002  17.505  0.00  0.00    +0.000 C 
ATOM      2  C   UNL     1       3.071   3.380  18.173  0.00  0.00    +0.000 C 
ATOM      3  N   UNL     1       2.463   4.386  17.251  0.00  0.00    +0.000 N 
ATOM      4  C   UNL     1       2.244   5.462  18.172  0.00  0.00    +0.000 A 
ATOM      5  C   UNL     1       2.176   6.791  17.810  0.00  0.00    +0.000 A 
ATOM      6  C   UNL     1       2.204   7.736  18.832  0.00  0.00    +0.000 A 
ATOM      7  C   UNL     1       2.244   7.333  20.179  0.00  0.00    +0.000 A 
ATOM      8  C   UNL     1       2.193   5.978  20.531  0.00  0.00    +0.000 A 
ATOM      9  C   UNL     1       2.167   5.044  19.511  0.00  0.00    +0.000 A 
ATOM     10  C   UNL     1       2.271   3.535  19.528  0.00  0.00    +0.000 C 
ATOM     11  C   UNL     1       3.166   2.887  20.578  0.00  0.00    +0.000 C 
ATOM     12  C   UNL     1       4.570   2.907  19.978  0.00  0.00    +0.000 C 
ATOM     13  N   UNL     1       4.416   3.612  18.718  0.00  0.00    +0.000 NA
ATOM     14  H   UNL     1       1.534   4.052  16.984  0.00  0.00    +0.000 HD
ENDROOT
BRANCH  10  15
ATOM     15  O   UNL     1       0.978   2.935  19.539  0.00  0.00    +0.000 OA
ATOM     16  H   UNL     1       0.859   2.501  18.676  0.00  0.00    +0.000 HD
ENDBRANCH  10  15
BRANCH  13  17
ATOM     17  C   UNL     1       5.543   3.759  17.835  0.00  0.00    +0.000 C 
BRANCH  17  18
ATOM     18  C   UNL     1       6.118   5.162  17.944  0.00  0.00    +0.000 A 
ATOM     19  C   UNL     1       5.617   6.201  17.161  0.00  0.00    +0.000 A 
ATOM     20  C   UNL     1       6.263   7.441  17.133  0.00  0.00    +0.000 A 
ATOM     21  C   UNL     1       7.416   7.673  17.894  0.00  0.00    +0.000 A 
ATOM     22  C   UNL     1       7.896   6.644  18.712  0.00  0.00    +0.000 A 
ATOM     23  C   UNL     1       7.248   5.404  18.747  0.00  0.00    +0.000 A 
BRANCH  21  24
ATOM     24  C   UNL     1       8.127   8.951  17.722  0.00  0.00    +0.000 C 
ATOM     25  C   UNL     1       8.777   9.595  18.699  0.00  0.00    +0.000 C 
BRANCH  25  26
ATOM     26  C   UNL     1       9.475  10.877  18.405  0.00  0.00    +0.000 C 
ATOM     27  O   UNL     1      10.619  11.128  18.774  0.00  0.00    +0.000 OA
ATOM     28  N   UNL     1       8.712  11.754  17.691  0.00  0.00    +0.000 N 
ATOM     29  H   UNL     1       7.777  11.586  17.343  0.00  0.00    +0.000 HD
BRANCH  28  30
ATOM     30  O   UNL     1       9.307  12.994  17.365  0.00  0.00    +0.000 OA
ATOM     31  H   UNL     1       9.964  13.105  18.088  0.00  0.00    +0.000 HD
ENDBRANCH  28  30
ENDBRANCH  25  26
ENDBRANCH  21  24
ENDBRANCH  17  18
ENDBRANCH  13  17
TORSDOF 6
ENDMDL
MODEL 5
REMARK VINA RESULT:      -8.8      1.813      2.149
REMARK  Name = 
REMARK  7 active torsions:
REMARK  status: ('A' for Active; 'I' for Inactive)
REMARK    1  A    between atoms: C_1  and  C_2
REMARK    2  A    between atoms: C_10  and  O_11
REMARK    3  A    between atoms: N_14  and  C_15
REMARK    4  A    between atoms: C_15  and  C_16
REMARK    5  A    between atoms: C_19  and  C_20
REMARK    6  A    between atoms: C_21  and  C_22
REMARK    7  A    between atoms: N_24  and  O_25
REMARK                            x       y       z     vdW  Elec       q    Type
REMARK                         _______ _______ _______ _____ _____    ______ ____
ROOT
ATOM      1  C   UNL     1       3.599   2.364  20.558  0.00  0.00    +0.000 C 
ATOM      2  C   UNL     1       3.892   3.369  19.435  0.00  0.00    +0.000 C 
ATOM      3  N   UNL     1       5.324   3.778  19.547  0.00  0.00    +0.000 N 
ATOM      4  C   UNL     1       5.528   4.318  18.236  0.00  0.00    +0.000 A 
ATOM      5  C   UNL     1       6.475   5.273  17.929  0.00  0.00    +0.000 A 
ATOM      6  C   UNL     1       6.394   5.876  16.676  0.00  0.00    +0.000 A 
ATOM      7  C   UNL     1       5.414   5.475  15.750  0.00  0.00    +0.000 A 
ATOM      8  C   UNL     1       4.537   4.421  16.036  0.00  0.00    +0.000 A 
ATOM      9  C   UNL     1       4.621   3.828  17.283  0.00  0.00    +0.000 A 
ATOM     10  C   UNL     1       3.746   2.800  17.967  0.00  0.00    +0.000 C 
ATOM     11  C   UNL     1       2.247   2.833  17.692  0.00  0.00    +0.000 C 
ATOM     12  C   UNL     1       1.681   3.863  18.666  0.00  0.00    +0.000 C 
ATOM     13  N   UNL     1       2.846   4.397  19.347  0.00  0.00    +0.000 NA
ATOM     14  H   UNL     1       5.896   2.931  19.594  0.00  0.00    +0.000 HD
ENDROOT
BRANCH  10  15
ATOM     15  O   UNL     1       4.259   1.485  17.774  0.00  0.00    +0.000 OA
ATOM     16  H   UNL     1       4.559   1.167  18.643  0.00  0.00    +0.000 HD
ENDBRANCH  10  15
BRANCH  13  17
ATOM     17  C   UNL     1       2.681   5.359  20.405  0.00  0.00    +0.000 C 
BRANCH  17  18
ATOM     18  C   UNL     1       2.184   6.681  19.843  0.00  0.00    +0.000 A 
ATOM     19  C   UNL     1       2.561   7.100  18.568  0.00  0.00    +0.000 A 
ATOM     20  C   UNL     1       2.250   8.390  18.126  0.00  0.00    +0.000 A 
ATOM     21  C   UNL     1       1.545   9.284  18.944  0.00  0.00    +0.000 A 
ATOM     22  C   UNL     1       1.131   8.850  20.208  0.00  0.00    +0.000 A 
ATOM     23  C   UNL     1       1.435   7.558  20.650  0.00  0.00    +0.000 A 
BRANCH  21  24
ATOM     24  C   UNL     1       1.364  10.669  18.478  0.00  0.00    +0.000 C 
ATOM     25  C   UNL     1       1.128  11.714  19.281  0.00  0.00    +0.000 C 
BRANCH  25  26
ATOM     26  C   UNL     1       0.975  13.077  18.698  0.00  0.00    +0.000 C 
ATOM     27  O   UNL     1       1.857  13.645  18.061  0.00  0.00    +0.000 OA
ATOM     28  N   UNL     1      -0.243  13.637  18.952  0.00  0.00    +0.000 N 
ATOM     29  H   UNL     1      -1.009  13.202  19.448  0.00  0.00    +0.000 HD
BRANCH  28  30
ATOM     30  O   UNL     1      -0.468  14.930  18.426  0.00  0.00    +0.000 OA
ATOM     31  H   UNL     1      -0.938  15.375  19.166  0.00  0.00    +0.000 HD
ENDBRANCH  28  30
ENDBRANCH  25  26
ENDBRANCH  21  24
ENDBRANCH  17  18
ENDBRANCH  13  17
TORSDOF 6
ENDMDL
MODEL 6
REMARK VINA RESULT:      -8.6      2.525      4.231
REMARK  Name = 
REMARK  7 active torsions:
REMARK  status: ('A' for Active; 'I' for Inactive)
REMARK    1  A    between atoms: C_1  and  C_2
REMARK    2  A    between atoms: C_10  and  O_11
REMARK    3  A    between atoms: N_14  and  C_15
REMARK    4  A    between atoms: C_15  and  C_16
REMARK    5  A    between atoms: C_19  and  C_20
REMARK    6  A    between atoms: C_21  and  C_22
REMARK    7  A    between atoms: N_24  and  O_25
REMARK                            x       y       z     vdW  Elec       q    Type
REMARK                         _______ _______ _______ _____ _____    ______ ____
ROOT
ATOM      1  C   UNL     1       4.772   4.043  16.235  0.00  0.00    +0.000 C 
ATOM      2  C   UNL     1       3.952   4.171  17.527  0.00  0.00    +0.000 C 
ATOM      3  N   UNL     1       2.570   3.680  17.245  0.00  0.00    +0.000 N 
ATOM      4  C   UNL     1       2.114   3.452  18.584  0.00  0.00    +0.000 A 
ATOM      5  C   UNL     1       0.788   3.476  18.966  0.00  0.00    +0.000 A 
ATOM      6  C   UNL     1       0.515   3.481  20.331  0.00  0.00    +0.000 A 
ATOM      7  C   UNL     1       1.559   3.407  21.271  0.00  0.00    +0.000 A 
ATOM      8  C   UNL     1       2.891   3.263  20.862  0.00  0.00    +0.000 A 
ATOM      9  C   UNL     1       3.156   3.261  19.504  0.00  0.00    +0.000 A 
ATOM     10  C   UNL     1       4.459   3.287  18.736  0.00  0.00    +0.000 C 
ATOM     11  C   UNL     1       5.626   4.073  19.322  0.00  0.00    +0.000 C 
ATOM     12  C   UNL     1       5.409   5.515  18.868  0.00  0.00    +0.000 C 
ATOM     13  N   UNL     1       4.144   5.484  18.157  0.00  0.00    +0.000 NA
ATOM     14  H   UNL     1       2.642   2.756  16.811  0.00  0.00    +0.000 HD
ENDROOT
BRANCH  10  15
ATOM     15  O   UNL     1       4.873   1.968  18.389  0.00  0.00    +0.000 OA
ATOM     16  H   UNL     1       4.539   1.373  19.084  0.00  0.00    +0.000 HD
ENDBRANCH  10  15
BRANCH  13  17
ATOM     17  C   UNL     1       3.651   6.676  17.517  0.00  0.00    +0.000 C 
BRANCH  17  18
ATOM     18  C   UNL     1       2.654   7.384  18.421  0.00  0.00    +0.000 A 
ATOM     19  C   UNL     1       2.089   8.602  18.043  0.00  0.00    +0.000 A 
ATOM     20  C   UNL     1       1.315   9.334  18.948  0.00  0.00    +0.000 A 
ATOM     21  C   UNL     1       1.078   8.860  20.246  0.00  0.00    +0.000 A 
ATOM     22  C   UNL     1       1.610   7.619  20.612  0.00  0.00    +0.000 A 
ATOM     23  C   UNL     1       2.380   6.881  19.706  0.00  0.00    +0.000 A 
BRANCH  21  24
ATOM     24  C   UNL     1       0.370   9.734  21.195  0.00  0.00    +0.000 C 
ATOM     25  C   UNL     1      -0.050  10.975  20.916  0.00  0.00    +0.000 C 
BRANCH  25  26
ATOM     26  C   UNL     1      -0.771  11.765  21.953  0.00  0.00    +0.000 C 
ATOM     27  O   UNL     1      -0.641  11.579  23.159  0.00  0.00    +0.000 OA
ATOM     28  N   UNL     1      -1.601  12.712  21.428  0.00  0.00    +0.000 N 
ATOM     29  H   UNL     1      -1.724  12.920  20.446  0.00  0.00    +0.000 HD
BRANCH  28  30
ATOM     30  O   UNL     1      -2.318  13.509  22.349  0.00  0.00    +0.000 OA
ATOM     31  H   UNL     1      -1.922  14.397  22.206  0.00  0.00    +0.000 HD
ENDBRANCH  28  30
ENDBRANCH  25  26
ENDBRANCH  21  24
ENDBRANCH  17  18
ENDBRANCH  13  17
TORSDOF 6
ENDMDL
MODEL 7
REMARK VINA RESULT:      -8.5      4.047      6.676
REMARK  Name = 
REMARK  7 active torsions:
REMARK  status: ('A' for Active; 'I' for Inactive)
REMARK    1  A    between atoms: C_1  and  C_2
REMARK    2  A    between atoms: C_10  and  O_11
REMARK    3  A    between atoms: N_14  and  C_15
REMARK    4  A    between atoms: C_15  and  C_16
REMARK    5  A    between atoms: C_19  and  C_20
REMARK    6  A    between atoms: C_21  and  C_22
REMARK    7  A    between atoms: N_24  and  O_25
REMARK                            x       y       z     vdW  Elec       q    Type
REMARK                         _______ _______ _______ _____ _____    ______ ____
ROOT
ATOM      1  C   UNL     1       2.323   1.817  17.843  0.00  0.00    +0.000 C 
ATOM      2  C   UNL     1       2.609   3.263  18.271  0.00  0.00    +0.000 C 
ATOM      3  N   UNL     1       1.907   4.172  17.315  0.00  0.00    +0.000 N 
ATOM      4  C   UNL     1       1.901   5.380  18.086  0.00  0.00    +0.000 A 
ATOM      5  C   UNL     1       1.841   6.647  17.543  0.00  0.00    +0.000 A 
ATOM      6  C   UNL     1       2.088   7.721  18.394  0.00  0.00    +0.000 A 
ATOM      7  C   UNL     1       2.333   7.509  19.763  0.00  0.00    +0.000 A 
ATOM      8  C   UNL     1       2.272   6.225  20.318  0.00  0.00    +0.000 A 
ATOM      9  C   UNL     1       2.028   5.162  19.468  0.00  0.00    +0.000 A 
ATOM     10  C   UNL     1       2.055   3.666  19.696  0.00  0.00    +0.000 C 
ATOM     11  C   UNL     1       3.080   3.106  20.676  0.00  0.00    +0.000 C 
ATOM     12  C   UNL     1       4.362   2.937  19.866  0.00  0.00    +0.000 C 
ATOM     13  N   UNL     1       4.036   3.467  18.555  0.00  0.00    +0.000 NA
ATOM     14  H   UNL     1       0.931   3.875  17.251  0.00  0.00    +0.000 HD
ENDROOT
BRANCH  10  15
ATOM     15  O   UNL     1       0.754   3.173  20.001  0.00  0.00    +0.000 OA
ATOM     16  H   UNL     1       0.842   2.604  20.786  0.00  0.00    +0.000 HD
ENDBRANCH  10  15
BRANCH  13  17
ATOM     17  C   UNL     1       5.005   3.403  17.493  0.00  0.00    +0.000 C 
BRANCH  17  18
ATOM     18  C   UNL     1       5.795   4.700  17.422  0.00  0.00    +0.000 A 
ATOM     19  C   UNL     1       7.038   4.813  18.044  0.00  0.00    +0.000 A 
ATOM     20  C   UNL     1       7.677   6.054  18.130  0.00  0.00    +0.000 A 
ATOM     21  C   UNL     1       7.094   7.207  17.585  0.00  0.00    +0.000 A 
ATOM     22  C   UNL     1       5.867   7.086  16.923  0.00  0.00    +0.000 A 
ATOM     23  C   UNL     1       5.228   5.845  16.831  0.00  0.00    +0.000 A 
BRANCH  21  24
ATOM     24  C   UNL     1       7.748   8.504  17.821  0.00  0.00    +0.000 C 
ATOM     25  C   UNL     1       8.595   8.754  18.828  0.00  0.00    +0.000 C 
BRANCH  25  26
ATOM     26  C   UNL     1       9.209  10.104  18.961  0.00  0.00    +0.000 C 
ATOM     27  O   UNL     1       9.469  10.628  20.040  0.00  0.00    +0.000 OA
ATOM     28  N   UNL     1       9.447  10.709  17.761  0.00  0.00    +0.000 N 
ATOM     29  H   UNL     1       9.276  10.310  16.848  0.00  0.00    +0.000 HD
BRANCH  28  30
ATOM     30  O   UNL     1      10.036  11.993  17.803  0.00  0.00    +0.000 OA
ATOM     31  H   UNL     1      10.339  12.051  18.737  0.00  0.00    +0.000 HD
ENDBRANCH  28  30
ENDBRANCH  25  26
ENDBRANCH  21  24
ENDBRANCH  17  18
ENDBRANCH  13  17
TORSDOF 6
ENDMDL
MODEL 8
REMARK VINA RESULT:      -8.1      1.244      1.734
REMARK  Name = 
REMARK  7 active torsions:
REMARK  status: ('A' for Active; 'I' for Inactive)
REMARK    1  A    between atoms: C_1  and  C_2
REMARK    2  A    between atoms: C_10  and  O_11
REMARK    3  A    between atoms: N_14  and  C_15
REMARK    4  A    between atoms: C_15  and  C_16
REMARK    5  A    between atoms: C_19  and  C_20
REMARK    6  A    between atoms: C_21  and  C_22
REMARK    7  A    between atoms: N_24  and  O_25
REMARK                            x       y       z     vdW  Elec       q    Type
REMARK                         _______ _______ _______ _____ _____    ______ ____
ROOT
ATOM      1  C   UNL     1       3.712   3.028  20.185  0.00  0.00    +0.000 C 
ATOM      2  C   UNL     1       4.212   3.779  18.942  0.00  0.00    +0.000 C 
ATOM      3  N   UNL     1       5.705   3.749  18.957  0.00  0.00    +0.000 N 
ATOM      4  C   UNL     1       5.969   4.066  17.584  0.00  0.00    +0.000 A 
ATOM      5  C   UNL     1       7.132   4.657  17.135  0.00  0.00    +0.000 A 
ATOM      6  C   UNL     1       7.148   5.125  15.824  0.00  0.00    +0.000 A 
ATOM      7  C   UNL     1       6.033   4.944  14.985  0.00  0.00    +0.000 A 
ATOM      8  C   UNL     1       4.906   4.236  15.423  0.00  0.00    +0.000 A 
ATOM      9  C   UNL     1       4.896   3.776  16.727  0.00  0.00    +0.000 A 
ATOM     10  C   UNL     1       3.806   3.133  17.557  0.00  0.00    +0.000 C 
ATOM     11  C   UNL     1       2.368   3.586  17.331  0.00  0.00    +0.000 C 
ATOM     12  C   UNL     1       2.197   4.832  18.196  0.00  0.00    +0.000 C 
ATOM     13  N   UNL     1       3.510   5.058  18.770  0.00  0.00    +0.000 NA
ATOM     14  H   UNL     1       6.003   2.779  19.084  0.00  0.00    +0.000 HD
ENDROOT
BRANCH  10  15
ATOM     15  O   UNL     1       3.894   1.712  17.503  0.00  0.00    +0.000 OA
ATOM     16  H   UNL     1       4.693   1.496  16.991  0.00  0.00    +0.000 HD
ENDBRANCH  10  15
BRANCH  13  17
ATOM     17  C   UNL     1       3.708   6.128  19.712  0.00  0.00    +0.000 C 
BRANCH  17  18
ATOM     18  C   UNL     1       2.556   7.118  19.636  0.00  0.00    +0.000 A 
ATOM     19  C   UNL     1       2.417   7.967  18.538  0.00  0.00    +0.000 A 
ATOM     20  C   UNL     1       1.467   8.992  18.553  0.00  0.00    +0.000 A 
ATOM     21  C   UNL     1       0.627   9.185  19.659  0.00  0.00    +0.000 A 
ATOM     22  C   UNL     1       0.738   8.307  20.743  0.00  0.00    +0.000 A 
ATOM     23  C   UNL     1       1.684   7.276  20.729  0.00  0.00    +0.000 A 
BRANCH  21  24
ATOM     24  C   UNL     1      -0.259  10.360  19.673  0.00  0.00    +0.000 C 
ATOM     25  C   UNL     1      -1.235  10.584  18.784  0.00  0.00    +0.000 C 
BRANCH  25  26
ATOM     26  C   UNL     1      -2.081  11.804  18.904  0.00  0.00    +0.000 C 
ATOM     27  O   UNL     1      -3.228  11.879  18.475  0.00  0.00    +0.000 OA
ATOM     28  N   UNL     1      -1.450  12.837  19.533  0.00  0.00    +0.000 N 
ATOM     29  H   UNL     1      -0.518  12.817  19.926  0.00  0.00    +0.000 HD
BRANCH  28  30
ATOM     30  O   UNL     1      -2.190  14.031  19.693  0.00  0.00    +0.000 OA
ATOM     31  H   UNL     1      -2.252  14.107  20.671  0.00  0.00    +0.000 HD
ENDBRANCH  28  30
ENDBRANCH  25  26
ENDBRANCH  21  24
ENDBRANCH  17  18
ENDBRANCH  13  17
TORSDOF 6
ENDMDL
MODEL 9
REMARK VINA RESULT:      -8.1      2.462      4.181
REMARK  Name = 
REMARK  7 active torsions:
REMARK  status: ('A' for Active; 'I' for Inactive)
REMARK    1  A    between atoms: C_1  and  C_2
REMARK    2  A    between atoms: C_10  and  O_11
REMARK    3  A    between atoms: N_14  and  C_15
REMARK    4  A    between atoms: C_15  and  C_16
REMARK    5  A    between atoms: C_19  and  C_20
REMARK    6  A    between atoms: C_21  and  C_22
REMARK    7  A    between atoms: N_24  and  O_25
REMARK                            x       y       z     vdW  Elec       q    Type
REMARK                         _______ _______ _______ _____ _____    ______ ____
ROOT
ATOM      1  C   UNL     1       5.103   4.191  16.290  0.00  0.00    +0.000 C 
ATOM      2  C   UNL     1       4.229   4.439  17.527  0.00  0.00    +0.000 C 
ATOM      3  N   UNL     1       2.883   3.847  17.265  0.00  0.00    +0.000 N 
ATOM      4  C   UNL     1       2.386   3.766  18.607  0.00  0.00    +0.000 A 
ATOM      5  C   UNL     1       1.047   3.772  18.939  0.00  0.00    +0.000 A 
ATOM      6  C   UNL     1       0.721   3.934  20.283  0.00  0.00    +0.000 A 
ATOM      7  C   UNL     1       1.730   4.031  21.258  0.00  0.00    +0.000 A 
ATOM      8  C   UNL     1       3.083   3.904  20.915  0.00  0.00    +0.000 A 
ATOM      9  C   UNL     1       3.400   3.745  19.578  0.00  0.00    +0.000 A 
ATOM     10  C   UNL     1       4.729   3.740  18.855  0.00  0.00    +0.000 C 
ATOM     11  C   UNL     1       5.835   4.651  19.374  0.00  0.00    +0.000 C 
ATOM     12  C   UNL     1       5.570   6.012  18.733  0.00  0.00    +0.000 C 
ATOM     13  N   UNL     1       4.336   5.829  17.991  0.00  0.00    +0.000 NA
ATOM     14  H   UNL     1       3.014   2.881  16.955  0.00  0.00    +0.000 HD
ENDROOT
BRANCH  10  15
ATOM     15  O   UNL     1       5.216   2.410  18.692  0.00  0.00    +0.000 OA
ATOM     16  H   UNL     1       5.915   2.444  18.016  0.00  0.00    +0.000 HD
ENDBRANCH  10  15
BRANCH  13  17
ATOM     17  C   UNL     1       3.814   6.904  17.190  0.00  0.00    +0.000 C 
BRANCH  17  18
ATOM     18  C   UNL     1       2.916   7.799  18.029  0.00  0.00    +0.000 A 
ATOM     19  C   UNL     1       2.425   7.363  19.260  0.00  0.00    +0.000 A 
ATOM     20  C   UNL     1       1.460   8.111  19.942  0.00  0.00    +0.000 A 
ATOM     21  C   UNL     1       0.974   9.316  19.416  0.00  0.00    +0.000 A 
ATOM     22  C   UNL     1       1.497   9.775  18.201  0.00  0.00    +0.000 A 
ATOM     23  C   UNL     1       2.466   9.031  17.519  0.00  0.00    +0.000 A 
BRANCH  21  24
ATOM     24  C   UNL     1      -0.134   9.990  20.111  0.00  0.00    +0.000 C 
ATOM     25  C   UNL     1       0.019  10.862  21.116  0.00  0.00    +0.000 C 
BRANCH  25  26
ATOM     26  C   UNL     1      -1.177  11.495  21.737  0.00  0.00    +0.000 C 
ATOM     27  O   UNL     1      -1.904  12.293  21.152  0.00  0.00    +0.000 OA
ATOM     28  N   UNL     1      -1.382  11.108  23.029  0.00  0.00    +0.000 N 
ATOM     29  H   UNL     1      -0.829  10.437  23.546  0.00  0.00    +0.000 HD
BRANCH  28  30
ATOM     30  O   UNL     1      -2.504  11.661  23.688  0.00  0.00    +0.000 OA
ATOM     31  H   UNL     1      -3.152  10.922  23.648  0.00  0.00    +0.000 HD
ENDBRANCH  28  30
ENDBRANCH  25  26
ENDBRANCH  21  24
ENDBRANCH  17  18
ENDBRANCH  13  17
TORSDOF 6
ENDMDL
