MODEL 1
REMARK VINA RESULT:      -7.1      0.000      0.000
REMARK  Name = 
REMARK  11 active torsions:
REMARK  status: ('A' for Active; 'I' for Inactive)
REMARK    1  A    between atoms: C_2  and  C_3
REMARK    2  A    between atoms: C_2  and  C_4
REMARK    3  A    between atoms: C_4  and  O_5
REMARK    4  A    between atoms: C_4  and  C_6
REMARK    5  A    between atoms: C_6  and  C_7
REMARK    6  A    between atoms: C_7  and  C_8
REMARK    7  A    between atoms: C_8  and  C_10
REMARK    8  A    between atoms: C_13  and  C_14
REMARK    9  A    between atoms: C_13  and  O_15
REMARK   10  A    between atoms: C_20  and  C_21
REMARK   11  A    between atoms: C_23  and  O_24
REMARK                            x       y       z     vdW  Elec       q    Type
REMARK                         _______ _______ _______ _____ _____    ______ ____
ROOT
ATOM      1  C   UNL     1       2.420   5.570  19.039  0.00  0.00    +0.000 C 
ATOM      2  C   UNL     1       1.396   4.853  18.140  0.00  0.00    +0.000 C 
ATOM      3  C   UNL     1       1.327   3.367  18.472  0.00  0.00    +0.000 C 
ATOM      4  C   UNL     1       2.661   2.655  18.207  0.00  0.00    +0.000 C 
ATOM      5  C   UNL     1       2.804   2.371  16.703  0.00  0.00    +0.000 C 
ATOM      6  C   UNL     1       3.882   3.415  18.839  0.00  0.00    +0.000 C 
ATOM      7  O   UNL     1       5.122   3.040  18.172  0.00  0.00    +0.000 OA
ATOM      8  C   UNL     1       5.330   4.079  17.296  0.00  0.00    +0.000 A 
ATOM      9  C   UNL     1       6.167   3.989  16.202  0.00  0.00    +0.000 A 
ATOM     10  C   UNL     1       6.229   5.080  15.330  0.00  0.00    +0.000 A 
ATOM     11  C   UNL     1       7.062   5.012  14.084  0.00  0.00    +0.000 C 
ATOM     12  C   UNL     1       5.485   6.244  15.617  0.00  0.00    +0.000 A 
ATOM     13  C   UNL     1       4.667   6.309  16.746  0.00  0.00    +0.000 A 
ATOM     14  C   UNL     1       4.566   5.207  17.572  0.00  0.00    +0.000 A 
ATOM     15  C   UNL     1       3.824   4.965  18.844  0.00  0.00    +0.000 C 
ENDROOT
BRANCH   1  16
ATOM     16  C   UNL     1       1.914   5.592  20.498  0.00  0.00    +0.000 C 
ATOM     17  C   UNL     1       2.094   4.592  21.384  0.00  0.00    +0.000 C 
BRANCH  16  18
ATOM     18  C   UNL     1       1.189   6.879  20.891  0.00  0.00    +0.000 C 
BRANCH  18  19
ATOM     19  C   UNL     1       1.795   8.215  20.437  0.00  0.00    +0.000 C 
BRANCH  19  20
ATOM     20  C   UNL     1       0.795   9.387  20.356  0.00  0.00    +0.000 C 
BRANCH  20  22
ATOM     21  C   UNL     1       1.297   9.466  17.919  0.00  0.00    +0.000 C 
ATOM     22  C   UNL     1       0.449   9.743  18.924  0.00  0.00    +0.000 C 
ATOM     23  C   UNL     1      -0.858  10.445  18.658  0.00  0.00    +0.000 C 
ENDBRANCH  20  22
BRANCH  20  24
ATOM     24  O   UNL     1      -0.424   9.150  21.041  0.00  0.00    +0.000 OA
ATOM     25  H   UNL     1      -0.298   9.367  21.976  0.00  0.00    +0.000 HD
ENDBRANCH  20  24
ENDBRANCH  19  20
ENDBRANCH  18  19
ENDBRANCH  16  18
ENDBRANCH   1  16
BRANCH   4  26
ATOM     26  O   UNL     1       2.564   1.346  18.812  0.00  0.00    +0.000 OA
ATOM     27  H   UNL     1       3.401   0.876  18.652  0.00  0.00    +0.000 HD
ENDBRANCH   4  26
BRANCH  13  28
ATOM     28  O   UNL     1       3.967   7.440  17.035  0.00  0.00    +0.000 OA
ATOM     29  H   UNL     1       4.587   8.126  17.327  0.00  0.00    +0.000 HD
ENDBRANCH  13  28
TORSDOF 8
ENDMDL
MODEL 2
REMARK VINA RESULT:      -7.0      1.275      1.612
REMARK  Name = 
REMARK  11 active torsions:
REMARK  status: ('A' for Active; 'I' for Inactive)
REMARK    1  A    between atoms: C_2  and  C_3
REMARK    2  A    between atoms: C_2  and  C_4
REMARK    3  A    between atoms: C_4  and  O_5
REMARK    4  A    between atoms: C_4  and  C_6
REMARK    5  A    between atoms: C_6  and  C_7
REMARK    6  A    between atoms: C_7  and  C_8
REMARK    7  A    between atoms: C_8  and  C_10
REMARK    8  A    between atoms: C_13  and  C_14
REMARK    9  A    between atoms: C_13  and  O_15
REMARK   10  A    between atoms: C_20  and  C_21
REMARK   11  A    between atoms: C_23  and  O_24
REMARK                            x       y       z     vdW  Elec       q    Type
REMARK                         _______ _______ _______ _____ _____    ______ ____
ROOT
ATOM      1  C   UNL     1       2.560   5.996  18.788  0.00  0.00    +0.000 C 
ATOM      2  C   UNL     1       1.725   4.878  18.139  0.00  0.00    +0.000 C 
ATOM      3  C   UNL     1       1.904   3.561  18.885  0.00  0.00    +0.000 C 
ATOM      4  C   UNL     1       3.355   3.061  18.831  0.00  0.00    +0.000 C 
ATOM      5  C   UNL     1       3.619   2.392  17.473  0.00  0.00    +0.000 C 
ATOM      6  C   UNL     1       4.389   4.180  19.212  0.00  0.00    +0.000 C 
ATOM      7  O   UNL     1       5.706   3.865  18.676  0.00  0.00    +0.000 OA
ATOM      8  C   UNL     1       5.770   4.632  17.537  0.00  0.00    +0.000 A 
ATOM      9  C   UNL     1       6.663   4.391  16.512  0.00  0.00    +0.000 A 
ATOM     10  C   UNL     1       6.573   5.181  15.362  0.00  0.00    +0.000 A 
ATOM     11  C   UNL     1       7.465   4.916  14.186  0.00  0.00    +0.000 C 
ATOM     12  C   UNL     1       5.622   6.220  15.304  0.00  0.00    +0.000 A 
ATOM     13  C   UNL     1       4.750   6.453  16.370  0.00  0.00    +0.000 A 
ATOM     14  C   UNL     1       4.806   5.632  17.479  0.00  0.00    +0.000 A 
ATOM     15  C   UNL     1       4.056   5.630  18.770  0.00  0.00    +0.000 C 
ENDROOT
BRANCH   1  16
ATOM     16  C   UNL     1       1.987   6.338  20.181  0.00  0.00    +0.000 C 
ATOM     17  C   UNL     1       1.718   5.430  21.141  0.00  0.00    +0.000 C 
BRANCH  16  18
ATOM     18  C   UNL     1       1.758   7.831  20.415  0.00  0.00    +0.000 C 
BRANCH  18  19
ATOM     19  C   UNL     1       0.637   8.247  21.378  0.00  0.00    +0.000 C 
BRANCH  19  20
ATOM     20  C   UNL     1       0.812   9.640  22.017  0.00  0.00    +0.000 C 
BRANCH  20  22
ATOM     21  C   UNL     1      -1.002  11.250  22.577  0.00  0.00    +0.000 C 
ATOM     22  C   UNL     1      -0.308  10.587  21.636  0.00  0.00    +0.000 C 
ATOM     23  C   UNL     1      -0.647  10.745  20.176  0.00  0.00    +0.000 C 
ENDBRANCH  20  22
BRANCH  20  24
ATOM     24  O   UNL     1       0.884   9.617  23.433  0.00  0.00    +0.000 OA
ATOM     25  H   UNL     1       1.400  10.382  23.727  0.00  0.00    +0.000 HD
ENDBRANCH  20  24
ENDBRANCH  19  20
ENDBRANCH  18  19
ENDBRANCH  16  18
ENDBRANCH   1  16
BRANCH   4  26
ATOM     26  O   UNL     1       3.461   1.984  19.789  0.00  0.00    +0.000 OA
ATOM     27  H   UNL     1       3.320   2.354  20.677  0.00  0.00    +0.000 HD
ENDBRANCH   4  26
BRANCH  13  28
ATOM     28  O   UNL     1       3.847   7.470  16.323  0.00  0.00    +0.000 OA
ATOM     29  H   UNL     1       4.000   7.986  15.516  0.00  0.00    +0.000 HD
ENDBRANCH  13  28
TORSDOF 8
ENDMDL
MODEL 3
REMARK VINA RESULT:      -7.0      0.975      1.321
REMARK  Name = 
REMARK  11 active torsions:
REMARK  status: ('A' for Active; 'I' for Inactive)
REMARK    1  A    between atoms: C_2  and  C_3
REMARK    2  A    between atoms: C_2  and  C_4
REMARK    3  A    between atoms: C_4  and  O_5
REMARK    4  A    between atoms: C_4  and  C_6
REMARK    5  A    between atoms: C_6  and  C_7
REMARK    6  A    between atoms: C_7  and  C_8
REMARK    7  A    between atoms: C_8  and  C_10
REMARK    8  A    between atoms: C_13  and  C_14
REMARK    9  A    between atoms: C_13  and  O_15
REMARK   10  A    between atoms: C_20  and  C_21
REMARK   11  A    between atoms: C_23  and  O_24
REMARK                            x       y       z     vdW  Elec       q    Type
REMARK                         _______ _______ _______ _____ _____    ______ ____
ROOT
ATOM      1  C   UNL     1       2.410   5.561  19.084  0.00  0.00    +0.000 C 
ATOM      2  C   UNL     1       1.393   4.848  18.175  0.00  0.00    +0.000 C 
ATOM      3  C   UNL     1       1.337   3.357  18.487  0.00  0.00    +0.000 C 
ATOM      4  C   UNL     1       2.677   2.660  18.214  0.00  0.00    +0.000 C 
ATOM      5  C   UNL     1       2.823   2.397  16.707  0.00  0.00    +0.000 C 
ATOM      6  C   UNL     1       3.890   3.422  18.857  0.00  0.00    +0.000 C 
ATOM      7  O   UNL     1       5.134   3.067  18.186  0.00  0.00    +0.000 OA
ATOM      8  C   UNL     1       5.334   4.119  17.324  0.00  0.00    +0.000 A 
ATOM      9  C   UNL     1       6.173   4.051  16.230  0.00  0.00    +0.000 A 
ATOM     10  C   UNL     1       6.226   5.153  15.372  0.00  0.00    +0.000 A 
ATOM     11  C   UNL     1       7.060   5.109  14.126  0.00  0.00    +0.000 C 
ATOM     12  C   UNL     1       5.471   6.306  15.673  0.00  0.00    +0.000 A 
ATOM     13  C   UNL     1       4.651   6.350  16.803  0.00  0.00    +0.000 A 
ATOM     14  C   UNL     1       4.560   5.237  17.614  0.00  0.00    +0.000 A 
ATOM     15  C   UNL     1       3.819   4.972  18.882  0.00  0.00    +0.000 C 
ENDROOT
BRANCH   1  16
ATOM     16  C   UNL     1       1.902   5.560  20.543  0.00  0.00    +0.000 C 
ATOM     17  C   UNL     1       2.115   4.563  21.425  0.00  0.00    +0.000 C 
BRANCH  16  18
ATOM     18  C   UNL     1       1.135   6.821  20.941  0.00  0.00    +0.000 C 
BRANCH  18  19
ATOM     19  C   UNL     1       1.614   8.165  20.375  0.00  0.00    +0.000 C 
BRANCH  19  20
ATOM     20  C   UNL     1       1.499   9.357  21.347  0.00  0.00    +0.000 C 
BRANCH  20  22
ATOM     21  C   UNL     1      -0.599  10.330  20.427  0.00  0.00    +0.000 C 
ATOM     22  C   UNL     1       0.071   9.845  21.487  0.00  0.00    +0.000 C 
ATOM     23  C   UNL     1      -0.570   9.802  22.850  0.00  0.00    +0.000 C 
ENDBRANCH  20  22
BRANCH  20  24
ATOM     24  O   UNL     1       1.982   9.081  22.652  0.00  0.00    +0.000 OA
ATOM     25  H   UNL     1       1.262   8.691  23.170  0.00  0.00    +0.000 HD
ENDBRANCH  20  24
ENDBRANCH  19  20
ENDBRANCH  18  19
ENDBRANCH  16  18
ENDBRANCH   1  16
BRANCH   4  26
ATOM     26  O   UNL     1       2.591   1.343  18.803  0.00  0.00    +0.000 OA
ATOM     27  H   UNL     1       2.941   1.393  19.709  0.00  0.00    +0.000 HD
ENDBRANCH   4  26
BRANCH  13  28
ATOM     28  O   UNL     1       3.942   7.471  17.105  0.00  0.00    +0.000 OA
ATOM     29  H   UNL     1       3.177   7.526  16.511  0.00  0.00    +0.000 HD
ENDBRANCH  13  28
TORSDOF 8
ENDMDL
MODEL 4
REMARK VINA RESULT:      -6.9      1.140      1.281
REMARK  Name = 
REMARK  11 active torsions:
REMARK  status: ('A' for Active; 'I' for Inactive)
REMARK    1  A    between atoms: C_2  and  C_3
REMARK    2  A    between atoms: C_2  and  C_4
REMARK    3  A    between atoms: C_4  and  O_5
REMARK    4  A    between atoms: C_4  and  C_6
REMARK    5  A    between atoms: C_6  and  C_7
REMARK    6  A    between atoms: C_7  and  C_8
REMARK    7  A    between atoms: C_8  and  C_10
REMARK    8  A    between atoms: C_13  and  C_14
REMARK    9  A    between atoms: C_13  and  O_15
REMARK   10  A    between atoms: C_20  and  C_21
REMARK   11  A    between atoms: C_23  and  O_24
REMARK                            x       y       z     vdW  Elec       q    Type
REMARK                         _______ _______ _______ _____ _____    ______ ____
ROOT
ATOM      1  C   UNL     1       2.533   5.881  18.849  0.00  0.00    +0.000 C 
ATOM      2  C   UNL     1       1.698   4.787  18.158  0.00  0.00    +0.000 C 
ATOM      3  C   UNL     1       1.883   3.442  18.851  0.00  0.00    +0.000 C 
ATOM      4  C   UNL     1       3.335   2.949  18.771  0.00  0.00    +0.000 C 
ATOM      5  C   UNL     1       3.595   2.335  17.386  0.00  0.00    +0.000 C 
ATOM      6  C   UNL     1       4.368   4.054  19.192  0.00  0.00    +0.000 C 
ATOM      7  O   UNL     1       5.684   3.764  18.639  0.00  0.00    +0.000 OA
ATOM      8  C   UNL     1       5.741   4.576  17.530  0.00  0.00    +0.000 A 
ATOM      9  C   UNL     1       6.630   4.378  16.493  0.00  0.00    +0.000 A 
ATOM     10  C   UNL     1       6.534   5.213  15.376  0.00  0.00    +0.000 A 
ATOM     11  C   UNL     1       7.421   4.998  14.186  0.00  0.00    +0.000 C 
ATOM     12  C   UNL     1       5.579   6.252  15.363  0.00  0.00    +0.000 A 
ATOM     13  C   UNL     1       4.712   6.439  16.442  0.00  0.00    +0.000 A 
ATOM     14  C   UNL     1       4.775   5.575  17.516  0.00  0.00    +0.000 A 
ATOM     15  C   UNL     1       4.030   5.519  18.809  0.00  0.00    +0.000 C 
ENDROOT
BRANCH   1  16
ATOM     16  C   UNL     1       1.965   6.166  20.257  0.00  0.00    +0.000 C 
ATOM     17  C   UNL     1       1.953   5.276  21.270  0.00  0.00    +0.000 C 
BRANCH  16  18
ATOM     18  C   UNL     1       1.419   7.582  20.437  0.00  0.00    +0.000 C 
BRANCH  18  19
ATOM     19  C   UNL     1       2.024   8.703  19.579  0.00  0.00    +0.000 C 
BRANCH  19  20
ATOM     20  C   UNL     1       1.152   9.152  18.388  0.00  0.00    +0.000 C 
BRANCH  20  22
ATOM     21  C   UNL     1       0.302  10.975  19.855  0.00  0.00    +0.000 C 
ATOM     22  C   UNL     1       0.104  10.167  18.799  0.00  0.00    +0.000 C 
ATOM     23  C   UNL     1      -1.181  10.226  18.014  0.00  0.00    +0.000 C 
ENDBRANCH  20  22
BRANCH  20  24
ATOM     24  O   UNL     1       1.891   9.716  17.317  0.00  0.00    +0.000 OA
ATOM     25  H   UNL     1       1.860   9.104  16.567  0.00  0.00    +0.000 HD
ENDBRANCH  20  24
ENDBRANCH  19  20
ENDBRANCH  18  19
ENDBRANCH  16  18
ENDBRANCH   1  16
BRANCH   4  26
ATOM     26  O   UNL     1       3.448   1.834  19.684  0.00  0.00    +0.000 OA
ATOM     27  H   UNL     1       2.978   1.076  19.296  0.00  0.00    +0.000 HD
ENDBRANCH   4  26
BRANCH  13  28
ATOM     28  O   UNL     1       3.807   7.455  16.439  0.00  0.00    +0.000 OA
ATOM     29  H   UNL     1       4.058   8.100  17.119  0.00  0.00    +0.000 HD
ENDBRANCH  13  28
TORSDOF 8
ENDMDL
MODEL 5
REMARK VINA RESULT:      -6.8      2.979      9.081
REMARK  Name = 
REMARK  11 active torsions:
REMARK  status: ('A' for Active; 'I' for Inactive)
REMARK    1  A    between atoms: C_2  and  C_3
REMARK    2  A    between atoms: C_2  and  C_4
REMARK    3  A    between atoms: C_4  and  O_5
REMARK    4  A    between atoms: C_4  and  C_6
REMARK    5  A    between atoms: C_6  and  C_7
REMARK    6  A    between atoms: C_7  and  C_8
REMARK    7  A    between atoms: C_8  and  C_10
REMARK    8  A    between atoms: C_13  and  C_14
REMARK    9  A    between atoms: C_13  and  O_15
REMARK   10  A    between atoms: C_20  and  C_21
REMARK   11  A    between atoms: C_23  and  O_24
REMARK                            x       y       z     vdW  Elec       q    Type
REMARK                         _______ _______ _______ _____ _____    ______ ____
ROOT
ATOM      1  C   UNL     1       0.439  10.024  19.305  0.00  0.00    +0.000 C 
ATOM      2  C   UNL     1      -0.795   9.295  18.746  0.00  0.00    +0.000 C 
ATOM      3  C   UNL     1      -1.361  10.031  17.537  0.00  0.00    +0.000 C 
ATOM      4  C   UNL     1      -1.857  11.438  17.900  0.00  0.00    +0.000 C 
ATOM      5  C   UNL     1      -3.241  11.342  18.560  0.00  0.00    +0.000 C 
ATOM      6  C   UNL     1      -0.800  12.250  18.730  0.00  0.00    +0.000 C 
ATOM      7  O   UNL     1      -1.446  13.321  19.477  0.00  0.00    +0.000 OA
ATOM      8  C   UNL     1      -1.567  12.790  20.740  0.00  0.00    +0.000 A 
ATOM      9  C   UNL     1      -2.441  13.283  21.687  0.00  0.00    +0.000 A 
ATOM     10  C   UNL     1      -2.542  12.604  22.905  0.00  0.00    +0.000 A 
ATOM     11  C   UNL     1      -3.531  13.048  23.943  0.00  0.00    +0.000 C 
ATOM     12  C   UNL     1      -1.723  11.483  23.147  0.00  0.00    +0.000 A 
ATOM     13  C   UNL     1      -0.830  11.026  22.175  0.00  0.00    +0.000 A 
ATOM     14  C   UNL     1      -0.777  11.666  20.954  0.00  0.00    +0.000 A 
ATOM     15  C   UNL     1       0.068  11.455  19.741  0.00  0.00    +0.000 C 
ENDROOT
BRANCH   1  16
ATOM     16  C   UNL     1       1.607   9.929  18.298  0.00  0.00    +0.000 C 
ATOM     17  C   UNL     1       2.392  10.964  17.940  0.00  0.00    +0.000 C 
BRANCH  16  18
ATOM     18  C   UNL     1       1.835   8.527  17.734  0.00  0.00    +0.000 C 
BRANCH  18  19
ATOM     19  C   UNL     1       2.948   7.672  18.354  0.00  0.00    +0.000 C 
BRANCH  19  20
ATOM     20  C   UNL     1       2.481   6.324  18.942  0.00  0.00    +0.000 C 
BRANCH  20  22
ATOM     21  C   UNL     1       3.864   5.084  17.285  0.00  0.00    +0.000 C 
ATOM     22  C   UNL     1       2.722   5.171  17.989  0.00  0.00    +0.000 C 
ATOM     23  C   UNL     1       1.635   4.140  17.825  0.00  0.00    +0.000 C 
ENDBRANCH  20  22
BRANCH  20  24
ATOM     24  O   UNL     1       3.099   5.991  20.174  0.00  0.00    +0.000 OA
ATOM     25  H   UNL     1       2.893   5.068  20.382  0.00  0.00    +0.000 HD
ENDBRANCH  20  24
ENDBRANCH  19  20
ENDBRANCH  18  19
ENDBRANCH  16  18
ENDBRANCH   1  16
BRANCH   4  26
ATOM     26  O   UNL     1      -2.100  12.129  16.654  0.00  0.00    +0.000 OA
ATOM     27  H   UNL     1      -2.974  11.858  16.324  0.00  0.00    +0.000 HD
ENDBRANCH   4  26
BRANCH  13  28
ATOM     28  O   UNL     1      -0.023   9.958  22.418  0.00  0.00    +0.000 OA
ATOM     29  H   UNL     1       0.828  10.278  22.755  0.00  0.00    +0.000 HD
ENDBRANCH  13  28
TORSDOF 8
ENDMDL
MODEL 6
REMARK VINA RESULT:      -6.8      1.284      1.660
REMARK  Name = 
REMARK  11 active torsions:
REMARK  status: ('A' for Active; 'I' for Inactive)
REMARK    1  A    between atoms: C_2  and  C_3
REMARK    2  A    between atoms: C_2  and  C_4
REMARK    3  A    between atoms: C_4  and  O_5
REMARK    4  A    between atoms: C_4  and  C_6
REMARK    5  A    between atoms: C_6  and  C_7
REMARK    6  A    between atoms: C_7  and  C_8
REMARK    7  A    between atoms: C_8  and  C_10
REMARK    8  A    between atoms: C_13  and  C_14
REMARK    9  A    between atoms: C_13  and  O_15
REMARK   10  A    between atoms: C_20  and  C_21
REMARK   11  A    between atoms: C_23  and  O_24
REMARK                            x       y       z     vdW  Elec       q    Type
REMARK                         _______ _______ _______ _____ _____    ______ ____
ROOT
ATOM      1  C   UNL     1       2.586   6.038  18.746  0.00  0.00    +0.000 C 
ATOM      2  C   UNL     1       1.743   4.913  18.119  0.00  0.00    +0.000 C 
ATOM      3  C   UNL     1       1.913   3.610  18.892  0.00  0.00    +0.000 C 
ATOM      4  C   UNL     1       3.360   3.099  18.848  0.00  0.00    +0.000 C 
ATOM      5  C   UNL     1       3.619   2.401  17.503  0.00  0.00    +0.000 C 
ATOM      6  C   UNL     1       4.402   4.218  19.205  0.00  0.00    +0.000 C 
ATOM      7  O   UNL     1       5.718   3.883  18.676  0.00  0.00    +0.000 OA
ATOM      8  C   UNL     1       5.786   4.626  17.521  0.00  0.00    +0.000 A 
ATOM      9  C   UNL     1       6.676   4.358  16.501  0.00  0.00    +0.000 A 
ATOM     10  C   UNL     1       6.591   5.126  15.335  0.00  0.00    +0.000 A 
ATOM     11  C   UNL     1       7.481   4.831  14.164  0.00  0.00    +0.000 C 
ATOM     12  C   UNL     1       5.647   6.170  15.256  0.00  0.00    +0.000 A 
ATOM     13  C   UNL     1       4.778   6.430  16.318  0.00  0.00    +0.000 A 
ATOM     14  C   UNL     1       4.829   5.632  17.443  0.00  0.00    +0.000 A 
ATOM     15  C   UNL     1       4.080   5.661  18.734  0.00  0.00    +0.000 C 
ENDROOT
BRANCH   1  16
ATOM     16  C   UNL     1       2.016   6.412  20.132  0.00  0.00    +0.000 C 
ATOM     17  C   UNL     1       1.731   5.524  21.106  0.00  0.00    +0.000 C 
BRANCH  16  18
ATOM     18  C   UNL     1       1.811   7.912  20.341  0.00  0.00    +0.000 C 
BRANCH  18  19
ATOM     19  C   UNL     1       0.692   8.362  21.291  0.00  0.00    +0.000 C 
BRANCH  19  20
ATOM     20  C   UNL     1      -0.190   9.511  20.758  0.00  0.00    +0.000 C 
BRANCH  20  22
ATOM     21  C   UNL     1      -0.035  11.895  21.456  0.00  0.00    +0.000 C 
ATOM     22  C   UNL     1      -0.347  10.626  21.772  0.00  0.00    +0.000 C 
ATOM     23  C   UNL     1      -0.834  10.273  23.154  0.00  0.00    +0.000 C 
ENDBRANCH  20  22
BRANCH  20  24
ATOM     24  O   UNL     1       0.292  10.094  19.558  0.00  0.00    +0.000 OA
ATOM     25  H   UNL     1      -0.040   9.576  18.810  0.00  0.00    +0.000 HD
ENDBRANCH  20  24
ENDBRANCH  19  20
ENDBRANCH  18  19
ENDBRANCH  16  18
ENDBRANCH   1  16
BRANCH   4  26
ATOM     26  O   UNL     1       3.460   2.040  19.827  0.00  0.00    +0.000 OA
ATOM     27  H   UNL     1       3.835   2.417  20.642  0.00  0.00    +0.000 HD
ENDBRANCH   4  26
BRANCH  13  28
ATOM     28  O   UNL     1       3.882   7.452  16.251  0.00  0.00    +0.000 OA
ATOM     29  H   UNL     1       3.068   7.128  15.834  0.00  0.00    +0.000 HD
ENDBRANCH  13  28
TORSDOF 8
ENDMDL
MODEL 7
REMARK VINA RESULT:      -6.8      1.278      1.447
REMARK  Name = 
REMARK  11 active torsions:
REMARK  status: ('A' for Active; 'I' for Inactive)
REMARK    1  A    between atoms: C_2  and  C_3
REMARK    2  A    between atoms: C_2  and  C_4
REMARK    3  A    between atoms: C_4  and  O_5
REMARK    4  A    between atoms: C_4  and  C_6
REMARK    5  A    between atoms: C_6  and  C_7
REMARK    6  A    between atoms: C_7  and  C_8
REMARK    7  A    between atoms: C_8  and  C_10
REMARK    8  A    between atoms: C_13  and  C_14
REMARK    9  A    between atoms: C_13  and  O_15
REMARK   10  A    between atoms: C_20  and  C_21
REMARK   11  A    between atoms: C_23  and  O_24
REMARK                            x       y       z     vdW  Elec       q    Type
REMARK                         _______ _______ _______ _____ _____    ______ ____
ROOT
ATOM      1  C   UNL     1       2.574   6.086  18.696  0.00  0.00    +0.000 C 
ATOM      2  C   UNL     1       1.755   4.933  18.087  0.00  0.00    +0.000 C 
ATOM      3  C   UNL     1       1.927   3.655  18.900  0.00  0.00    +0.000 C 
ATOM      4  C   UNL     1       3.380   3.161  18.895  0.00  0.00    +0.000 C 
ATOM      5  C   UNL     1       3.670   2.428  17.576  0.00  0.00    +0.000 C 
ATOM      6  C   UNL     1       4.403   4.302  19.238  0.00  0.00    +0.000 C 
ATOM      7  O   UNL     1       5.731   3.968  18.741  0.00  0.00    +0.000 OA
ATOM      8  C   UNL     1       5.811   4.678  17.567  0.00  0.00    +0.000 A 
ATOM      9  C   UNL     1       6.722   4.392  16.570  0.00  0.00    +0.000 A 
ATOM     10  C   UNL     1       6.649   5.124  15.382  0.00  0.00    +0.000 A 
ATOM     11  C   UNL     1       7.562   4.806  14.235  0.00  0.00    +0.000 C 
ATOM     12  C   UNL     1       5.694   6.155  15.257  0.00  0.00    +0.000 A 
ATOM     13  C   UNL     1       4.803   6.435  16.295  0.00  0.00    +0.000 A 
ATOM     14  C   UNL     1       4.844   5.670  17.444  0.00  0.00    +0.000 A 
ATOM     15  C   UNL     1       4.072   5.727  18.720  0.00  0.00    +0.000 C 
ENDROOT
BRANCH   1  16
ATOM     16  C   UNL     1       1.976   6.493  20.060  0.00  0.00    +0.000 C 
ATOM     17  C   UNL     1       1.679   5.630  21.052  0.00  0.00    +0.000 C 
BRANCH  16  18
ATOM     18  C   UNL     1       1.757   7.997  20.224  0.00  0.00    +0.000 C 
BRANCH  18  19
ATOM     19  C   UNL     1       1.667   8.856  18.955  0.00  0.00    +0.000 C 
BRANCH  19  20
ATOM     20  C   UNL     1       0.525   9.893  18.951  0.00  0.00    +0.000 C 
BRANCH  20  22
ATOM     21  C   UNL     1       1.680  12.094  18.829  0.00  0.00    +0.000 C 
ATOM     22  C   UNL     1       0.956  11.218  19.546  0.00  0.00    +0.000 C 
ATOM     23  C   UNL     1       0.579  11.517  20.974  0.00  0.00    +0.000 C 
ENDBRANCH  20  22
BRANCH  20  24
ATOM     24  O   UNL     1      -0.003  10.159  17.662  0.00  0.00    +0.000 OA
ATOM     25  H   UNL     1      -0.191  11.107  17.596  0.00  0.00    +0.000 HD
ENDBRANCH  20  24
ENDBRANCH  19  20
ENDBRANCH  18  19
ENDBRANCH  16  18
ENDBRANCH   1  16
BRANCH   4  26
ATOM     26  O   UNL     1       3.475   2.132  19.906  0.00  0.00    +0.000 OA
ATOM     27  H   UNL     1       4.373   1.759  19.875  0.00  0.00    +0.000 HD
ENDBRANCH   4  26
BRANCH  13  28
ATOM     28  O   UNL     1       3.898   7.444  16.183  0.00  0.00    +0.000 OA
ATOM     29  H   UNL     1       4.337   8.216  15.794  0.00  0.00    +0.000 HD
ENDBRANCH  13  28
TORSDOF 8
ENDMDL
MODEL 8
REMARK VINA RESULT:      -6.8      0.787      1.079
REMARK  Name = 
REMARK  11 active torsions:
REMARK  status: ('A' for Active; 'I' for Inactive)
REMARK    1  A    between atoms: C_2  and  C_3
REMARK    2  A    between atoms: C_2  and  C_4
REMARK    3  A    between atoms: C_4  and  O_5
REMARK    4  A    between atoms: C_4  and  C_6
REMARK    5  A    between atoms: C_6  and  C_7
REMARK    6  A    between atoms: C_7  and  C_8
REMARK    7  A    between atoms: C_8  and  C_10
REMARK    8  A    between atoms: C_13  and  C_14
REMARK    9  A    between atoms: C_13  and  O_15
REMARK   10  A    between atoms: C_20  and  C_21
REMARK   11  A    between atoms: C_23  and  O_24
REMARK                            x       y       z     vdW  Elec       q    Type
REMARK                         _______ _______ _______ _____ _____    ______ ____
ROOT
ATOM      1  C   UNL     1       2.535   5.995  18.817  0.00  0.00    +0.000 C 
ATOM      2  C   UNL     1       1.696   4.889  18.152  0.00  0.00    +0.000 C 
ATOM      3  C   UNL     1       1.864   3.563  18.885  0.00  0.00    +0.000 C 
ATOM      4  C   UNL     1       3.312   3.055  18.832  0.00  0.00    +0.000 C 
ATOM      5  C   UNL     1       3.578   2.399  17.468  0.00  0.00    +0.000 C 
ATOM      6  C   UNL     1       4.351   4.163  19.229  0.00  0.00    +0.000 C 
ATOM      7  O   UNL     1       5.669   3.846  18.696  0.00  0.00    +0.000 OA
ATOM      8  C   UNL     1       5.742   4.625  17.565  0.00  0.00    +0.000 A 
ATOM      9  C   UNL     1       6.638   4.388  16.541  0.00  0.00    +0.000 A 
ATOM     10  C   UNL     1       6.558   5.191  15.399  0.00  0.00    +0.000 A 
ATOM     11  C   UNL     1       7.453   4.933  14.224  0.00  0.00    +0.000 C 
ATOM     12  C   UNL     1       5.613   6.237  15.348  0.00  0.00    +0.000 A 
ATOM     13  C   UNL     1       4.738   6.463  16.413  0.00  0.00    +0.000 A 
ATOM     14  C   UNL     1       4.785   5.631  17.513  0.00  0.00    +0.000 A 
ATOM     15  C   UNL     1       4.029   5.620  18.801  0.00  0.00    +0.000 C 
ENDROOT
BRANCH   1  16
ATOM     16  C   UNL     1       1.958   6.326  20.211  0.00  0.00    +0.000 C 
ATOM     17  C   UNL     1       1.476   5.411  21.075  0.00  0.00    +0.000 C 
BRANCH  16  18
ATOM     18  C   UNL     1       1.993   7.812  20.566  0.00  0.00    +0.000 C 
BRANCH  18  19
ATOM     19  C   UNL     1       0.655   8.528  20.803  0.00  0.00    +0.000 C 
BRANCH  19  20
ATOM     20  C   UNL     1       0.573   9.958  20.230  0.00  0.00    +0.000 C 
BRANCH  20  22
ATOM     21  C   UNL     1      -0.887  10.249  18.235  0.00  0.00    +0.000 C 
ATOM     22  C   UNL     1       0.327   9.961  18.734  0.00  0.00    +0.000 C 
ATOM     23  C   UNL     1       1.470   9.601  17.820  0.00  0.00    +0.000 C 
ENDBRANCH  20  22
BRANCH  20  24
ATOM     24  O   UNL     1      -0.434  10.758  20.826  0.00  0.00    +0.000 OA
ATOM     25  H   UNL     1      -1.290  10.324  20.695  0.00  0.00    +0.000 HD
ENDBRANCH  20  24
ENDBRANCH  19  20
ENDBRANCH  18  19
ENDBRANCH  16  18
ENDBRANCH   1  16
BRANCH   4  26
ATOM     26  O   UNL     1       3.408   1.967  19.779  0.00  0.00    +0.000 OA
ATOM     27  H   UNL     1       2.542   1.524  19.819  0.00  0.00    +0.000 HD
ENDBRANCH   4  26
BRANCH  13  28
ATOM     28  O   UNL     1       3.842   7.486  16.372  0.00  0.00    +0.000 OA
ATOM     29  H   UNL     1       3.749   7.785  15.454  0.00  0.00    +0.000 HD
ENDBRANCH  13  28
TORSDOF 8
ENDMDL
MODEL 9
REMARK VINA RESULT:      -6.6      6.543      9.062
REMARK  Name = 
REMARK  11 active torsions:
REMARK  status: ('A' for Active; 'I' for Inactive)
REMARK    1  A    between atoms: C_2  and  C_3
REMARK    2  A    between atoms: C_2  and  C_4
REMARK    3  A    between atoms: C_4  and  O_5
REMARK    4  A    between atoms: C_4  and  C_6
REMARK    5  A    between atoms: C_6  and  C_7
REMARK    6  A    between atoms: C_7  and  C_8
REMARK    7  A    between atoms: C_8  and  C_10
REMARK    8  A    between atoms: C_13  and  C_14
REMARK    9  A    between atoms: C_13  and  O_15
REMARK   10  A    between atoms: C_20  and  C_21
REMARK   11  A    between atoms: C_23  and  O_24
REMARK                            x       y       z     vdW  Elec       q    Type
REMARK                         _______ _______ _______ _____ _____    ______ ____
ROOT
ATOM      1  C   UNL     1      -1.387  12.939  21.643  0.00  0.00    +0.000 C 
ATOM      2  C   UNL     1      -1.756  11.720  22.508  0.00  0.00    +0.000 C 
ATOM      3  C   UNL     1      -0.511  10.928  22.891  0.00  0.00    +0.000 C 
ATOM      4  C   UNL     1       0.203  10.347  21.662  0.00  0.00    +0.000 C 
ATOM      5  C   UNL     1      -0.528   9.080  21.192  0.00  0.00    +0.000 C 
ATOM      6  C   UNL     1       0.425  11.419  20.536  0.00  0.00    +0.000 C 
ATOM      7  O   UNL     1       0.614  10.774  19.243  0.00  0.00    +0.000 OA
ATOM      8  C   UNL     1      -0.628  10.876  18.661  0.00  0.00    +0.000 A 
ATOM      9  C   UNL     1      -1.032  10.091  17.600  0.00  0.00    +0.000 A 
ATOM     10  C   UNL     1      -2.349  10.221  17.150  0.00  0.00    +0.000 A 
ATOM     11  C   UNL     1      -2.868   9.340  16.052  0.00  0.00    +0.000 C 
ATOM     12  C   UNL     1      -3.199  11.173  17.750  0.00  0.00    +0.000 A 
ATOM     13  C   UNL     1      -2.749  11.970  18.805  0.00  0.00    +0.000 A 
ATOM     14  C   UNL     1      -1.465  11.796  19.281  0.00  0.00    +0.000 A 
ATOM     15  C   UNL     1      -0.684  12.488  20.349  0.00  0.00    +0.000 C 
ENDROOT
BRANCH   1  16
ATOM     16  C   UNL     1      -0.603  13.966  22.490  0.00  0.00    +0.000 C 
ATOM     17  C   UNL     1       0.594  14.483  22.149  0.00  0.00    +0.000 C 
BRANCH  16  18
ATOM     18  C   UNL     1      -1.313  14.389  23.776  0.00  0.00    +0.000 C 
BRANCH  18  19
ATOM     19  C   UNL     1      -2.586  15.239  23.652  0.00  0.00    +0.000 C 
BRANCH  19  20
ATOM     20  C   UNL     1      -3.768  14.768  24.524  0.00  0.00    +0.000 C 
BRANCH  20  22
ATOM     21  C   UNL     1      -4.998  13.639  22.678  0.00  0.00    +0.000 C 
ATOM     22  C   UNL     1      -4.486  13.578  23.919  0.00  0.00    +0.000 C 
ATOM     23  C   UNL     1      -4.639  12.335  24.756  0.00  0.00    +0.000 C 
ENDBRANCH  20  22
BRANCH  20  24
ATOM     24  O   UNL     1      -3.400  14.414  25.847  0.00  0.00    +0.000 OA
ATOM     25  H   UNL     1      -2.629  14.941  26.103  0.00  0.00    +0.000 HD
ENDBRANCH  20  24
ENDBRANCH  19  20
ENDBRANCH  18  19
ENDBRANCH  16  18
ENDBRANCH   1  16
BRANCH   4  26
ATOM     26  O   UNL     1       1.491   9.873  22.113  0.00  0.00    +0.000 OA
ATOM     27  H   UNL     1       2.144  10.578  21.961  0.00  0.00    +0.000 HD
ENDBRANCH   4  26
BRANCH  13  28
ATOM     28  O   UNL     1      -3.562  12.904  19.368  0.00  0.00    +0.000 OA
ATOM     29  H   UNL     1      -4.435  12.853  18.948  0.00  0.00    +0.000 HD
ENDBRANCH  13  28
TORSDOF 8
ENDMDL
