MODEL 1
REMARK VINA RESULT:      -7.5      0.000      0.000
REMARK  Name = 
REMARK  10 active torsions:
REMARK  status: ('A' for Active; 'I' for Inactive)
REMARK    1  A    between atoms: C_1  and  C_2
REMARK    2  A    between atoms: C_5  and  C_6
REMARK    3  A    between atoms: N_8  and  C_9
REMARK    4  A    between atoms: C_9  and  C_10
REMARK    5  A    between atoms: C_10  and  C_11
REMARK    6  A    between atoms: C_11  and  C_12
REMARK    7  A    between atoms: C_12  and  C_13
REMARK    8  A    between atoms: C_13  and  C_14
REMARK    9  A    between atoms: N_16  and  C_17
REMARK   10  A    between atoms: C_23  and  O_24
REMARK                            x       y       z     vdW  Elec       q    Type
REMARK                         _______ _______ _______ _____ _____    ______ ____
ROOT
ATOM      1  C   UNL     1       2.584   2.375  21.080  0.00  0.00    +0.000 C 
ENDROOT
BRANCH   1   2
ATOM      2  C   UNL     1       3.576   2.425  19.926  0.00  0.00    +0.000 C 
BRANCH   2   3
ATOM      3  C   UNL     1       2.970   1.837  18.641  0.00  0.00    +0.000 C 
BRANCH   3   4
ATOM      4  C   UNL     1       3.336   2.634  17.384  0.00  0.00    +0.000 C 
BRANCH   4   7
ATOM      5  C   UNL     1       5.268   4.060  16.842  0.00  0.00    +0.000 C 
ATOM      6  O   UNL     1       5.511   3.451  15.807  0.00  0.00    +0.000 OA
ATOM      7  N   UNL     1       4.218   3.744  17.675  0.00  0.00    +0.000 N 
ATOM      8  H   UNL     1       3.966   4.366  18.430  0.00  0.00    +0.000 HD
BRANCH   5  13
ATOM      9  C   UNL     1       8.587   8.502  18.535  0.00  0.00    +0.000 C 
ATOM     10  C   UNL     1       7.722   7.359  18.087  0.00  0.00    +0.000 A 
ATOM     11  C   UNL     1       7.847   6.098  18.677  0.00  0.00    +0.000 A 
ATOM     12  C   UNL     1       7.039   5.040  18.258  0.00  0.00    +0.000 A 
ATOM     13  C   UNL     1       6.104   5.227  17.235  0.00  0.00    +0.000 A 
ATOM     14  C   UNL     1       5.963   6.490  16.647  0.00  0.00    +0.000 A 
ATOM     15  C   UNL     1       6.773   7.550  17.073  0.00  0.00    +0.000 A 
ENDBRANCH   5  13
ENDBRANCH   4   7
ENDBRANCH   3   4
ENDBRANCH   2   3
ENDBRANCH   1   2
BRANCH   1  16
ATOM     16  C   UNL     1       2.341   3.706  21.795  0.00  0.00    +0.000 C 
BRANCH  16  17
ATOM     17  C   UNL     1       1.860   4.710  20.755  0.00  0.00    +0.000 C 
ATOM     18  O   UNL     1       0.827   4.508  20.123  0.00  0.00    +0.000 OA
ATOM     19  N   UNL     1       2.676   5.811  20.602  0.00  0.00    +0.000 N 
ATOM     20  H   UNL     1       3.608   5.804  21.004  0.00  0.00    +0.000 HD
BRANCH  19  21
ATOM     21  C   UNL     1       2.398   6.916  19.761  0.00  0.00    +0.000 A 
ATOM     22  C   UNL     1       2.738   6.944  18.403  0.00  0.00    +0.000 A 
ATOM     23  C   UNL     1       2.461   8.063  17.619  0.00  0.00    +0.000 A 
ATOM     24  C   UNL     1       1.832   9.157  18.192  0.00  0.00    +0.000 A 
ATOM     25  F   UNL     1       1.569  10.231  17.437  0.00  0.00    +0.000 F 
ATOM     26  C   UNL     1       1.462   9.153  19.533  0.00  0.00    +0.000 A 
ATOM     27  C   UNL     1       1.738   8.027  20.309  0.00  0.00    +0.000 A 
BRANCH  27  28
ATOM     28  O   UNL     1       1.378   7.991  21.633  0.00  0.00    +0.000 OA
ATOM     29  H   UNL     1       0.962   7.129  21.813  0.00  0.00    +0.000 HD
ENDBRANCH  27  28
ENDBRANCH  19  21
ENDBRANCH  16  17
ENDBRANCH   1  16
TORSDOF 9
ENDMDL
MODEL 2
REMARK VINA RESULT:      -7.3      2.629      6.298
REMARK  Name = 
REMARK  10 active torsions:
REMARK  status: ('A' for Active; 'I' for Inactive)
REMARK    1  A    between atoms: C_1  and  C_2
REMARK    2  A    between atoms: C_5  and  C_6
REMARK    3  A    between atoms: N_8  and  C_9
REMARK    4  A    between atoms: C_9  and  C_10
REMARK    5  A    between atoms: C_10  and  C_11
REMARK    6  A    between atoms: C_11  and  C_12
REMARK    7  A    between atoms: C_12  and  C_13
REMARK    8  A    between atoms: C_13  and  C_14
REMARK    9  A    between atoms: N_16  and  C_17
REMARK   10  A    between atoms: C_23  and  O_24
REMARK                            x       y       z     vdW  Elec       q    Type
REMARK                         _______ _______ _______ _____ _____    ______ ____
ROOT
ATOM      1  C   UNL     1       1.856   2.028  19.503  0.00  0.00    +0.000 C 
ENDROOT
BRANCH   1   2
ATOM      2  C   UNL     1       1.015   3.295  19.582  0.00  0.00    +0.000 C 
BRANCH   2   3
ATOM      3  C   UNL     1       1.396   4.145  20.805  0.00  0.00    +0.000 C 
BRANCH   3   4
ATOM      4  C   UNL     1       2.135   5.435  20.433  0.00  0.00    +0.000 C 
BRANCH   4   7
ATOM      5  C   UNL     1       1.592   7.833  20.335  0.00  0.00    +0.000 C 
ATOM      6  O   UNL     1       2.212   7.999  19.291  0.00  0.00    +0.000 OA
ATOM      7  N   UNL     1       1.485   6.614  20.965  0.00  0.00    +0.000 N 
ATOM      8  H   UNL     1       0.840   6.495  21.733  0.00  0.00    +0.000 HD
BRANCH   5  13
ATOM      9  C   UNL     1      -1.258  12.156  22.944  0.00  0.00    +0.000 C 
ATOM     10  C   UNL     1      -0.517  11.045  22.258  0.00  0.00    +0.000 A 
ATOM     11  C   UNL     1      -0.253   9.846  22.927  0.00  0.00    +0.000 A 
ATOM     12  C   UNL     1       0.433   8.816  22.283  0.00  0.00    +0.000 A 
ATOM     13  C   UNL     1       0.875   8.975  20.965  0.00  0.00    +0.000 A 
ATOM     14  C   UNL     1       0.602  10.167  20.283  0.00  0.00    +0.000 A 
ATOM     15  C   UNL     1      -0.089  11.197  20.931  0.00  0.00    +0.000 A 
ENDBRANCH   5  13
ENDBRANCH   4   7
ENDBRANCH   3   4
ENDBRANCH   2   3
ENDBRANCH   1   2
BRANCH   1  16
ATOM     16  C   UNL     1       2.793   1.937  18.296  0.00  0.00    +0.000 C 
BRANCH  16  17
ATOM     17  C   UNL     1       3.914   2.948  18.501  0.00  0.00    +0.000 C 
ATOM     18  O   UNL     1       4.545   2.975  19.553  0.00  0.00    +0.000 OA
ATOM     19  N   UNL     1       4.124   3.793  17.432  0.00  0.00    +0.000 N 
ATOM     20  H   UNL     1       3.433   3.846  16.690  0.00  0.00    +0.000 HD
BRANCH  19  21
ATOM     21  C   UNL     1       5.159   4.757  17.352  0.00  0.00    +0.000 A 
ATOM     22  C   UNL     1       6.517   4.416  17.321  0.00  0.00    +0.000 A 
ATOM     23  C   UNL     1       7.500   5.403  17.262  0.00  0.00    +0.000 A 
ATOM     24  C   UNL     1       7.125   6.737  17.224  0.00  0.00    +0.000 A 
ATOM     25  F   UNL     1       8.072   7.683  17.169  0.00  0.00    +0.000 F 
ATOM     26  C   UNL     1       5.784   7.108  17.232  0.00  0.00    +0.000 A 
ATOM     27  C   UNL     1       4.807   6.114  17.286  0.00  0.00    +0.000 A 
BRANCH  27  28
ATOM     28  O   UNL     1       3.476   6.449  17.288  0.00  0.00    +0.000 OA
ATOM     29  H   UNL     1       3.074   6.099  18.103  0.00  0.00    +0.000 HD
ENDBRANCH  27  28
ENDBRANCH  19  21
ENDBRANCH  16  17
ENDBRANCH   1  16
TORSDOF 9
ENDMDL
MODEL 3
REMARK VINA RESULT:      -7.3      2.614      6.404
REMARK  Name = 
REMARK  10 active torsions:
REMARK  status: ('A' for Active; 'I' for Inactive)
REMARK    1  A    between atoms: C_1  and  C_2
REMARK    2  A    between atoms: C_5  and  C_6
REMARK    3  A    between atoms: N_8  and  C_9
REMARK    4  A    between atoms: C_9  and  C_10
REMARK    5  A    between atoms: C_10  and  C_11
REMARK    6  A    between atoms: C_11  and  C_12
REMARK    7  A    between atoms: C_12  and  C_13
REMARK    8  A    between atoms: C_13  and  C_14
REMARK    9  A    between atoms: N_16  and  C_17
REMARK   10  A    between atoms: C_23  and  O_24
REMARK                            x       y       z     vdW  Elec       q    Type
REMARK                         _______ _______ _______ _____ _____    ______ ____
ROOT
ATOM      1  C   UNL     1       1.406   2.205  18.973  0.00  0.00    +0.000 C 
ENDROOT
BRANCH   1   2
ATOM      2  C   UNL     1       1.841   2.877  20.268  0.00  0.00    +0.000 C 
BRANCH   2   3
ATOM      3  C   UNL     1       1.148   4.238  20.452  0.00  0.00    +0.000 C 
BRANCH   3   4
ATOM      4  C   UNL     1       2.135   5.390  20.667  0.00  0.00    +0.000 C 
BRANCH   4   7
ATOM      5  C   UNL     1       1.572   7.779  20.478  0.00  0.00    +0.000 C 
ATOM      6  O   UNL     1       2.173   7.904  19.417  0.00  0.00    +0.000 OA
ATOM      7  N   UNL     1       1.485   6.586  21.160  0.00  0.00    +0.000 N 
ATOM      8  H   UNL     1       0.854   6.496  21.944  0.00  0.00    +0.000 HD
BRANCH   5  13
ATOM      9  C   UNL     1      -1.285  12.182  22.938  0.00  0.00    +0.000 C 
ATOM     10  C   UNL     1      -0.542  11.050  22.291  0.00  0.00    +0.000 A 
ATOM     11  C   UNL     1      -0.374   9.833  22.960  0.00  0.00    +0.000 A 
ATOM     12  C   UNL     1       0.315   8.784  22.351  0.00  0.00    +0.000 A 
ATOM     13  C   UNL     1       0.857   8.941  21.071  0.00  0.00    +0.000 A 
ATOM     14  C   UNL     1       0.682  10.150  20.389  0.00  0.00    +0.000 A 
ATOM     15  C   UNL     1      -0.013  11.201  21.001  0.00  0.00    +0.000 A 
ENDBRANCH   5  13
ENDBRANCH   4   7
ENDBRANCH   3   4
ENDBRANCH   2   3
ENDBRANCH   1   2
BRANCH   1  16
ATOM     16  C   UNL     1       2.537   1.863  17.999  0.00  0.00    +0.000 C 
BRANCH  16  17
ATOM     17  C   UNL     1       3.230   3.165  17.618  0.00  0.00    +0.000 C 
ATOM     18  O   UNL     1       2.576   4.135  17.244  0.00  0.00    +0.000 OA
ATOM     19  N   UNL     1       4.604   3.134  17.725  0.00  0.00    +0.000 N 
ATOM     20  H   UNL     1       5.079   2.244  17.837  0.00  0.00    +0.000 HD
BRANCH  19  21
ATOM     21  C   UNL     1       5.460   4.242  17.507  0.00  0.00    +0.000 A 
ATOM     22  C   UNL     1       5.765   4.729  16.230  0.00  0.00    +0.000 A 
ATOM     23  C   UNL     1       6.628   5.811  16.065  0.00  0.00    +0.000 A 
ATOM     24  C   UNL     1       7.183   6.416  17.183  0.00  0.00    +0.000 A 
ATOM     25  F   UNL     1       8.014   7.454  17.021  0.00  0.00    +0.000 F 
ATOM     26  C   UNL     1       6.884   5.970  18.465  0.00  0.00    +0.000 A 
ATOM     27  C   UNL     1       6.015   4.889  18.621  0.00  0.00    +0.000 A 
BRANCH  27  28
ATOM     28  O   UNL     1       5.695   4.432  19.875  0.00  0.00    +0.000 OA
ATOM     29  H   UNL     1       6.502   4.446  20.420  0.00  0.00    +0.000 HD
ENDBRANCH  27  28
ENDBRANCH  19  21
ENDBRANCH  16  17
ENDBRANCH   1  16
TORSDOF 9
ENDMDL
MODEL 4
REMARK VINA RESULT:      -7.1      4.523      7.218
REMARK  Name = 
REMARK  10 active torsions:
REMARK  status: ('A' for Active; 'I' for Inactive)
REMARK    1  A    between atoms: C_1  and  C_2
REMARK    2  A    between atoms: C_5  and  C_6
REMARK    3  A    between atoms: N_8  and  C_9
REMARK    4  A    between atoms: C_9  and  C_10
REMARK    5  A    between atoms: C_10  and  C_11
REMARK    6  A    between atoms: C_11  and  C_12
REMARK    7  A    between atoms: C_12  and  C_13
REMARK    8  A    between atoms: C_13  and  C_14
REMARK    9  A    between atoms: N_16  and  C_17
REMARK   10  A    between atoms: C_23  and  O_24
REMARK                            x       y       z     vdW  Elec       q    Type
REMARK                         _______ _______ _______ _____ _____    ______ ____
ROOT
ATOM      1  C   UNL     1       7.696   6.194  18.535  0.00  0.00    +0.000 C 
ENDROOT
BRANCH   1   2
ATOM      2  C   UNL     1       7.093   7.278  17.652  0.00  0.00    +0.000 C 
BRANCH   2   3
ATOM      3  C   UNL     1       8.110   8.395  17.363  0.00  0.00    +0.000 C 
BRANCH   3   4
ATOM      4  C   UNL     1       8.517   9.177  18.617  0.00  0.00    +0.000 C 
BRANCH   4   7
ATOM      5  C   UNL     1       9.735  11.210  19.278  0.00  0.00    +0.000 C 
ATOM      6  O   UNL     1       9.748  10.897  20.463  0.00  0.00    +0.000 OA
ATOM      7  N   UNL     1       9.168  10.429  18.297  0.00  0.00    +0.000 N 
ATOM      8  H   UNL     1       9.317  10.652  17.323  0.00  0.00    +0.000 HD
BRANCH   5  13
ATOM      9  C   UNL     1      12.315  16.037  17.367  0.00  0.00    +0.000 C 
ATOM     10  C   UNL     1      11.645  14.793  17.874  0.00  0.00    +0.000 A 
ATOM     11  C   UNL     1      11.342  13.742  17.003  0.00  0.00    +0.000 A 
ATOM     12  C   UNL     1      10.722  12.587  17.481  0.00  0.00    +0.000 A 
ATOM     13  C   UNL     1      10.386  12.472  18.834  0.00  0.00    +0.000 A 
ATOM     14  C   UNL     1      10.698  13.514  19.715  0.00  0.00    +0.000 A 
ATOM     15  C   UNL     1      11.323  14.671  19.233  0.00  0.00    +0.000 A 
ENDBRANCH   5  13
ENDBRANCH   4   7
ENDBRANCH   3   4
ENDBRANCH   2   3
ENDBRANCH   1   2
BRANCH   1  16
ATOM     16  C   UNL     1       7.619   4.772  17.973  0.00  0.00    +0.000 C 
BRANCH  16  17
ATOM     17  C   UNL     1       6.151   4.451  17.721  0.00  0.00    +0.000 C 
ATOM     18  O   UNL     1       5.648   4.653  16.620  0.00  0.00    +0.000 OA
ATOM     19  N   UNL     1       5.481   3.945  18.815  0.00  0.00    +0.000 N 
ATOM     20  H   UNL     1       5.905   4.004  19.735  0.00  0.00    +0.000 HD
BRANCH  19  21
ATOM     21  C   UNL     1       4.137   3.495  18.806  0.00  0.00    +0.000 A 
ATOM     22  C   UNL     1       3.731   2.320  18.160  0.00  0.00    +0.000 A 
ATOM     23  C   UNL     1       2.393   1.929  18.162  0.00  0.00    +0.000 A 
ATOM     24  C   UNL     1       1.456   2.711  18.821  0.00  0.00    +0.000 A 
ATOM     25  F   UNL     1       0.171   2.334  18.820  0.00  0.00    +0.000 F 
ATOM     26  C   UNL     1       1.830   3.872  19.489  0.00  0.00    +0.000 A 
ATOM     27  C   UNL     1       3.173   4.254  19.486  0.00  0.00    +0.000 A 
BRANCH  27  28
ATOM     28  O   UNL     1       3.572   5.390  20.143  0.00  0.00    +0.000 OA
ATOM     29  H   UNL     1       4.542   5.369  20.227  0.00  0.00    +0.000 HD
ENDBRANCH  27  28
ENDBRANCH  19  21
ENDBRANCH  16  17
ENDBRANCH   1  16
TORSDOF 9
ENDMDL
MODEL 5
REMARK VINA RESULT:      -7.0      4.499      7.013
REMARK  Name = 
REMARK  10 active torsions:
REMARK  status: ('A' for Active; 'I' for Inactive)
REMARK    1  A    between atoms: C_1  and  C_2
REMARK    2  A    between atoms: C_5  and  C_6
REMARK    3  A    between atoms: N_8  and  C_9
REMARK    4  A    between atoms: C_9  and  C_10
REMARK    5  A    between atoms: C_10  and  C_11
REMARK    6  A    between atoms: C_11  and  C_12
REMARK    7  A    between atoms: C_12  and  C_13
REMARK    8  A    between atoms: C_13  and  C_14
REMARK    9  A    between atoms: N_16  and  C_17
REMARK   10  A    between atoms: C_23  and  O_24
REMARK                            x       y       z     vdW  Elec       q    Type
REMARK                         _______ _______ _______ _____ _____    ______ ____
ROOT
ATOM      1  C   UNL     1       6.648   5.957  16.727  0.00  0.00    +0.000 C 
ENDROOT
BRANCH   1   2
ATOM      2  C   UNL     1       7.411   6.643  17.851  0.00  0.00    +0.000 C 
BRANCH   2   3
ATOM      3  C   UNL     1       7.840   8.065  17.451  0.00  0.00    +0.000 C 
BRANCH   3   4
ATOM      4  C   UNL     1       8.625   8.788  18.551  0.00  0.00    +0.000 C 
BRANCH   4   7
ATOM      5  C   UNL     1       9.294  11.101  19.058  0.00  0.00    +0.000 C 
ATOM      6  O   UNL     1       9.165  10.943  20.267  0.00  0.00    +0.000 OA
ATOM      7  N   UNL     1       9.066  10.103  18.138  0.00  0.00    +0.000 N 
ATOM      8  H   UNL     1       9.332  10.234  17.173  0.00  0.00    +0.000 HD
BRANCH   5  13
ATOM      9  C   UNL     1      11.241  16.108  16.878  0.00  0.00    +0.000 C 
ATOM     10  C   UNL     1      10.727  14.818  17.450  0.00  0.00    +0.000 A 
ATOM     11  C   UNL     1      11.226  13.591  17.000  0.00  0.00    +0.000 A 
ATOM     12  C   UNL     1      10.746  12.396  17.537  0.00  0.00    +0.000 A 
ATOM     13  C   UNL     1       9.753  12.411  18.522  0.00  0.00    +0.000 A 
ATOM     14  C   UNL     1       9.259  13.635  18.988  0.00  0.00    +0.000 A 
ATOM     15  C   UNL     1       9.744  14.833  18.449  0.00  0.00    +0.000 A 
ENDBRANCH   5  13
ENDBRANCH   4   7
ENDBRANCH   3   4
ENDBRANCH   2   3
ENDBRANCH   1   2
BRANCH   1  16
ATOM     16  C   UNL     1       5.307   6.595  16.358  0.00  0.00    +0.000 C 
BRANCH  16  17
ATOM     17  C   UNL     1       4.312   6.254  17.460  0.00  0.00    +0.000 C 
ATOM     18  O   UNL     1       3.555   7.111  17.906  0.00  0.00    +0.000 OA
ATOM     19  N   UNL     1       4.360   4.943  17.888  0.00  0.00    +0.000 N 
ATOM     20  H   UNL     1       5.146   4.357  17.623  0.00  0.00    +0.000 HD
BRANCH  19  21
ATOM     21  C   UNL     1       3.482   4.369  18.840  0.00  0.00    +0.000 A 
ATOM     22  C   UNL     1       2.162   4.802  19.018  0.00  0.00    +0.000 A 
ATOM     23  C   UNL     1       1.342   4.218  19.982  0.00  0.00    +0.000 A 
ATOM     24  C   UNL     1       1.839   3.188  20.766  0.00  0.00    +0.000 A 
ATOM     25  F   UNL     1       1.049   2.629  21.692  0.00  0.00    +0.000 F 
ATOM     26  C   UNL     1       3.138   2.720  20.599  0.00  0.00    +0.000 A 
ATOM     27  C   UNL     1       3.951   3.307  19.628  0.00  0.00    +0.000 A 
BRANCH  27  28
ATOM     28  O   UNL     1       5.235   2.861  19.436  0.00  0.00    +0.000 OA
ATOM     29  H   UNL     1       5.315   2.548  18.518  0.00  0.00    +0.000 HD
ENDBRANCH  27  28
ENDBRANCH  19  21
ENDBRANCH  16  17
ENDBRANCH   1  16
TORSDOF 9
ENDMDL
MODEL 6
REMARK VINA RESULT:      -7.0      2.606      6.701
REMARK  Name = 
REMARK  10 active torsions:
REMARK  status: ('A' for Active; 'I' for Inactive)
REMARK    1  A    between atoms: C_1  and  C_2
REMARK    2  A    between atoms: C_5  and  C_6
REMARK    3  A    between atoms: N_8  and  C_9
REMARK    4  A    between atoms: C_9  and  C_10
REMARK    5  A    between atoms: C_10  and  C_11
REMARK    6  A    between atoms: C_11  and  C_12
REMARK    7  A    between atoms: C_12  and  C_13
REMARK    8  A    between atoms: C_13  and  C_14
REMARK    9  A    between atoms: N_16  and  C_17
REMARK   10  A    between atoms: C_23  and  O_24
REMARK                            x       y       z     vdW  Elec       q    Type
REMARK                         _______ _______ _______ _____ _____    ______ ____
ROOT
ATOM      1  C   UNL     1       1.203   2.478  18.529  0.00  0.00    +0.000 C 
ENDROOT
BRANCH   1   2
ATOM      2  C   UNL     1       1.269   3.990  18.692  0.00  0.00    +0.000 C 
BRANCH   2   3
ATOM      3  C   UNL     1       1.221   4.396  20.175  0.00  0.00    +0.000 C 
BRANCH   3   4
ATOM      4  C   UNL     1       2.181   5.541  20.515  0.00  0.00    +0.000 C 
BRANCH   4   7
ATOM      5  C   UNL     1       1.497   7.905  20.470  0.00  0.00    +0.000 C 
ATOM      6  O   UNL     1       2.043   8.111  19.393  0.00  0.00    +0.000 OA
ATOM      7  N   UNL     1       1.498   6.678  21.094  0.00  0.00    +0.000 N 
ATOM      8  H   UNL     1       0.908   6.518  21.899  0.00  0.00    +0.000 HD
BRANCH   5  13
ATOM      9  C   UNL     1      -1.341  12.298  22.971  0.00  0.00    +0.000 C 
ATOM     10  C   UNL     1      -0.609  11.152  22.334  0.00  0.00    +0.000 A 
ATOM     11  C   UNL     1      -0.149  11.246  21.017  0.00  0.00    +0.000 A 
ATOM     12  C   UNL     1       0.534  10.179  20.432  0.00  0.00    +0.000 A 
ATOM     13  C   UNL     1       0.755   9.000  21.151  0.00  0.00    +0.000 A 
ATOM     14  C   UNL     1       0.309   8.903  22.475  0.00  0.00    +0.000 A 
ATOM     15  C   UNL     1      -0.373   9.976  23.061  0.00  0.00    +0.000 A 
ENDBRANCH   5  13
ENDBRANCH   4   7
ENDBRANCH   3   4
ENDBRANCH   2   3
ENDBRANCH   1   2
BRANCH   1  16
ATOM     16  C   UNL     1       2.476   1.819  17.992  0.00  0.00    +0.000 C 
BRANCH  16  17
ATOM     17  C   UNL     1       3.629   2.789  18.215  0.00  0.00    +0.000 C 
ATOM     18  O   UNL     1       4.296   2.741  19.245  0.00  0.00    +0.000 OA
ATOM     19  N   UNL     1       3.827   3.689  17.189  0.00  0.00    +0.000 N 
ATOM     20  H   UNL     1       3.112   3.802  16.476  0.00  0.00    +0.000 HD
BRANCH  19  21
ATOM     21  C   UNL     1       4.883   4.630  17.128  0.00  0.00    +0.000 A 
ATOM     22  C   UNL     1       4.849   5.858  17.802  0.00  0.00    +0.000 A 
ATOM     23  C   UNL     1       5.906   6.761  17.695  0.00  0.00    +0.000 A 
ATOM     24  C   UNL     1       7.007   6.433  16.919  0.00  0.00    +0.000 A 
ATOM     25  F   UNL     1       8.020   7.303  16.817  0.00  0.00    +0.000 F 
ATOM     26  C   UNL     1       7.081   5.213  16.255  0.00  0.00    +0.000 A 
ATOM     27  C   UNL     1       6.021   4.313  16.371  0.00  0.00    +0.000 A 
BRANCH  27  28
ATOM     28  O   UNL     1       6.069   3.099  15.733  0.00  0.00    +0.000 OA
ATOM     29  H   UNL     1       6.997   2.807  15.701  0.00  0.00    +0.000 HD
ENDBRANCH  27  28
ENDBRANCH  19  21
ENDBRANCH  16  17
ENDBRANCH   1  16
TORSDOF 9
ENDMDL
MODEL 7
REMARK VINA RESULT:      -7.0      2.205      5.408
REMARK  Name = 
REMARK  10 active torsions:
REMARK  status: ('A' for Active; 'I' for Inactive)
REMARK    1  A    between atoms: C_1  and  C_2
REMARK    2  A    between atoms: C_5  and  C_6
REMARK    3  A    between atoms: N_8  and  C_9
REMARK    4  A    between atoms: C_9  and  C_10
REMARK    5  A    between atoms: C_10  and  C_11
REMARK    6  A    between atoms: C_11  and  C_12
REMARK    7  A    between atoms: C_12  and  C_13
REMARK    8  A    between atoms: C_13  and  C_14
REMARK    9  A    between atoms: N_16  and  C_17
REMARK   10  A    between atoms: C_23  and  O_24
REMARK                            x       y       z     vdW  Elec       q    Type
REMARK                         _______ _______ _______ _____ _____    ______ ____
ROOT
ATOM      1  C   UNL     1       0.817   2.471  18.733  0.00  0.00    +0.000 C 
ENDROOT
BRANCH   1   2
ATOM      2  C   UNL     1       1.004   2.467  20.243  0.00  0.00    +0.000 C 
BRANCH   2   3
ATOM      3  C   UNL     1       2.428   2.896  20.633  0.00  0.00    +0.000 C 
BRANCH   3   4
ATOM      4  C   UNL     1       2.453   4.020  21.675  0.00  0.00    +0.000 C 
BRANCH   4   7
ATOM      5  C   UNL     1       2.755   6.021  20.274  0.00  0.00    +0.000 C 
ATOM      6  O   UNL     1       3.863   5.667  19.890  0.00  0.00    +0.000 OA
ATOM      7  N   UNL     1       1.981   5.278  21.137  0.00  0.00    +0.000 N 
ATOM      8  H   UNL     1       1.018   5.534  21.301  0.00  0.00    +0.000 HD
BRANCH   5  13
ATOM      9  C   UNL     1       0.348  10.991  18.507  0.00  0.00    +0.000 C 
ATOM     10  C   UNL     1       0.978   9.703  18.953  0.00  0.00    +0.000 A 
ATOM     11  C   UNL     1       0.850   9.268  20.276  0.00  0.00    +0.000 A 
ATOM     12  C   UNL     1       1.435   8.069  20.683  0.00  0.00    +0.000 A 
ATOM     13  C   UNL     1       2.165   7.293  19.776  0.00  0.00    +0.000 A 
ATOM     14  C   UNL     1       2.286   7.714  18.446  0.00  0.00    +0.000 A 
ATOM     15  C   UNL     1       1.696   8.917  18.040  0.00  0.00    +0.000 A 
ENDBRANCH   5  13
ENDBRANCH   4   7
ENDBRANCH   3   4
ENDBRANCH   2   3
ENDBRANCH   1   2
BRANCH   1  16
ATOM     16  C   UNL     1       2.027   2.002  17.920  0.00  0.00    +0.000 C 
BRANCH  16  17
ATOM     17  C   UNL     1       2.824   3.237  17.521  0.00  0.00    +0.000 C 
ATOM     18  O   UNL     1       2.263   4.316  17.354  0.00  0.00    +0.000 OA
ATOM     19  N   UNL     1       4.177   3.020  17.366  0.00  0.00    +0.000 N 
ATOM     20  H   UNL     1       4.530   2.068  17.316  0.00  0.00    +0.000 HD
BRANCH  19  21
ATOM     21  C   UNL     1       5.133   4.025  17.081  0.00  0.00    +0.000 A 
ATOM     22  C   UNL     1       5.255   4.625  15.821  0.00  0.00    +0.000 A 
ATOM     23  C   UNL     1       6.226   5.597  15.584  0.00  0.00    +0.000 A 
ATOM     24  C   UNL     1       7.073   5.980  16.613  0.00  0.00    +0.000 A 
ATOM     25  F   UNL     1       8.005   6.913  16.381  0.00  0.00    +0.000 F 
ATOM     26  C   UNL     1       6.963   5.419  17.881  0.00  0.00    +0.000 A 
ATOM     27  C   UNL     1       5.986   4.450  18.111  0.00  0.00    +0.000 A 
BRANCH  27  28
ATOM     28  O   UNL     1       5.850   3.884  19.354  0.00  0.00    +0.000 OA
ATOM     29  H   UNL     1       6.739   3.689  19.700  0.00  0.00    +0.000 HD
ENDBRANCH  27  28
ENDBRANCH  19  21
ENDBRANCH  16  17
ENDBRANCH   1  16
TORSDOF 9
ENDMDL
MODEL 8
REMARK VINA RESULT:      -6.9      4.921      7.694
REMARK  Name = 
REMARK  10 active torsions:
REMARK  status: ('A' for Active; 'I' for Inactive)
REMARK    1  A    between atoms: C_1  and  C_2
REMARK    2  A    between atoms: C_5  and  C_6
REMARK    3  A    between atoms: N_8  and  C_9
REMARK    4  A    between atoms: C_9  and  C_10
REMARK    5  A    between atoms: C_10  and  C_11
REMARK    6  A    between atoms: C_11  and  C_12
REMARK    7  A    between atoms: C_12  and  C_13
REMARK    8  A    between atoms: C_13  and  C_14
REMARK    9  A    between atoms: N_16  and  C_17
REMARK   10  A    between atoms: C_23  and  O_24
REMARK                            x       y       z     vdW  Elec       q    Type
REMARK                         _______ _______ _______ _____ _____    ______ ____
ROOT
ATOM      1  C   UNL     1       6.986   6.797  17.437  0.00  0.00    +0.000 C 
ENDROOT
BRANCH   1   2
ATOM      2  C   UNL     1       8.081   7.437  18.280  0.00  0.00    +0.000 C 
BRANCH   2   3
ATOM      3  C   UNL     1       8.218   8.937  17.974  0.00  0.00    +0.000 C 
BRANCH   3   4
ATOM      4  C   UNL     1       9.069   9.685  19.006  0.00  0.00    +0.000 C 
BRANCH   4   7
ATOM      5  C   UNL     1       9.738  11.989  19.558  0.00  0.00    +0.000 C 
ATOM      6  O   UNL     1       9.996  11.705  20.722  0.00  0.00    +0.000 OA
ATOM      7  N   UNL     1       9.291  11.067  18.637  0.00  0.00    +0.000 N 
ATOM      8  H   UNL     1       9.241  11.312  17.659  0.00  0.00    +0.000 HD
BRANCH   5  13
ATOM      9  C   UNL     1      10.690  17.420  17.768  0.00  0.00    +0.000 C 
ATOM     10  C   UNL     1      10.432  16.013  18.224  0.00  0.00    +0.000 A 
ATOM     11  C   UNL     1      11.386  15.323  18.979  0.00  0.00    +0.000 A 
ATOM     12  C   UNL     1      11.139  14.017  19.402  0.00  0.00    +0.000 A 
ATOM     13  C   UNL     1       9.941  13.378  19.066  0.00  0.00    +0.000 A 
ATOM     14  C   UNL     1       8.975  14.066  18.322  0.00  0.00    +0.000 A 
ATOM     15  C   UNL     1       9.224  15.378  17.901  0.00  0.00    +0.000 A 
ENDBRANCH   5  13
ENDBRANCH   4   7
ENDBRANCH   3   4
ENDBRANCH   2   3
ENDBRANCH   1   2
BRANCH   1  16
ATOM     16  C   UNL     1       7.266   5.365  16.974  0.00  0.00    +0.000 C 
BRANCH  16  17
ATOM     17  C   UNL     1       5.933   4.632  16.901  0.00  0.00    +0.000 C 
ATOM     18  O   UNL     1       5.648   3.948  15.922  0.00  0.00    +0.000 OA
ATOM     19  N   UNL     1       5.116   4.819  17.997  0.00  0.00    +0.000 N 
ATOM     20  H   UNL     1       5.330   5.557  18.662  0.00  0.00    +0.000 HD
BRANCH  19  21
ATOM     21  C   UNL     1       3.869   4.179  18.198  0.00  0.00    +0.000 A 
ATOM     22  C   UNL     1       2.669   4.662  17.659  0.00  0.00    +0.000 A 
ATOM     23  C   UNL     1       1.463   4.008  17.901  0.00  0.00    +0.000 A 
ATOM     24  C   UNL     1       1.454   2.859  18.678  0.00  0.00    +0.000 A 
ATOM     25  F   UNL     1       0.293   2.233  18.910  0.00  0.00    +0.000 F 
ATOM     26  C   UNL     1       2.631   2.342  19.210  0.00  0.00    +0.000 A 
ATOM     27  C   UNL     1       3.835   3.001  18.958  0.00  0.00    +0.000 A 
BRANCH  27  28
ATOM     28  O   UNL     1       5.013   2.510  19.464  0.00  0.00    +0.000 OA
ATOM     29  H   UNL     1       5.444   3.218  19.976  0.00  0.00    +0.000 HD
ENDBRANCH  27  28
ENDBRANCH  19  21
ENDBRANCH  16  17
ENDBRANCH   1  16
TORSDOF 9
ENDMDL
MODEL 9
REMARK VINA RESULT:      -6.7      3.942      6.839
REMARK  Name = 
REMARK  10 active torsions:
REMARK  status: ('A' for Active; 'I' for Inactive)
REMARK    1  A    between atoms: C_1  and  C_2
REMARK    2  A    between atoms: C_5  and  C_6
REMARK    3  A    between atoms: N_8  and  C_9
REMARK    4  A    between atoms: C_9  and  C_10
REMARK    5  A    between atoms: C_10  and  C_11
REMARK    6  A    between atoms: C_11  and  C_12
REMARK    7  A    between atoms: C_12  and  C_13
REMARK    8  A    between atoms: C_13  and  C_14
REMARK    9  A    between atoms: N_16  and  C_17
REMARK   10  A    between atoms: C_23  and  O_24
REMARK                            x       y       z     vdW  Elec       q    Type
REMARK                         _______ _______ _______ _____ _____    ______ ____
ROOT
ATOM      1  C   UNL     1      -1.064  11.305  22.348  0.00  0.00    +0.000 C 
ENDROOT
BRANCH   1   2
ATOM      2  C   UNL     1      -0.387  10.121  23.025  0.00  0.00    +0.000 C 
BRANCH   2   3
ATOM      3  C   UNL     1      -0.073   9.003  22.017  0.00  0.00    +0.000 C 
BRANCH   3   4
ATOM      4  C   UNL     1       1.424   8.864  21.721  0.00  0.00    +0.000 C 
BRANCH   4   7
ATOM      5  C   UNL     1       1.981   7.377  19.840  0.00  0.00    +0.000 C 
ATOM      6  O   UNL     1       1.933   8.287  19.021  0.00  0.00    +0.000 OA
ATOM      7  N   UNL     1       1.760   7.562  21.187  0.00  0.00    +0.000 N 
ATOM      8  H   UNL     1       1.962   6.818  21.840  0.00  0.00    +0.000 HD
BRANCH   5  13
ATOM      9  C   UNL     1       3.358   1.950  18.338  0.00  0.00    +0.000 C 
ATOM     10  C   UNL     1       3.001   3.359  18.714  0.00  0.00    +0.000 A 
ATOM     11  C   UNL     1       2.689   3.685  20.037  0.00  0.00    +0.000 A 
ATOM     12  C   UNL     1       2.362   4.997  20.381  0.00  0.00    +0.000 A 
ATOM     13  C   UNL     1       2.330   5.998  19.404  0.00  0.00    +0.000 A 
ATOM     14  C   UNL     1       2.654   5.683  18.079  0.00  0.00    +0.000 A 
ATOM     15  C   UNL     1       2.985   4.366  17.738  0.00  0.00    +0.000 A 
ENDBRANCH   5  13
ENDBRANCH   4   7
ENDBRANCH   3   4
ENDBRANCH   2   3
ENDBRANCH   1   2
BRANCH   1  16
ATOM     16  C   UNL     1      -0.142  12.202  21.519  0.00  0.00    +0.000 C 
BRANCH  16  17
ATOM     17  C   UNL     1      -0.661  12.203  20.087  0.00  0.00    +0.000 C 
ATOM     18  O   UNL     1      -0.130  12.904  19.230  0.00  0.00    +0.000 OA
ATOM     19  N   UNL     1      -1.746  11.380  19.871  0.00  0.00    +0.000 N 
ATOM     20  H   UNL     1      -2.253  10.999  20.664  0.00  0.00    +0.000 HD
BRANCH  19  21
ATOM     21  C   UNL     1      -2.351  11.149  18.611  0.00  0.00    +0.000 A 
ATOM     22  C   UNL     1      -3.639  11.597  18.291  0.00  0.00    +0.000 A 
ATOM     23  C   UNL     1      -4.200  11.328  17.044  0.00  0.00    +0.000 A 
ATOM     24  C   UNL     1      -3.467  10.615  16.107  0.00  0.00    +0.000 A 
ATOM     25  F   UNL     1      -4.009  10.357  14.910  0.00  0.00    +0.000 F 
ATOM     26  C   UNL     1      -2.178  10.174  16.386  0.00  0.00    +0.000 A 
ATOM     27  C   UNL     1      -1.622  10.452  17.636  0.00  0.00    +0.000 A 
BRANCH  27  28
ATOM     28  O   UNL     1      -0.350  10.036  17.937  0.00  0.00    +0.000 OA
ATOM     29  H   UNL     1       0.256  10.788  17.809  0.00  0.00    +0.000 HD
ENDBRANCH  27  28
ENDBRANCH  19  21
ENDBRANCH  16  17
ENDBRANCH   1  16
TORSDOF 9
ENDMDL
