MODEL 1
REMARK VINA RESULT:      -7.5      0.000      0.000
REMARK  Name = 
REMARK  3 active torsions:
REMARK  status: ('A' for Active; 'I' for Inactive)
REMARK    1  A    between atoms: C_2  and  C_9
REMARK    2  A    between atoms: N_3  and  C_4
REMARK    3  A    between atoms: C_4  and  C_5
REMARK                            x       y       z     vdW  Elec       q    Type
REMARK                         _______ _______ _______ _____ _____    ______ ____
ROOT
ATOM      1  C   UNL     1       5.568   4.109  17.040  0.00  0.00    +0.000 A 
ATOM      2  C   UNL     1       4.236   4.032  16.671  0.00  0.00    +0.000 A 
ATOM      3  C   UNL     1       3.290   3.768  17.658  0.00  0.00    +0.000 A 
ATOM      4  C   UNL     1       3.726   3.604  18.968  0.00  0.00    +0.000 A 
ATOM      5  N   UNL     1       2.789   3.311  19.987  0.00  0.00    +0.000 N 
ATOM      6  C   UNL     1       3.039   3.156  21.326  0.00  0.00    +0.000 A 
ATOM      7  N   UNL     1       1.934   2.842  21.963  0.00  0.00    +0.000 NA
ATOM      8  C   UNL     1       1.006   2.821  20.964  0.00  0.00    +0.000 A 
ATOM      9  N   UNL     1       1.466   3.114  19.746  0.00  0.00    +0.000 NA
ATOM     10  N   UNL     1       5.040   3.701  19.298  0.00  0.00    +0.000 NA
ATOM     11  N   UNL     1       5.974   3.948  18.323  0.00  0.00    +0.000 NA
ENDROOT
BRANCH   1  13
ATOM     12  O   UNL     1       7.784   4.560  16.341  0.00  0.00    +0.000 OA
ATOM     13  C   UNL     1       6.623   4.337  16.012  0.00  0.00    +0.000 C 
ATOM     14  N   UNL     1       6.215   4.311  14.695  0.00  0.00    +0.000 N 
ATOM     15  H   UNL     1       5.271   3.997  14.494  0.00  0.00    +0.000 HD
BRANCH  14  16
ATOM     16  C   UNL     1       7.174   4.510  13.607  0.00  0.00    +0.000 C 
BRANCH  16  17
ATOM     17  C   UNL     1       6.771   3.947  12.237  0.00  0.00    +0.000 C 
ATOM     18  F   UNL     1       7.272   2.711  12.018  0.00  0.00    +0.000 F 
ATOM     19  F   UNL     1       5.420   3.847  12.156  0.00  0.00    +0.000 F 
ATOM     20  F   UNL     1       7.174   4.746  11.227  0.00  0.00    +0.000 F 
ENDBRANCH  16  17
ENDBRANCH  14  16
ENDBRANCH   1  13
TORSDOF 3
ENDMDL
MODEL 2
REMARK VINA RESULT:      -7.3      4.297      7.695
REMARK  Name = 
REMARK  3 active torsions:
REMARK  status: ('A' for Active; 'I' for Inactive)
REMARK    1  A    between atoms: C_2  and  C_9
REMARK    2  A    between atoms: N_3  and  C_4
REMARK    3  A    between atoms: C_4  and  C_5
REMARK                            x       y       z     vdW  Elec       q    Type
REMARK                         _______ _______ _______ _____ _____    ______ ____
ROOT
ATOM      1  C   UNL     1       5.103   3.974  18.020  0.00  0.00    +0.000 A 
ATOM      2  C   UNL     1       6.137   4.893  17.976  0.00  0.00    +0.000 A 
ATOM      3  C   UNL     1       6.737   5.156  16.748  0.00  0.00    +0.000 A 
ATOM      4  C   UNL     1       6.264   4.491  15.622  0.00  0.00    +0.000 A 
ATOM      5  N   UNL     1       6.872   4.721  14.366  0.00  0.00    +0.000 N 
ATOM      6  C   UNL     1       6.512   4.182  13.157  0.00  0.00    +0.000 A 
ATOM      7  N   UNL     1       7.333   4.586  12.215  0.00  0.00    +0.000 NA
ATOM      8  C   UNL     1       8.196   5.394  12.893  0.00  0.00    +0.000 A 
ATOM      9  N   UNL     1       7.955   5.525  14.199  0.00  0.00    +0.000 NA
ATOM     10  N   UNL     1       5.238   3.604  15.699  0.00  0.00    +0.000 NA
ATOM     11  N   UNL     1       4.655   3.335  16.912  0.00  0.00    +0.000 NA
ENDROOT
BRANCH   1  13
ATOM     12  O   UNL     1       4.940   2.745  20.037  0.00  0.00    +0.000 OA
ATOM     13  C   UNL     1       4.464   3.619  19.319  0.00  0.00    +0.000 C 
ATOM     14  N   UNL     1       3.311   4.302  19.645  0.00  0.00    +0.000 N 
ATOM     15  H   UNL     1       3.048   5.096  19.069  0.00  0.00    +0.000 HD
BRANCH  14  16
ATOM     16  C   UNL     1       2.613   4.040  20.905  0.00  0.00    +0.000 C 
BRANCH  16  17
ATOM     17  C   UNL     1       1.373   3.140  20.817  0.00  0.00    +0.000 C 
ATOM     18  F   UNL     1       0.303   3.783  20.298  0.00  0.00    +0.000 F 
ATOM     19  F   UNL     1       1.626   2.078  20.012  0.00  0.00    +0.000 F 
ATOM     20  F   UNL     1       1.021   2.651  22.025  0.00  0.00    +0.000 F 
ENDBRANCH  16  17
ENDBRANCH  14  16
ENDBRANCH   1  13
TORSDOF 3
ENDMDL
MODEL 3
REMARK VINA RESULT:      -7.2      4.378      7.663
REMARK  Name = 
REMARK  3 active torsions:
REMARK  status: ('A' for Active; 'I' for Inactive)
REMARK    1  A    between atoms: C_2  and  C_9
REMARK    2  A    between atoms: N_3  and  C_4
REMARK    3  A    between atoms: C_4  and  C_5
REMARK                            x       y       z     vdW  Elec       q    Type
REMARK                         _______ _______ _______ _____ _____    ______ ____
ROOT
ATOM      1  C   UNL     1       4.647   4.592  17.928  0.00  0.00    +0.000 A 
ATOM      2  C   UNL     1       5.612   5.562  17.718  0.00  0.00    +0.000 A 
ATOM      3  C   UNL     1       6.259   5.596  16.486  0.00  0.00    +0.000 A 
ATOM      4  C   UNL     1       5.900   4.661  15.521  0.00  0.00    +0.000 A 
ATOM      5  N   UNL     1       6.558   4.657  14.269  0.00  0.00    +0.000 N 
ATOM      6  C   UNL     1       6.306   3.836  13.201  0.00  0.00    +0.000 A 
ATOM      7  N   UNL     1       7.147   4.088  12.223  0.00  0.00    +0.000 NA
ATOM      8  C   UNL     1       7.909   5.095  12.735  0.00  0.00    +0.000 A 
ATOM      9  N   UNL     1       7.587   5.492  13.967  0.00  0.00    +0.000 NA
ATOM     10  N   UNL     1       4.939   3.730  15.756  0.00  0.00    +0.000 NA
ATOM     11  N   UNL     1       4.310   3.689  16.976  0.00  0.00    +0.000 NA
ENDROOT
BRANCH   1  13
ATOM     12  O   UNL     1       3.788   5.473  19.950  0.00  0.00    +0.000 OA
ATOM     13  C   UNL     1       3.965   4.482  19.248  0.00  0.00    +0.000 C 
ATOM     14  N   UNL     1       3.576   3.217  19.637  0.00  0.00    +0.000 N 
ATOM     15  H   UNL     1       3.638   2.468  18.954  0.00  0.00    +0.000 HD
BRANCH  14  16
ATOM     16  C   UNL     1       2.885   3.001  20.909  0.00  0.00    +0.000 C 
BRANCH  16  17
ATOM     17  C   UNL     1       1.352   3.076  20.869  0.00  0.00    +0.000 C 
ATOM     18  F   UNL     1       0.780   2.556  21.978  0.00  0.00    +0.000 F 
ATOM     19  F   UNL     1       0.952   4.370  20.786  0.00  0.00    +0.000 F 
ATOM     20  F   UNL     1       0.845   2.431  19.797  0.00  0.00    +0.000 F 
ENDBRANCH  16  17
ENDBRANCH  14  16
ENDBRANCH   1  13
TORSDOF 3
ENDMDL
MODEL 4
REMARK VINA RESULT:      -7.0      1.149      1.473
REMARK  Name = 
REMARK  3 active torsions:
REMARK  status: ('A' for Active; 'I' for Inactive)
REMARK    1  A    between atoms: C_2  and  C_9
REMARK    2  A    between atoms: N_3  and  C_4
REMARK    3  A    between atoms: C_4  and  C_5
REMARK                            x       y       z     vdW  Elec       q    Type
REMARK                         _______ _______ _______ _____ _____    ______ ____
ROOT
ATOM      1  C   UNL     1       5.618   4.420  16.742  0.00  0.00    +0.000 A 
ATOM      2  C   UNL     1       5.982   4.469  18.077  0.00  0.00    +0.000 A 
ATOM      3  C   UNL     1       5.027   4.143  19.035  0.00  0.00    +0.000 A 
ATOM      4  C   UNL     1       3.756   3.773  18.608  0.00  0.00    +0.000 A 
ATOM      5  N   UNL     1       2.759   3.459  19.561  0.00  0.00    +0.000 N 
ATOM      6  C   UNL     1       1.476   3.044  19.315  0.00  0.00    +0.000 A 
ATOM      7  N   UNL     1       0.821   2.893  20.444  0.00  0.00    +0.000 NA
ATOM      8  C   UNL     1       1.755   3.223  21.380  0.00  0.00    +0.000 A 
ATOM      9  N   UNL     1       2.954   3.560  20.902  0.00  0.00    +0.000 NA
ATOM     10  N   UNL     1       3.437   3.721  17.288  0.00  0.00    +0.000 NA
ATOM     11  N   UNL     1       4.375   4.056  16.344  0.00  0.00    +0.000 NA
ENDROOT
BRANCH   1  13
ATOM     12  O   UNL     1       7.438   5.672  15.893  0.00  0.00    +0.000 OA
ATOM     13  C   UNL     1       6.589   4.811  15.682  0.00  0.00    +0.000 C 
ATOM     14  N   UNL     1       6.460   4.178  14.464  0.00  0.00    +0.000 N 
ATOM     15  H   UNL     1       5.822   3.390  14.401  0.00  0.00    +0.000 HD
BRANCH  14  16
ATOM     16  C   UNL     1       7.372   4.479  13.359  0.00  0.00    +0.000 C 
BRANCH  16  17
ATOM     17  C   UNL     1       6.938   3.990  11.970  0.00  0.00    +0.000 C 
ATOM     18  F   UNL     1       7.533   2.827  11.622  0.00  0.00    +0.000 F 
ATOM     19  F   UNL     1       5.599   3.772  11.951  0.00  0.00    +0.000 F 
ATOM     20  F   UNL     1       7.208   4.900  11.010  0.00  0.00    +0.000 F 
ENDBRANCH  16  17
ENDBRANCH  14  16
ENDBRANCH   1  13
TORSDOF 3
ENDMDL
MODEL 5
REMARK VINA RESULT:      -6.9      0.596      1.044
REMARK  Name = 
REMARK  3 active torsions:
REMARK  status: ('A' for Active; 'I' for Inactive)
REMARK    1  A    between atoms: C_2  and  C_9
REMARK    2  A    between atoms: N_3  and  C_4
REMARK    3  A    between atoms: C_4  and  C_5
REMARK                            x       y       z     vdW  Elec       q    Type
REMARK                         _______ _______ _______ _____ _____    ______ ____
ROOT
ATOM      1  C   UNL     1       5.259   4.489  16.867  0.00  0.00    +0.000 A 
ATOM      2  C   UNL     1       4.114   3.767  16.575  0.00  0.00    +0.000 A 
ATOM      3  C   UNL     1       3.263   3.424  17.623  0.00  0.00    +0.000 A 
ATOM      4  C   UNL     1       3.597   3.831  18.910  0.00  0.00    +0.000 A 
ATOM      5  N   UNL     1       2.763   3.476  19.996  0.00  0.00    +0.000 N 
ATOM      6  C   UNL     1       2.922   3.821  21.313  0.00  0.00    +0.000 A 
ATOM      7  N   UNL     1       1.980   3.272  22.046  0.00  0.00    +0.000 NA
ATOM      8  C   UNL     1       1.243   2.589  21.125  0.00  0.00    +0.000 A 
ATOM      9  N   UNL     1       1.663   2.690  19.863  0.00  0.00    +0.000 NA
ATOM     10  N   UNL     1       4.722   4.551  19.159  0.00  0.00    +0.000 NA
ATOM     11  N   UNL     1       5.567   4.878  18.128  0.00  0.00    +0.000 NA
ENDROOT
BRANCH   1  13
ATOM     12  O   UNL     1       6.945   5.825  15.881  0.00  0.00    +0.000 OA
ATOM     13  C   UNL     1       6.227   4.834  15.788  0.00  0.00    +0.000 C 
ATOM     14  N   UNL     1       6.245   4.003  14.688  0.00  0.00    +0.000 N 
ATOM     15  H   UNL     1       5.719   3.136  14.736  0.00  0.00    +0.000 HD
BRANCH  14  16
ATOM     16  C   UNL     1       7.169   4.244  13.578  0.00  0.00    +0.000 C 
BRANCH  16  17
ATOM     17  C   UNL     1       6.683   3.815  12.187  0.00  0.00    +0.000 C 
ATOM     18  F   UNL     1       5.336   3.739  12.110  0.00  0.00    +0.000 F 
ATOM     19  F   UNL     1       7.083   4.718  11.256  0.00  0.00    +0.000 F 
ATOM     20  F   UNL     1       7.190   2.618  11.825  0.00  0.00    +0.000 F 
ENDBRANCH  16  17
ENDBRANCH  14  16
ENDBRANCH   1  13
TORSDOF 3
ENDMDL
MODEL 6
REMARK VINA RESULT:      -6.8      4.535      7.739
REMARK  Name = 
REMARK  3 active torsions:
REMARK  status: ('A' for Active; 'I' for Inactive)
REMARK    1  A    between atoms: C_2  and  C_9
REMARK    2  A    between atoms: N_3  and  C_4
REMARK    3  A    between atoms: C_4  and  C_5
REMARK                            x       y       z     vdW  Elec       q    Type
REMARK                         _______ _______ _______ _____ _____    ______ ____
ROOT
ATOM      1  C   UNL     1       4.118   4.973  17.775  0.00  0.00    +0.000 A 
ATOM      2  C   UNL     1       5.121   5.909  17.588  0.00  0.00    +0.000 A 
ATOM      3  C   UNL     1       5.890   5.832  16.429  0.00  0.00    +0.000 A 
ATOM      4  C   UNL     1       5.608   4.827  15.511  0.00  0.00    +0.000 A 
ATOM      5  N   UNL     1       6.389   4.712  14.336  0.00  0.00    +0.000 N 
ATOM      6  C   UNL     1       6.226   3.809  13.316  0.00  0.00    +0.000 A 
ATOM      7  N   UNL     1       7.167   3.969  12.413  0.00  0.00    +0.000 NA
ATOM      8  C   UNL     1       7.897   5.002  12.918  0.00  0.00    +0.000 A 
ATOM      9  N   UNL     1       7.462   5.503  14.076  0.00  0.00    +0.000 NA
ATOM     10  N   UNL     1       4.606   3.934  15.720  0.00  0.00    +0.000 NA
ATOM     11  N   UNL     1       3.857   4.001  16.868  0.00  0.00    +0.000 NA
ENDROOT
BRANCH   1  13
ATOM     12  O   UNL     1       3.620   5.687  19.976  0.00  0.00    +0.000 OA
ATOM     13  C   UNL     1       3.304   4.982  19.023  0.00  0.00    +0.000 C 
ATOM     14  N   UNL     1       2.209   4.143  19.049  0.00  0.00    +0.000 N 
ATOM     15  H   UNL     1       1.936   3.688  18.184  0.00  0.00    +0.000 HD
BRANCH  14  16
ATOM     16  C   UNL     1       1.335   4.085  20.222  0.00  0.00    +0.000 C 
BRANCH  16  17
ATOM     17  C   UNL     1       1.804   3.185  21.373  0.00  0.00    +0.000 C 
ATOM     18  F   UNL     1       0.780   2.538  21.974  0.00  0.00    +0.000 F 
ATOM     19  F   UNL     1       2.652   2.235  20.904  0.00  0.00    +0.000 F 
ATOM     20  F   UNL     1       2.469   3.883  22.318  0.00  0.00    +0.000 F 
ENDBRANCH  16  17
ENDBRANCH  14  16
ENDBRANCH   1  13
TORSDOF 3
ENDMDL
MODEL 7
REMARK VINA RESULT:      -6.7      2.042      2.499
REMARK  Name = 
REMARK  3 active torsions:
REMARK  status: ('A' for Active; 'I' for Inactive)
REMARK    1  A    between atoms: C_2  and  C_9
REMARK    2  A    between atoms: N_3  and  C_4
REMARK    3  A    between atoms: C_4  and  C_5
REMARK                            x       y       z     vdW  Elec       q    Type
REMARK                         _______ _______ _______ _____ _____    ______ ____
ROOT
ATOM      1  C   UNL     1       5.608   4.816  15.640  0.00  0.00    +0.000 A 
ATOM      2  C   UNL     1       5.232   6.105  15.978  0.00  0.00    +0.000 A 
ATOM      3  C   UNL     1       4.441   6.289  17.108  0.00  0.00    +0.000 A 
ATOM      4  C   UNL     1       4.073   5.172  17.850  0.00  0.00    +0.000 A 
ATOM      5  N   UNL     1       3.249   5.328  18.990  0.00  0.00    +0.000 N 
ATOM      6  C   UNL     1       2.826   4.347  19.849  0.00  0.00    +0.000 A 
ATOM      7  N   UNL     1       2.034   4.855  20.766  0.00  0.00    +0.000 NA
ATOM      8  C   UNL     1       2.001   6.177  20.437  0.00  0.00    +0.000 A 
ATOM      9  N   UNL     1       2.733   6.524  19.376  0.00  0.00    +0.000 NA
ATOM     10  N   UNL     1       4.471   3.922  17.498  0.00  0.00    +0.000 NA
ATOM     11  N   UNL     1       5.240   3.739  16.376  0.00  0.00    +0.000 NA
ENDROOT
BRANCH   1  13
ATOM     12  O   UNL     1       7.451   5.178  14.200  0.00  0.00    +0.000 OA
ATOM     13  C   UNL     1       6.410   4.563  14.410  0.00  0.00    +0.000 C 
ATOM     14  N   UNL     1       5.906   3.633  13.526  0.00  0.00    +0.000 N 
ATOM     15  H   UNL     1       5.112   3.073  13.823  0.00  0.00    +0.000 HD
BRANCH  14  16
ATOM     16  C   UNL     1       6.623   3.299  12.294  0.00  0.00    +0.000 C 
BRANCH  16  17
ATOM     17  C   UNL     1       6.035   2.155  11.456  0.00  0.00    +0.000 C 
ATOM     18  F   UNL     1       4.877   2.499  10.851  0.00  0.00    +0.000 F 
ATOM     19  F   UNL     1       6.906   1.803  10.477  0.00  0.00    +0.000 F 
ATOM     20  F   UNL     1       5.806   1.053  12.201  0.00  0.00    +0.000 F 
ENDBRANCH  16  17
ENDBRANCH  14  16
ENDBRANCH   1  13
TORSDOF 3
ENDMDL
MODEL 8
REMARK VINA RESULT:      -6.6      1.353      1.619
REMARK  Name = 
REMARK  3 active torsions:
REMARK  status: ('A' for Active; 'I' for Inactive)
REMARK    1  A    between atoms: C_2  and  C_9
REMARK    2  A    between atoms: N_3  and  C_4
REMARK    3  A    between atoms: C_4  and  C_5
REMARK                            x       y       z     vdW  Elec       q    Type
REMARK                         _______ _______ _______ _____ _____    ______ ____
ROOT
ATOM      1  C   UNL     1       5.411   4.783  16.399  0.00  0.00    +0.000 A 
ATOM      2  C   UNL     1       4.849   3.532  16.588  0.00  0.00    +0.000 A 
ATOM      3  C   UNL     1       3.865   3.388  17.562  0.00  0.00    +0.000 A 
ATOM      4  C   UNL     1       3.485   4.509  18.292  0.00  0.00    +0.000 A 
ATOM      5  N   UNL     1       2.504   4.387  19.304  0.00  0.00    +0.000 N 
ATOM      6  C   UNL     1       1.989   5.389  20.087  0.00  0.00    +0.000 A 
ATOM      7  N   UNL     1       1.132   4.896  20.952  0.00  0.00    +0.000 NA
ATOM      8  C   UNL     1       1.140   3.565  20.659  0.00  0.00    +0.000 A 
ATOM      9  N   UNL     1       1.942   3.202  19.656  0.00  0.00    +0.000 NA
ATOM     10  N   UNL     1       4.047   5.726  18.071  0.00  0.00    +0.000 NA
ATOM     11  N   UNL     1       5.027   5.864  17.119  0.00  0.00    +0.000 NA
ENDROOT
BRANCH   1  13
ATOM     12  O   UNL     1       7.481   5.669  15.672  0.00  0.00    +0.000 OA
ATOM     13  C   UNL     1       6.505   4.975  15.406  0.00  0.00    +0.000 C 
ATOM     14  N   UNL     1       6.342   4.359  14.183  0.00  0.00    +0.000 N 
ATOM     15  H   UNL     1       5.577   3.700  14.079  0.00  0.00    +0.000 HD
BRANCH  14  16
ATOM     16  C   UNL     1       7.365   4.473  13.142  0.00  0.00    +0.000 C 
BRANCH  16  17
ATOM     17  C   UNL     1       6.974   3.958  11.750  0.00  0.00    +0.000 C 
ATOM     18  F   UNL     1       5.644   3.747  11.630  0.00  0.00    +0.000 F 
ATOM     19  F   UNL     1       7.317   4.869  10.805  0.00  0.00    +0.000 F 
ATOM     20  F   UNL     1       7.609   2.807  11.443  0.00  0.00    +0.000 F 
ENDBRANCH  16  17
ENDBRANCH  14  16
ENDBRANCH   1  13
TORSDOF 3
ENDMDL
MODEL 9
REMARK VINA RESULT:      -6.6      1.355      1.372
REMARK  Name = 
REMARK  3 active torsions:
REMARK  status: ('A' for Active; 'I' for Inactive)
REMARK    1  A    between atoms: C_2  and  C_9
REMARK    2  A    between atoms: N_3  and  C_4
REMARK    3  A    between atoms: C_4  and  C_5
REMARK                            x       y       z     vdW  Elec       q    Type
REMARK                         _______ _______ _______ _____ _____    ______ ____
ROOT
ATOM      1  C   UNL     1       5.724   5.117  16.589  0.00  0.00    +0.000 A 
ATOM      2  C   UNL     1       4.904   6.188  16.901  0.00  0.00    +0.000 A 
ATOM      3  C   UNL     1       3.947   6.020  17.898  0.00  0.00    +0.000 A 
ATOM      4  C   UNL     1       3.865   4.790  18.540  0.00  0.00    +0.000 A 
ATOM      5  N   UNL     1       2.886   4.584  19.540  0.00  0.00    +0.000 N 
ATOM      6  C   UNL     1       2.691   3.454  20.292  0.00  0.00    +0.000 A 
ATOM      7  N   UNL     1       1.657   3.609  21.088  0.00  0.00    +0.000 NA
ATOM      8  C   UNL     1       1.239   4.873  20.796  0.00  0.00    +0.000 A 
ATOM      9  N   UNL     1       1.958   5.518  19.875  0.00  0.00    +0.000 NA
ATOM     10  N   UNL     1       4.696   3.764  18.218  0.00  0.00    +0.000 NA
ATOM     11  N   UNL     1       5.631   3.925  17.227  0.00  0.00    +0.000 NA
ENDROOT
BRANCH   1  13
ATOM     12  O   UNL     1       7.671   6.012  15.584  0.00  0.00    +0.000 OA
ATOM     13  C   UNL     1       6.728   5.231  15.494  0.00  0.00    +0.000 C 
ATOM     14  N   UNL     1       6.521   4.440  14.384  0.00  0.00    +0.000 N 
ATOM     15  H   UNL     1       5.798   3.729  14.433  0.00  0.00    +0.000 HD
BRANCH  14  16
ATOM     16  C   UNL     1       7.456   4.465  13.258  0.00  0.00    +0.000 C 
BRANCH  16  17
ATOM     17  C   UNL     1       6.919   3.939  11.920  0.00  0.00    +0.000 C 
ATOM     18  F   UNL     1       7.475   2.759  11.567  0.00  0.00    +0.000 F 
ATOM     19  F   UNL     1       5.580   3.737  12.004  0.00  0.00    +0.000 F 
ATOM     20  F   UNL     1       7.128   4.816  10.915  0.00  0.00    +0.000 F 
ENDBRANCH  16  17
ENDBRANCH  14  16
ENDBRANCH   1  13
TORSDOF 3
ENDMDL
