MODEL 1
REMARK VINA RESULT:      -8.3      0.000      0.000
REMARK  Name = 
REMARK  3 active torsions:
REMARK  status: ('A' for Active; 'I' for Inactive)
REMARK    1  A    between atoms: C_2  and  C_3
REMARK    2  A    between atoms: C_15  and  N_16
REMARK    3  A    between atoms: N_16  and  C_17
REMARK                            x       y       z     vdW  Elec       q    Type
REMARK                         _______ _______ _______ _____ _____    ______ ____
ROOT
ATOM      1  O   UNL     1       4.663   2.354  17.606  0.00  0.00    +0.000 OA
ATOM      2  C   UNL     1       4.341   3.496  17.930  0.00  0.00    +0.000 C 
ATOM      3  N   UNL     1       3.272   3.741  18.792  0.00  0.00    +0.000 N 
ATOM      4  C   UNL     1       2.416   2.629  19.186  0.00  0.00    +0.000 C 
ATOM      5  C   UNL     1       0.995   3.113  19.466  0.00  0.00    +0.000 C 
ATOM      6  C   UNL     1       0.958   4.294  20.442  0.00  0.00    +0.000 C 
ATOM      7  C   UNL     1       1.889   5.428  19.981  0.00  0.00    +0.000 C 
ATOM      8  C   UNL     1       3.297   4.841  19.757  0.00  0.00    +0.000 C 
ENDROOT
BRANCH   2   9
ATOM      9  C   UNL     1       5.062   4.638  17.431  0.00  0.00    +0.000 A 
ATOM     10  N   UNL     1       4.647   5.349  16.321  0.00  0.00    +0.000 N 
ATOM     11  N   UNL     1       5.489   6.350  15.950  0.00  0.00    +0.000 NA
ATOM     12  C   UNL     1       6.391   6.317  16.916  0.00  0.00    +0.000 A 
ATOM     13  C   UNL     1       6.180   5.312  17.855  0.00  0.00    +0.000 A 
ATOM     14  C   UNL     1       7.210   5.327  18.911  0.00  0.00    +0.000 C 
ATOM     15  C   UNL     1       7.905   6.708  18.672  0.00  0.00    +0.000 C 
ATOM     16  C   UNL     1       7.594   7.124  17.196  0.00  0.00    +0.000 C 
ATOM     17  H   UNL     1       3.823   5.168  15.757  0.00  0.00    +0.000 HD
ENDBRANCH   2   9
BRANCH   7  18
ATOM     18  N   UNL     1       1.970   6.499  20.985  0.00  0.00    +0.000 N 
ATOM     19  H   UNL     1       2.858   6.504  21.486  0.00  0.00    +0.000 HD
BRANCH  18  20
ATOM     20  C   UNL     1       1.598   7.808  20.646  0.00  0.00    +0.000 A 
ATOM     21  C   UNL     1       0.928   8.587  21.606  0.00  0.00    +0.000 A 
ATOM     22  C   UNL     1       0.462   9.874  21.309  0.00  0.00    +0.000 A 
ATOM     23  C   UNL     1       0.629  10.390  20.029  0.00  0.00    +0.000 A 
ATOM     24  C   UNL     1       1.257   9.614  19.067  0.00  0.00    +0.000 A 
ATOM     25  F   UNL     1       1.398  10.092  17.824  0.00  0.00    +0.000 F 
ATOM     26  C   UNL     1       1.736   8.339  19.362  0.00  0.00    +0.000 A 
ENDBRANCH  18  20
ENDBRANCH   7  18
TORSDOF 3
ENDMDL
MODEL 2
REMARK VINA RESULT:      -8.3      1.398      1.838
REMARK  Name = 
REMARK  3 active torsions:
REMARK  status: ('A' for Active; 'I' for Inactive)
REMARK    1  A    between atoms: C_2  and  C_3
REMARK    2  A    between atoms: C_15  and  N_16
REMARK    3  A    between atoms: N_16  and  C_17
REMARK                            x       y       z     vdW  Elec       q    Type
REMARK                         _______ _______ _______ _____ _____    ______ ____
ROOT
ATOM      1  O   UNL     1       4.273   1.403  18.624  0.00  0.00    +0.000 OA
ATOM      2  C   UNL     1       4.163   2.624  18.718  0.00  0.00    +0.000 C 
ATOM      3  N   UNL     1       3.069   3.217  19.348  0.00  0.00    +0.000 N 
ATOM      4  C   UNL     1       1.951   2.375  19.756  0.00  0.00    +0.000 C 
ATOM      5  C   UNL     1       0.642   3.161  19.726  0.00  0.00    +0.000 C 
ATOM      6  C   UNL     1       0.732   4.483  20.496  0.00  0.00    +0.000 C 
ATOM      7  C   UNL     1       1.935   5.320  20.031  0.00  0.00    +0.000 C 
ATOM      8  C   UNL     1       3.203   4.446  20.129  0.00  0.00    +0.000 C 
ENDROOT
BRANCH   2   9
ATOM      9  C   UNL     1       5.170   3.501  18.180  0.00  0.00    +0.000 A 
ATOM     10  N   UNL     1       6.251   3.933  18.925  0.00  0.00    +0.000 N 
ATOM     11  N   UNL     1       7.060   4.816  18.281  0.00  0.00    +0.000 NA
ATOM     12  C   UNL     1       6.517   4.850  17.076  0.00  0.00    +0.000 A 
ATOM     13  C   UNL     1       5.377   4.061  16.944  0.00  0.00    +0.000 A 
ATOM     14  C   UNL     1       4.820   4.131  15.580  0.00  0.00    +0.000 C 
ATOM     15  C   UNL     1       5.979   4.819  14.787  0.00  0.00    +0.000 C 
ATOM     16  C   UNL     1       6.866   5.570  15.836  0.00  0.00    +0.000 C 
ATOM     17  H   UNL     1       6.461   3.689  19.888  0.00  0.00    +0.000 HD
ENDBRANCH   2   9
BRANCH   7  18
ATOM     18  N   UNL     1       2.112   6.518  20.864  0.00  0.00    +0.000 N 
ATOM     19  H   UNL     1       3.047   6.584  21.265  0.00  0.00    +0.000 HD
BRANCH  18  20
ATOM     20  C   UNL     1       1.699   7.771  20.389  0.00  0.00    +0.000 A 
ATOM     21  C   UNL     1       0.862   8.556  21.200  0.00  0.00    +0.000 A 
ATOM     22  C   UNL     1       0.351   9.783  20.756  0.00  0.00    +0.000 A 
ATOM     23  C   UNL     1       0.644  10.227  19.472  0.00  0.00    +0.000 A 
ATOM     24  C   UNL     1       1.441   9.442  18.653  0.00  0.00    +0.000 A 
ATOM     25  F   UNL     1       1.706   9.850  17.405  0.00  0.00    +0.000 F 
ATOM     26  C   UNL     1       1.963   8.229  19.096  0.00  0.00    +0.000 A 
ENDBRANCH  18  20
ENDBRANCH   7  18
TORSDOF 3
ENDMDL
MODEL 3
REMARK VINA RESULT:      -8.2      1.754      2.355
REMARK  Name = 
REMARK  3 active torsions:
REMARK  status: ('A' for Active; 'I' for Inactive)
REMARK    1  A    between atoms: C_2  and  C_3
REMARK    2  A    between atoms: C_15  and  N_16
REMARK    3  A    between atoms: N_16  and  C_17
REMARK                            x       y       z     vdW  Elec       q    Type
REMARK                         _______ _______ _______ _____ _____    ______ ____
ROOT
ATOM      1  O   UNL     1       4.528   1.811  19.416  0.00  0.00    +0.000 OA
ATOM      2  C   UNL     1       4.402   3.014  19.199  0.00  0.00    +0.000 C 
ATOM      3  N   UNL     1       3.316   3.740  19.690  0.00  0.00    +0.000 N 
ATOM      4  C   UNL     1       2.223   3.021  20.332  0.00  0.00    +0.000 C 
ATOM      5  C   UNL     1       0.901   3.762  20.141  0.00  0.00    +0.000 C 
ATOM      6  C   UNL     1       0.991   5.238  20.548  0.00  0.00    +0.000 C 
ATOM      7  C   UNL     1       2.169   5.938  19.849  0.00  0.00    +0.000 C 
ATOM      8  C   UNL     1       3.452   5.128  20.129  0.00  0.00    +0.000 C 
ENDROOT
BRANCH   2   9
ATOM      9  C   UNL     1       5.381   3.735  18.426  0.00  0.00    +0.000 A 
ATOM     10  N   UNL     1       6.598   4.124  18.951  0.00  0.00    +0.000 N 
ATOM     11  N   UNL     1       7.365   4.859  18.103  0.00  0.00    +0.000 NA
ATOM     12  C   UNL     1       6.643   4.835  16.995  0.00  0.00    +0.000 A 
ATOM     13  C   UNL     1       5.436   4.154  17.121  0.00  0.00    +0.000 A 
ATOM     14  C   UNL     1       4.676   4.152  15.856  0.00  0.00    +0.000 C 
ATOM     15  C   UNL     1       5.749   4.646  14.829  0.00  0.00    +0.000 C 
ATOM     16  C   UNL     1       6.850   5.399  15.648  0.00  0.00    +0.000 C 
ATOM     17  H   UNL     1       6.937   3.951  19.892  0.00  0.00    +0.000 HD
ENDBRANCH   2   9
BRANCH   7  18
ATOM     18  N   UNL     1       2.349   7.310  20.345  0.00  0.00    +0.000 N 
ATOM     19  H   UNL     1       3.328   7.594  20.369  0.00  0.00    +0.000 HD
BRANCH  18  20
ATOM     20  C   UNL     1       1.556   8.349  19.839  0.00  0.00    +0.000 A 
ATOM     21  C   UNL     1       1.759   8.766  18.511  0.00  0.00    +0.000 A 
ATOM     22  C   UNL     1       1.055   9.847  17.967  0.00  0.00    +0.000 A 
ATOM     23  C   UNL     1       0.157  10.554  18.758  0.00  0.00    +0.000 A 
ATOM     24  C   UNL     1      -0.023  10.172  20.079  0.00  0.00    +0.000 A 
ATOM     25  F   UNL     1      -0.866  10.865  20.856  0.00  0.00    +0.000 F 
ATOM     26  C   UNL     1       0.664   9.088  20.620  0.00  0.00    +0.000 A 
ENDBRANCH  18  20
ENDBRANCH   7  18
TORSDOF 3
ENDMDL
MODEL 4
REMARK VINA RESULT:      -8.1      1.111      1.479
REMARK  Name = 
REMARK  3 active torsions:
REMARK  status: ('A' for Active; 'I' for Inactive)
REMARK    1  A    between atoms: C_2  and  C_3
REMARK    2  A    between atoms: C_15  and  N_16
REMARK    3  A    between atoms: N_16  and  C_17
REMARK                            x       y       z     vdW  Elec       q    Type
REMARK                         _______ _______ _______ _____ _____    ______ ____
ROOT
ATOM      1  O   UNL     1       4.517   2.577  17.757  0.00  0.00    +0.000 OA
ATOM      2  C   UNL     1       4.241   3.736  18.057  0.00  0.00    +0.000 C 
ATOM      3  N   UNL     1       3.186   4.042  18.918  0.00  0.00    +0.000 N 
ATOM      4  C   UNL     1       2.289   2.972  19.338  0.00  0.00    +0.000 C 
ATOM      5  C   UNL     1       0.888   3.517  19.613  0.00  0.00    +0.000 C 
ATOM      6  C   UNL     1       0.902   4.720  20.563  0.00  0.00    +0.000 C 
ATOM      7  C   UNL     1       1.874   5.806  20.074  0.00  0.00    +0.000 C 
ATOM      8  C   UNL     1       3.258   5.160  19.858  0.00  0.00    +0.000 C 
ENDROOT
BRANCH   2   9
ATOM      9  C   UNL     1       5.003   4.839  17.532  0.00  0.00    +0.000 A 
ATOM     10  N   UNL     1       4.604   5.552  16.418  0.00  0.00    +0.000 N 
ATOM     11  N   UNL     1       5.483   6.510  16.020  0.00  0.00    +0.000 NA
ATOM     12  C   UNL     1       6.397   6.450  16.973  0.00  0.00    +0.000 A 
ATOM     13  C   UNL     1       6.156   5.469  17.930  0.00  0.00    +0.000 A 
ATOM     14  C   UNL     1       7.201   5.453  18.971  0.00  0.00    +0.000 C 
ATOM     15  C   UNL     1       7.953   6.798  18.702  0.00  0.00    +0.000 C 
ATOM     16  C   UNL     1       7.639   7.207  17.224  0.00  0.00    +0.000 C 
ATOM     17  H   UNL     1       3.764   5.400  15.868  0.00  0.00    +0.000 HD
ENDBRANCH   2   9
BRANCH   7  18
ATOM     18  N   UNL     1       2.001   6.895  21.055  0.00  0.00    +0.000 N 
ATOM     19  H   UNL     1       2.967   7.064  21.333  0.00  0.00    +0.000 HD
BRANCH  18  20
ATOM     20  C   UNL     1       1.339   8.112  20.842  0.00  0.00    +0.000 A 
ATOM     21  C   UNL     1       1.413   8.705  19.569  0.00  0.00    +0.000 A 
ATOM     22  C   UNL     1       0.840   9.956  19.308  0.00  0.00    +0.000 A 
ATOM     23  C   UNL     1       0.210  10.653  20.333  0.00  0.00    +0.000 A 
ATOM     24  C   UNL     1       0.162  10.090  21.600  0.00  0.00    +0.000 A 
ATOM     25  F   UNL     1      -0.419  10.767  22.599  0.00  0.00    +0.000 F 
ATOM     26  C   UNL     1       0.718   8.840  21.859  0.00  0.00    +0.000 A 
ENDBRANCH  18  20
ENDBRANCH   7  18
TORSDOF 3
ENDMDL
MODEL 5
REMARK VINA RESULT:      -8.1      2.073      2.624
REMARK  Name = 
REMARK  3 active torsions:
REMARK  status: ('A' for Active; 'I' for Inactive)
REMARK    1  A    between atoms: C_2  and  C_3
REMARK    2  A    between atoms: C_15  and  N_16
REMARK    3  A    between atoms: N_16  and  C_17
REMARK                            x       y       z     vdW  Elec       q    Type
REMARK                         _______ _______ _______ _____ _____    ______ ____
ROOT
ATOM      1  O   UNL     1       4.979   2.359  19.879  0.00  0.00    +0.000 OA
ATOM      2  C   UNL     1       4.749   3.445  19.353  0.00  0.00    +0.000 C 
ATOM      3  N   UNL     1       3.639   4.213  19.707  0.00  0.00    +0.000 N 
ATOM      4  C   UNL     1       2.642   3.637  20.600  0.00  0.00    +0.000 C 
ATOM      5  C   UNL     1       1.259   4.219  20.314  0.00  0.00    +0.000 C 
ATOM      6  C   UNL     1       1.258   5.751  20.295  0.00  0.00    +0.000 C 
ATOM      7  C   UNL     1       2.338   6.299  19.347  0.00  0.00    +0.000 C 
ATOM      8  C   UNL     1       3.692   5.675  19.740  0.00  0.00    +0.000 C 
ENDROOT
BRANCH   2   9
ATOM      9  C   UNL     1       5.625   3.980  18.343  0.00  0.00    +0.000 A 
ATOM     10  N   UNL     1       6.930   4.346  18.613  0.00  0.00    +0.000 N 
ATOM     11  N   UNL     1       7.587   4.901  17.559  0.00  0.00    +0.000 NA
ATOM     12  C   UNL     1       6.694   4.779  16.591  0.00  0.00    +0.000 A 
ATOM     13  C   UNL     1       5.490   4.212  16.998  0.00  0.00    +0.000 A 
ATOM     14  C   UNL     1       4.537   4.094  15.877  0.00  0.00    +0.000 C 
ATOM     15  C   UNL     1       5.453   4.363  14.638  0.00  0.00    +0.000 C 
ATOM     16  C   UNL     1       6.709   5.137  15.160  0.00  0.00    +0.000 C 
ATOM     17  H   UNL     1       7.408   4.279  19.506  0.00  0.00    +0.000 HD
ENDBRANCH   2   9
BRANCH   7  18
ATOM     18  N   UNL     1       2.439   7.763  19.435  0.00  0.00    +0.000 N 
ATOM     19  H   UNL     1       2.614   8.201  18.531  0.00  0.00    +0.000 HD
BRANCH  18  20
ATOM     20  C   UNL     1       1.478   8.491  20.149  0.00  0.00    +0.000 A 
ATOM     21  C   UNL     1       0.656   9.390  19.447  0.00  0.00    +0.000 A 
ATOM     22  C   UNL     1      -0.273  10.204  20.108  0.00  0.00    +0.000 A 
ATOM     23  C   UNL     1      -0.368  10.156  21.493  0.00  0.00    +0.000 A 
ATOM     24  C   UNL     1       0.463   9.297  22.197  0.00  0.00    +0.000 A 
ATOM     25  F   UNL     1       0.396   9.265  23.534  0.00  0.00    +0.000 F 
ATOM     26  C   UNL     1       1.377   8.476  21.542  0.00  0.00    +0.000 A 
ENDBRANCH  18  20
ENDBRANCH   7  18
TORSDOF 3
ENDMDL
MODEL 6
REMARK VINA RESULT:      -7.8      1.422      1.736
REMARK  Name = 
REMARK  3 active torsions:
REMARK  status: ('A' for Active; 'I' for Inactive)
REMARK    1  A    between atoms: C_2  and  C_3
REMARK    2  A    between atoms: C_15  and  N_16
REMARK    3  A    between atoms: N_16  and  C_17
REMARK                            x       y       z     vdW  Elec       q    Type
REMARK                         _______ _______ _______ _____ _____    ______ ____
ROOT
ATOM      1  O   UNL     1       5.084   2.202  19.388  0.00  0.00    +0.000 OA
ATOM      2  C   UNL     1       4.682   3.363  19.388  0.00  0.00    +0.000 C 
ATOM      3  N   UNL     1       3.405   3.699  19.841  0.00  0.00    +0.000 N 
ATOM      4  C   UNL     1       2.470   2.629  20.163  0.00  0.00    +0.000 C 
ATOM      5  C   UNL     1       1.030   3.078  19.923  0.00  0.00    +0.000 C 
ATOM      6  C   UNL     1       0.707   4.409  20.612  0.00  0.00    +0.000 C 
ATOM      7  C   UNL     1       1.733   5.492  20.243  0.00  0.00    +0.000 C 
ATOM      8  C   UNL     1       3.144   4.951  20.552  0.00  0.00    +0.000 C 
ENDROOT
BRANCH   2   9
ATOM      9  C   UNL     1       5.520   4.438  18.922  0.00  0.00    +0.000 A 
ATOM     10  N   UNL     1       6.740   4.730  19.500  0.00  0.00    +0.000 N 
ATOM     11  N   UNL     1       7.360   5.823  18.981  0.00  0.00    +0.000 NA
ATOM     12  C   UNL     1       6.547   6.149  17.990  0.00  0.00    +0.000 A 
ATOM     13  C   UNL     1       5.421   5.338  17.891  0.00  0.00    +0.000 A 
ATOM     14  C   UNL     1       4.555   5.742  16.766  0.00  0.00    +0.000 C 
ATOM     15  C   UNL     1       5.483   6.719  15.972  0.00  0.00    +0.000 C 
ATOM     16  C   UNL     1       6.582   7.215  16.971  0.00  0.00    +0.000 C 
ATOM     17  H   UNL     1       7.176   4.244  20.278  0.00  0.00    +0.000 HD
ENDBRANCH   2   9
BRANCH   7  18
ATOM     18  N   UNL     1       1.514   6.726  21.013  0.00  0.00    +0.000 N 
ATOM     19  H   UNL     1       2.120   6.793  21.830  0.00  0.00    +0.000 HD
BRANCH  18  20
ATOM     20  C   UNL     1       1.450   7.962  20.354  0.00  0.00    +0.000 A 
ATOM     21  C   UNL     1       0.785   9.028  20.986  0.00  0.00    +0.000 A 
ATOM     22  C   UNL     1       0.618  10.266  20.353  0.00  0.00    +0.000 A 
ATOM     23  C   UNL     1       1.087  10.446  19.056  0.00  0.00    +0.000 A 
ATOM     24  C   UNL     1       1.713   9.389  18.413  0.00  0.00    +0.000 A 
ATOM     25  F   UNL     1       2.143   9.546  17.155  0.00  0.00    +0.000 F 
ATOM     26  C   UNL     1       1.894   8.161  19.045  0.00  0.00    +0.000 A 
ENDBRANCH  18  20
ENDBRANCH   7  18
TORSDOF 3
ENDMDL
MODEL 7
REMARK VINA RESULT:      -7.7      1.932      2.433
REMARK  Name = 
REMARK  3 active torsions:
REMARK  status: ('A' for Active; 'I' for Inactive)
REMARK    1  A    between atoms: C_2  and  C_3
REMARK    2  A    between atoms: C_15  and  N_16
REMARK    3  A    between atoms: N_16  and  C_17
REMARK                            x       y       z     vdW  Elec       q    Type
REMARK                         _______ _______ _______ _____ _____    ______ ____
ROOT
ATOM      1  O   UNL     1       5.158   2.664  19.900  0.00  0.00    +0.000 OA
ATOM      2  C   UNL     1       4.949   3.661  19.212  0.00  0.00    +0.000 C 
ATOM      3  N   UNL     1       3.845   4.486  19.430  0.00  0.00    +0.000 N 
ATOM      4  C   UNL     1       2.829   4.063  20.386  0.00  0.00    +0.000 C 
ATOM      5  C   UNL     1       1.457   4.610  19.995  0.00  0.00    +0.000 C 
ATOM      6  C   UNL     1       1.477   6.122  19.744  0.00  0.00    +0.000 C 
ATOM      7  C   UNL     1       2.576   6.507  18.739  0.00  0.00    +0.000 C 
ATOM      8  C   UNL     1       3.917   5.935  19.242  0.00  0.00    +0.000 C 
ENDROOT
BRANCH   2   9
ATOM      9  C   UNL     1       5.845   4.026  18.146  0.00  0.00    +0.000 A 
ATOM     10  N   UNL     1       7.202   4.197  18.344  0.00  0.00    +0.000 N 
ATOM     11  N   UNL     1       7.881   4.615  17.242  0.00  0.00    +0.000 NA
ATOM     12  C   UNL     1       6.934   4.602  16.320  0.00  0.00    +0.000 A 
ATOM     13  C   UNL     1       5.680   4.237  16.800  0.00  0.00    +0.000 A 
ATOM     14  C   UNL     1       4.666   4.232  15.728  0.00  0.00    +0.000 C 
ATOM     15  C   UNL     1       5.550   4.322  14.440  0.00  0.00    +0.000 C 
ATOM     16  C   UNL     1       6.932   4.911  14.877  0.00  0.00    +0.000 C 
ATOM     17  H   UNL     1       7.707   4.084  19.217  0.00  0.00    +0.000 HD
ENDBRANCH   2   9
BRANCH   7  18
ATOM     18  N   UNL     1       2.696   7.966  18.607  0.00  0.00    +0.000 N 
ATOM     19  H   UNL     1       3.078   8.250  17.704  0.00  0.00    +0.000 HD
BRANCH  18  20
ATOM     20  C   UNL     1       1.621   8.794  18.959  0.00  0.00    +0.000 A 
ATOM     21  C   UNL     1       1.280   8.912  20.318  0.00  0.00    +0.000 A 
ATOM     22  C   UNL     1       0.171   9.660  20.733  0.00  0.00    +0.000 A 
ATOM     23  C   UNL     1      -0.638  10.277  19.786  0.00  0.00    +0.000 A 
ATOM     24  C   UNL     1      -0.329  10.136  18.442  0.00  0.00    +0.000 A 
ATOM     25  F   UNL     1      -1.119  10.705  17.521  0.00  0.00    +0.000 F 
ATOM     26  C   UNL     1       0.781   9.405  18.026  0.00  0.00    +0.000 A 
ENDBRANCH  18  20
ENDBRANCH   7  18
TORSDOF 3
ENDMDL
MODEL 8
REMARK VINA RESULT:      -7.6      1.458      1.854
REMARK  Name = 
REMARK  3 active torsions:
REMARK  status: ('A' for Active; 'I' for Inactive)
REMARK    1  A    between atoms: C_2  and  C_3
REMARK    2  A    between atoms: C_15  and  N_16
REMARK    3  A    between atoms: N_16  and  C_17
REMARK                            x       y       z     vdW  Elec       q    Type
REMARK                         _______ _______ _______ _____ _____    ______ ____
ROOT
ATOM      1  O   UNL     1       4.722   1.932  19.606  0.00  0.00    +0.000 OA
ATOM      2  C   UNL     1       4.482   3.084  19.253  0.00  0.00    +0.000 C 
ATOM      3  N   UNL     1       3.476   3.843  19.854  0.00  0.00    +0.000 N 
ATOM      4  C   UNL     1       2.582   3.197  20.806  0.00  0.00    +0.000 C 
ATOM      5  C   UNL     1       1.207   3.862  20.795  0.00  0.00    +0.000 C 
ATOM      6  C   UNL     1       1.289   5.384  20.960  0.00  0.00    +0.000 C 
ATOM      7  C   UNL     1       2.255   6.005  19.938  0.00  0.00    +0.000 C 
ATOM      8  C   UNL     1       3.615   5.285  20.054  0.00  0.00    +0.000 C 
ENDROOT
BRANCH   2   9
ATOM      9  C   UNL     1       5.238   3.709  18.199  0.00  0.00    +0.000 A 
ATOM     10  N   UNL     1       5.070   3.373  16.869  0.00  0.00    +0.000 N 
ATOM     11  N   UNL     1       5.920   4.008  16.018  0.00  0.00    +0.000 NA
ATOM     12  C   UNL     1       6.556   4.830  16.836  0.00  0.00    +0.000 A 
ATOM     13  C   UNL     1       6.176   4.709  18.170  0.00  0.00    +0.000 A 
ATOM     14  C   UNL     1       6.911   5.653  19.034  0.00  0.00    +0.000 C 
ATOM     15  C   UNL     1       7.565   6.615  17.987  0.00  0.00    +0.000 C 
ATOM     16  C   UNL     1       7.605   5.845  16.625  0.00  0.00    +0.000 C 
ATOM     17  H   UNL     1       4.422   2.688  16.492  0.00  0.00    +0.000 HD
ENDBRANCH   2   9
BRANCH   7  18
ATOM     18  N   UNL     1       2.450   7.441  20.186  0.00  0.00    +0.000 N 
ATOM     19  H   UNL     1       3.396   7.753  19.971  0.00  0.00    +0.000 HD
BRANCH  18  20
ATOM     20  C   UNL     1       1.514   8.369  19.708  0.00  0.00    +0.000 A 
ATOM     21  C   UNL     1       1.540   8.710  18.344  0.00  0.00    +0.000 A 
ATOM     22  C   UNL     1       0.685   9.685  17.815  0.00  0.00    +0.000 A 
ATOM     23  C   UNL     1      -0.190  10.363  18.656  0.00  0.00    +0.000 A 
ATOM     24  C   UNL     1      -0.198  10.058  20.009  0.00  0.00    +0.000 A 
ATOM     25  F   UNL     1      -1.019  10.726  20.830  0.00  0.00    +0.000 F 
ATOM     26  C   UNL     1       0.641   9.078  20.536  0.00  0.00    +0.000 A 
ENDBRANCH  18  20
ENDBRANCH   7  18
TORSDOF 3
ENDMDL
MODEL 9
REMARK VINA RESULT:      -7.5      1.784      2.111
REMARK  Name = 
REMARK  3 active torsions:
REMARK  status: ('A' for Active; 'I' for Inactive)
REMARK    1  A    between atoms: C_2  and  C_3
REMARK    2  A    between atoms: C_15  and  N_16
REMARK    3  A    between atoms: N_16  and  C_17
REMARK                            x       y       z     vdW  Elec       q    Type
REMARK                         _______ _______ _______ _____ _____    ______ ____
ROOT
ATOM      1  O   UNL     1       4.827   2.327  19.877  0.00  0.00    +0.000 OA
ATOM      2  C   UNL     1       4.509   3.382  19.332  0.00  0.00    +0.000 C 
ATOM      3  N   UNL     1       3.466   4.174  19.814  0.00  0.00    +0.000 N 
ATOM      4  C   UNL     1       2.628   3.655  20.888  0.00  0.00    +0.000 C 
ATOM      5  C   UNL     1       1.214   4.224  20.795  0.00  0.00    +0.000 C 
ATOM      6  C   UNL     1       1.202   5.753  20.686  0.00  0.00    +0.000 C 
ATOM      7  C   UNL     1       2.112   6.239  19.546  0.00  0.00    +0.000 C 
ATOM      8  C   UNL     1       3.516   5.634  19.753  0.00  0.00    +0.000 C 
ENDROOT
BRANCH   2   9
ATOM      9  C   UNL     1       5.208   3.852  18.164  0.00  0.00    +0.000 A 
ATOM     10  N   UNL     1       4.968   3.344  16.902  0.00  0.00    +0.000 N 
ATOM     11  N   UNL     1       5.772   3.852  15.930  0.00  0.00    +0.000 NA
ATOM     12  C   UNL     1       6.454   4.768  16.596  0.00  0.00    +0.000 A 
ATOM     13  C   UNL     1       6.147   4.830  17.952  0.00  0.00    +0.000 A 
ATOM     14  C   UNL     1       6.931   5.873  18.642  0.00  0.00    +0.000 C 
ATOM     15  C   UNL     1       7.530   6.680  17.443  0.00  0.00    +0.000 C 
ATOM     16  C   UNL     1       7.494   5.736  16.195  0.00  0.00    +0.000 C 
ATOM     17  H   UNL     1       4.298   2.622  16.655  0.00  0.00    +0.000 HD
ENDBRANCH   2   9
BRANCH   7  18
ATOM     18  N   UNL     1       2.218   7.706  19.531  0.00  0.00    +0.000 N 
ATOM     19  H   UNL     1       2.291   8.086  18.588  0.00  0.00    +0.000 HD
BRANCH  18  20
ATOM     20  C   UNL     1       1.338   8.481  20.299  0.00  0.00    +0.000 A 
ATOM     21  C   UNL     1       0.466   9.363  19.638  0.00  0.00    +0.000 A 
ATOM     22  C   UNL     1      -0.385  10.221  20.346  0.00  0.00    +0.000 A 
ATOM     23  C   UNL     1      -0.349  10.235  21.735  0.00  0.00    +0.000 A 
ATOM     24  C   UNL     1       0.534   9.393  22.395  0.00  0.00    +0.000 A 
ATOM     25  F   UNL     1       0.593   9.419  23.733  0.00  0.00    +0.000 F 
ATOM     26  C   UNL     1       1.370   8.527  21.695  0.00  0.00    +0.000 A 
ENDBRANCH  18  20
ENDBRANCH   7  18
TORSDOF 3
ENDMDL
