MODEL 1
REMARK VINA RESULT:      -8.0      0.000      0.000
REMARK  Name = 
REMARK  10 active torsions:
REMARK  status: ('A' for Active; 'I' for Inactive)
REMARK    1  A    between atoms: C_1  and  C_2
REMARK    2  A    between atoms: C_5  and  N_6
REMARK    3  A    between atoms: C_7  and  C_9
REMARK    4  A    between atoms: N_13  and  C_14
REMARK    5  A    between atoms: C_14  and  C_15
REMARK    6  A    between atoms: C_14  and  C_16
REMARK    7  A    between atoms: C_14  and  C_17
REMARK    8  A    between atoms: C_17  and  O_18
REMARK    9  A    between atoms: C_20  and  N_21
REMARK   10  A    between atoms: C_30  and  C_31
REMARK                            x       y       z     vdW  Elec       q    Type
REMARK                         _______ _______ _______ _____ _____    ______ ____
ROOT
ATOM      1  C   UNL     1      -0.040  11.121  21.632  0.00  0.00    +0.000 A 
ATOM      2  C   UNL     1      -0.966  10.694  22.592  0.00  0.00    +0.000 A 
ATOM      3  C   UNL     1      -1.769  11.624  23.221  0.00  0.00    +0.000 A 
ATOM      4  C   UNL     1      -1.644  12.962  22.887  0.00  0.00    +0.000 A 
ATOM      5  N   UNL     1      -2.537  13.831  23.504  0.00  0.00    +0.000 N 
ATOM      6  N   UNL     1      -0.783  13.374  21.934  0.00  0.00    +0.000 NA
ATOM      7  C   UNL     1       0.028  12.486  21.285  0.00  0.00    +0.000 A 
ATOM      8  H   UNL     1      -2.486  13.730  24.516  0.00  0.00    +0.000 HD
ENDROOT
BRANCH   7   9
ATOM      9  N   UNL     1       0.861  13.011  20.311  0.00  0.00    +0.000 N 
ATOM     10  C   UNL     1       0.393  13.408  18.978  0.00  0.00    +0.000 C 
ATOM     11  C   UNL     1       0.419  14.933  18.837  0.00  0.00    +0.000 C 
ATOM     12  C   UNL     1       1.784  15.497  19.164  0.00  0.00    +0.000 C 
ATOM     13  C   UNL     1       2.322  15.014  20.501  0.00  0.00    +0.000 C 
ATOM     14  C   UNL     1       2.208  13.488  20.651  0.00  0.00    +0.000 C 
ATOM     15  C   UNL     1       2.746  15.808  18.037  0.00  0.00    +0.000 C 
ATOM     16  C   UNL     1       2.052  16.930  18.762  0.00  0.00    +0.000 C 
ENDBRANCH   7   9
BRANCH   1  18
ATOM     17  N   UNL     1       0.940   9.747  19.869  0.00  0.00    +0.000 N 
ATOM     18  C   UNL     1       0.970  10.110  21.216  0.00  0.00    +0.000 C 
ATOM     19  O   UNL     1       1.704   9.645  22.075  0.00  0.00    +0.000 OA
ATOM     20  H   UNL     1       0.373  10.301  19.240  0.00  0.00    +0.000 HD
BRANCH  17  25
ATOM     21  C   UNL     1       3.774   5.373  17.458  0.00  0.00    +0.000 C 
ATOM     22  C   UNL     1       3.019   6.454  18.187  0.00  0.00    +0.000 A 
ATOM     23  C   UNL     1       3.194   7.754  17.681  0.00  0.00    +0.000 A 
ATOM     24  C   UNL     1       2.523   8.840  18.223  0.00  0.00    +0.000 A 
ATOM     25  C   UNL     1       1.659   8.673  19.295  0.00  0.00    +0.000 A 
ATOM     26  C   UNL     1       1.518   7.386  19.845  0.00  0.00    +0.000 A 
ATOM     27  C   UNL     1       2.181   6.242  19.314  0.00  0.00    +0.000 A 
BRANCH  27  28
ATOM     28  C   UNL     1       1.953   4.903  19.946  0.00  0.00    +0.000 A 
ATOM     29  C   UNL     1       2.429   4.606  21.235  0.00  0.00    +0.000 A 
ATOM     30  C   UNL     1       2.198   3.351  21.790  0.00  0.00    +0.000 A 
ATOM     31  N   UNL     1       1.505   2.374  21.179  0.00  0.00    +0.000 NA
ATOM     32  C   UNL     1       1.051   2.655  19.944  0.00  0.00    +0.000 A 
ATOM     33  C   UNL     1       1.277   3.862  19.294  0.00  0.00    +0.000 A 
ENDBRANCH  27  28
ENDBRANCH  17  25
ENDBRANCH   1  18
BRANCH   5  34
ATOM     34  C   UNL     1      -2.763  15.224  23.076  0.00  0.00    +0.000 C 
ATOM     35  C   UNL     1      -3.627  15.844  24.200  0.00  0.00    +0.000 C 
ATOM     36  C   UNL     1      -1.454  16.013  22.975  0.00  0.00    +0.000 C 
BRANCH  34  37
ATOM     37  C   UNL     1      -3.558  15.298  21.747  0.00  0.00    +0.000 C 
BRANCH  37  38
ATOM     38  O   UNL     1      -2.676  15.372  20.622  0.00  0.00    +0.000 OA
ATOM     39  H   UNL     1      -1.944  14.767  20.852  0.00  0.00    +0.000 HD
ENDBRANCH  37  38
ENDBRANCH  34  37
ENDBRANCH   5  34
TORSDOF 7
ENDMDL
MODEL 2
REMARK VINA RESULT:      -7.9      2.943      4.412
REMARK  Name = 
REMARK  10 active torsions:
REMARK  status: ('A' for Active; 'I' for Inactive)
REMARK    1  A    between atoms: C_1  and  C_2
REMARK    2  A    between atoms: C_5  and  N_6
REMARK    3  A    between atoms: C_7  and  C_9
REMARK    4  A    between atoms: N_13  and  C_14
REMARK    5  A    between atoms: C_14  and  C_15
REMARK    6  A    between atoms: C_14  and  C_16
REMARK    7  A    between atoms: C_14  and  C_17
REMARK    8  A    between atoms: C_17  and  O_18
REMARK    9  A    between atoms: C_20  and  N_21
REMARK   10  A    between atoms: C_30  and  C_31
REMARK                            x       y       z     vdW  Elec       q    Type
REMARK                         _______ _______ _______ _____ _____    ______ ____
ROOT
ATOM      1  C   UNL     1       0.182   9.272  21.096  0.00  0.00    +0.000 A 
ATOM      2  C   UNL     1       0.290   9.268  22.492  0.00  0.00    +0.000 A 
ATOM      3  C   UNL     1      -0.261  10.305  23.218  0.00  0.00    +0.000 A 
ATOM      4  C   UNL     1      -0.914  11.327  22.551  0.00  0.00    +0.000 A 
ATOM      5  N   UNL     1      -1.509  12.295  23.351  0.00  0.00    +0.000 N 
ATOM      6  N   UNL     1      -1.057  11.315  21.210  0.00  0.00    +0.000 NA
ATOM      7  C   UNL     1      -0.529  10.307  20.453  0.00  0.00    +0.000 A 
ATOM      8  H   UNL     1      -0.825  12.694  23.991  0.00  0.00    +0.000 HD
ENDROOT
BRANCH   7   9
ATOM      9  N   UNL     1      -0.750  10.381  19.088  0.00  0.00    +0.000 N 
ATOM     10  C   UNL     1      -1.358   9.296  18.309  0.00  0.00    +0.000 C 
ATOM     11  C   UNL     1      -2.767   9.692  17.856  0.00  0.00    +0.000 C 
ATOM     12  C   UNL     1      -2.760  11.008  17.110  0.00  0.00    +0.000 C 
ATOM     13  C   UNL     1      -2.046  12.116  17.865  0.00  0.00    +0.000 C 
ATOM     14  C   UNL     1      -0.669  11.667  18.382  0.00  0.00    +0.000 C 
ATOM     15  C   UNL     1      -2.743  11.001  15.596  0.00  0.00    +0.000 C 
ATOM     16  C   UNL     1      -4.006  11.363  16.329  0.00  0.00    +0.000 C 
ENDBRANCH   7   9
BRANCH   1  18
ATOM     17  N   UNL     1       0.940   6.969  20.826  0.00  0.00    +0.000 N 
ATOM     18  C   UNL     1       1.036   8.287  20.379  0.00  0.00    +0.000 C 
ATOM     19  O   UNL     1       1.782   8.702  19.505  0.00  0.00    +0.000 OA
ATOM     20  H   UNL     1       0.191   6.737  21.467  0.00  0.00    +0.000 HD
BRANCH  17  25
ATOM     21  C   UNL     1       4.460   2.676  19.357  0.00  0.00    +0.000 C 
ATOM     22  C   UNL     1       3.581   3.864  19.653  0.00  0.00    +0.000 A 
ATOM     23  C   UNL     1       2.432   3.585  20.413  0.00  0.00    +0.000 A 
ATOM     24  C   UNL     1       1.558   4.591  20.800  0.00  0.00    +0.000 A 
ATOM     25  C   UNL     1       1.793   5.909  20.439  0.00  0.00    +0.000 A 
ATOM     26  C   UNL     1       2.910   6.192  19.634  0.00  0.00    +0.000 A 
ATOM     27  C   UNL     1       3.838   5.192  19.220  0.00  0.00    +0.000 A 
BRANCH  27  28
ATOM     28  C   UNL     1       5.016   5.586  18.384  0.00  0.00    +0.000 A 
ATOM     29  C   UNL     1       6.319   5.615  18.912  0.00  0.00    +0.000 A 
ATOM     30  C   UNL     1       7.390   5.986  18.105  0.00  0.00    +0.000 A 
ATOM     31  N   UNL     1       7.275   6.303  16.803  0.00  0.00    +0.000 NA
ATOM     32  C   UNL     1       6.030   6.279  16.295  0.00  0.00    +0.000 A 
ATOM     33  C   UNL     1       4.898   5.968  17.039  0.00  0.00    +0.000 A 
ENDBRANCH  27  28
ENDBRANCH  17  25
ENDBRANCH   1  18
BRANCH   5  34
ATOM     34  C   UNL     1      -2.482  13.288  22.860  0.00  0.00    +0.000 C 
ATOM     35  C   UNL     1      -2.791  14.176  24.088  0.00  0.00    +0.000 C 
ATOM     36  C   UNL     1      -1.894  14.171  21.754  0.00  0.00    +0.000 C 
BRANCH  34  37
ATOM     37  C   UNL     1      -3.801  12.621  22.392  0.00  0.00    +0.000 C 
BRANCH  37  38
ATOM     38  O   UNL     1      -4.602  12.221  23.510  0.00  0.00    +0.000 OA
ATOM     39  H   UNL     1      -4.485  11.253  23.554  0.00  0.00    +0.000 HD
ENDBRANCH  37  38
ENDBRANCH  34  37
ENDBRANCH   5  34
TORSDOF 7
ENDMDL
MODEL 3
REMARK VINA RESULT:      -7.9      0.402      1.154
REMARK  Name = 
REMARK  10 active torsions:
REMARK  status: ('A' for Active; 'I' for Inactive)
REMARK    1  A    between atoms: C_1  and  C_2
REMARK    2  A    between atoms: C_5  and  N_6
REMARK    3  A    between atoms: C_7  and  C_9
REMARK    4  A    between atoms: N_13  and  C_14
REMARK    5  A    between atoms: C_14  and  C_15
REMARK    6  A    between atoms: C_14  and  C_16
REMARK    7  A    between atoms: C_14  and  C_17
REMARK    8  A    between atoms: C_17  and  O_18
REMARK    9  A    between atoms: C_20  and  N_21
REMARK   10  A    between atoms: C_30  and  C_31
REMARK                            x       y       z     vdW  Elec       q    Type
REMARK                         _______ _______ _______ _____ _____    ______ ____
ROOT
ATOM      1  C   UNL     1      -0.050  11.113  21.697  0.00  0.00    +0.000 A 
ATOM      2  C   UNL     1      -0.985  10.666  22.638  0.00  0.00    +0.000 A 
ATOM      3  C   UNL     1      -1.789  11.584  23.284  0.00  0.00    +0.000 A 
ATOM      4  C   UNL     1      -1.657  12.929  22.985  0.00  0.00    +0.000 A 
ATOM      5  N   UNL     1      -2.551  13.785  23.617  0.00  0.00    +0.000 N 
ATOM      6  N   UNL     1      -0.786  13.361  22.050  0.00  0.00    +0.000 NA
ATOM      7  C   UNL     1       0.027  12.487  21.385  0.00  0.00    +0.000 A 
ATOM      8  H   UNL     1      -2.508  13.659  24.626  0.00  0.00    +0.000 HD
ENDROOT
BRANCH   7   9
ATOM      9  N   UNL     1       0.870  13.033  20.431  0.00  0.00    +0.000 N 
ATOM     10  C   UNL     1       0.443  13.345  19.062  0.00  0.00    +0.000 C 
ATOM     11  C   UNL     1       0.371  14.862  18.861  0.00  0.00    +0.000 C 
ATOM     12  C   UNL     1       1.676  15.533  19.230  0.00  0.00    +0.000 C 
ATOM     13  C   UNL     1       2.178  15.140  20.609  0.00  0.00    +0.000 C 
ATOM     14  C   UNL     1       2.162  13.616  20.816  0.00  0.00    +0.000 C 
ATOM     15  C   UNL     1       2.670  15.870  18.138  0.00  0.00    +0.000 C 
ATOM     16  C   UNL     1       1.864  16.966  18.782  0.00  0.00    +0.000 C 
ENDBRANCH   7   9
BRANCH   1  18
ATOM     17  N   UNL     1       0.918   9.756  19.914  0.00  0.00    +0.000 N 
ATOM     18  C   UNL     1       0.960  10.109  21.263  0.00  0.00    +0.000 C 
ATOM     19  O   UNL     1       1.703   9.639  22.112  0.00  0.00    +0.000 OA
ATOM     20  H   UNL     1       0.343  10.313  19.294  0.00  0.00    +0.000 HD
BRANCH  17  25
ATOM     21  C   UNL     1       3.742   5.410  17.442  0.00  0.00    +0.000 C 
ATOM     22  C   UNL     1       2.992   6.484  18.188  0.00  0.00    +0.000 A 
ATOM     23  C   UNL     1       3.154   7.787  17.686  0.00  0.00    +0.000 A 
ATOM     24  C   UNL     1       2.484   8.866  18.243  0.00  0.00    +0.000 A 
ATOM     25  C   UNL     1       1.635   8.689  19.325  0.00  0.00    +0.000 A 
ATOM     26  C   UNL     1       1.507   7.399  19.869  0.00  0.00    +0.000 A 
ATOM     27  C   UNL     1       2.169   6.260  19.323  0.00  0.00    +0.000 A 
BRANCH  27  28
ATOM     28  C   UNL     1       1.955   4.917  19.950  0.00  0.00    +0.000 A 
ATOM     29  C   UNL     1       1.270   3.890  19.277  0.00  0.00    +0.000 A 
ATOM     30  C   UNL     1       1.091   2.654  19.891  0.00  0.00    +0.000 A 
ATOM     31  N   UNL     1       1.565   2.345  21.111  0.00  0.00    +0.000 NA
ATOM     32  C   UNL     1       2.217   3.327  21.759  0.00  0.00    +0.000 A 
ATOM     33  C   UNL     1       2.400   4.604  21.243  0.00  0.00    +0.000 A 
ENDBRANCH  27  28
ENDBRANCH  17  25
ENDBRANCH   1  18
BRANCH   5  34
ATOM     34  C   UNL     1      -2.768  15.189  23.223  0.00  0.00    +0.000 C 
ATOM     35  C   UNL     1      -3.284  15.114  21.767  0.00  0.00    +0.000 C 
ATOM     36  C   UNL     1      -3.836  15.869  24.085  0.00  0.00    +0.000 C 
BRANCH  34  37
ATOM     37  C   UNL     1      -1.448  16.003  23.234  0.00  0.00    +0.000 C 
BRANCH  37  38
ATOM     38  O   UNL     1      -0.999  16.276  21.902  0.00  0.00    +0.000 OA
ATOM     39  H   UNL     1      -1.499  17.072  21.640  0.00  0.00    +0.000 HD
ENDBRANCH  37  38
ENDBRANCH  34  37
ENDBRANCH   5  34
TORSDOF 7
ENDMDL
MODEL 4
REMARK VINA RESULT:      -7.7      2.162      4.799
REMARK  Name = 
REMARK  10 active torsions:
REMARK  status: ('A' for Active; 'I' for Inactive)
REMARK    1  A    between atoms: C_1  and  C_2
REMARK    2  A    between atoms: C_5  and  N_6
REMARK    3  A    between atoms: C_7  and  C_9
REMARK    4  A    between atoms: N_13  and  C_14
REMARK    5  A    between atoms: C_14  and  C_15
REMARK    6  A    between atoms: C_14  and  C_16
REMARK    7  A    between atoms: C_14  and  C_17
REMARK    8  A    between atoms: C_17  and  O_18
REMARK    9  A    between atoms: C_20  and  N_21
REMARK   10  A    between atoms: C_30  and  C_31
REMARK                            x       y       z     vdW  Elec       q    Type
REMARK                         _______ _______ _______ _____ _____    ______ ____
ROOT
ATOM      1  C   UNL     1       1.261  11.434  19.067  0.00  0.00    +0.000 A 
ATOM      2  C   UNL     1       2.274  11.963  18.257  0.00  0.00    +0.000 A 
ATOM      3  C   UNL     1       2.334  13.326  18.051  0.00  0.00    +0.000 A 
ATOM      4  C   UNL     1       1.394  14.145  18.653  0.00  0.00    +0.000 A 
ATOM      5  N   UNL     1       1.563  15.511  18.463  0.00  0.00    +0.000 N 
ATOM      6  N   UNL     1       0.441  13.645  19.466  0.00  0.00    +0.000 NA
ATOM      7  C   UNL     1       0.347  12.301  19.699  0.00  0.00    +0.000 A 
ATOM      8  H   UNL     1       1.611  15.727  17.470  0.00  0.00    +0.000 HD
ENDROOT
BRANCH   7   9
ATOM      9  N   UNL     1      -0.655  11.895  20.565  0.00  0.00    +0.000 N 
ATOM     10  C   UNL     1      -0.409  11.512  21.960  0.00  0.00    +0.000 C 
ATOM     11  C   UNL     1      -0.975  12.573  22.910  0.00  0.00    +0.000 C 
ATOM     12  C   UNL     1      -2.438  12.842  22.632  0.00  0.00    +0.000 C 
ATOM     13  C   UNL     1      -2.719  13.144  21.170  0.00  0.00    +0.000 C 
ATOM     14  C   UNL     1      -2.070  12.112  20.233  0.00  0.00    +0.000 C 
ATOM     15  C   UNL     1      -3.491  12.150  23.471  0.00  0.00    +0.000 C 
ATOM     16  C   UNL     1      -3.208  13.613  23.682  0.00  0.00    +0.000 C 
ENDBRANCH   7   9
BRANCH   1  18
ATOM     17  N   UNL     1       1.753   9.234  20.003  0.00  0.00    +0.000 N 
ATOM     18  C   UNL     1       1.093   9.956  19.007  0.00  0.00    +0.000 C 
ATOM     19  O   UNL     1       0.447   9.489  18.082  0.00  0.00    +0.000 OA
ATOM     20  H   UNL     1       2.144   9.748  20.782  0.00  0.00    +0.000 HD
BRANCH  17  25
ATOM     21  C   UNL     1       2.433   3.536  20.210  0.00  0.00    +0.000 C 
ATOM     22  C   UNL     1       2.310   5.030  20.052  0.00  0.00    +0.000 A 
ATOM     23  C   UNL     1       1.297   5.633  20.817  0.00  0.00    +0.000 A 
ATOM     24  C   UNL     1       1.102   7.006  20.807  0.00  0.00    +0.000 A 
ATOM     25  C   UNL     1       1.903   7.828  20.030  0.00  0.00    +0.000 A 
ATOM     26  C   UNL     1       2.885   7.231  19.220  0.00  0.00    +0.000 A 
ATOM     27  C   UNL     1       3.126   5.826  19.205  0.00  0.00    +0.000 A 
BRANCH  27  28
ATOM     28  C   UNL     1       4.210   5.277  18.330  0.00  0.00    +0.000 A 
ATOM     29  C   UNL     1       3.934   4.753  17.055  0.00  0.00    +0.000 A 
ATOM     30  C   UNL     1       4.968   4.251  16.270  0.00  0.00    +0.000 A 
ATOM     31  N   UNL     1       6.261   4.255  16.637  0.00  0.00    +0.000 NA
ATOM     32  C   UNL     1       6.528   4.753  17.859  0.00  0.00    +0.000 A 
ATOM     33  C   UNL     1       5.554   5.229  18.728  0.00  0.00    +0.000 A 
ENDBRANCH  27  28
ENDBRANCH  17  25
ENDBRANCH   1  18
BRANCH   5  34
ATOM     34  C   UNL     1       0.859  16.546  19.242  0.00  0.00    +0.000 C 
ATOM     35  C   UNL     1       1.507  17.880  18.800  0.00  0.00    +0.000 C 
ATOM     36  C   UNL     1      -0.636  16.597  18.911  0.00  0.00    +0.000 C 
BRANCH  34  37
ATOM     37  C   UNL     1       1.083  16.374  20.767  0.00  0.00    +0.000 C 
BRANCH  37  38
ATOM     38  O   UNL     1      -0.077  15.822  21.399  0.00  0.00    +0.000 OA
ATOM     39  H   UNL     1      -0.815  16.366  21.061  0.00  0.00    +0.000 HD
ENDBRANCH  37  38
ENDBRANCH  34  37
ENDBRANCH   5  34
TORSDOF 7
ENDMDL
MODEL 5
REMARK VINA RESULT:      -7.6      1.756      2.841
REMARK  Name = 
REMARK  10 active torsions:
REMARK  status: ('A' for Active; 'I' for Inactive)
REMARK    1  A    between atoms: C_1  and  C_2
REMARK    2  A    between atoms: C_5  and  N_6
REMARK    3  A    between atoms: C_7  and  C_9
REMARK    4  A    between atoms: N_13  and  C_14
REMARK    5  A    between atoms: C_14  and  C_15
REMARK    6  A    between atoms: C_14  and  C_16
REMARK    7  A    between atoms: C_14  and  C_17
REMARK    8  A    between atoms: C_17  and  O_18
REMARK    9  A    between atoms: C_20  and  N_21
REMARK   10  A    between atoms: C_30  and  C_31
REMARK                            x       y       z     vdW  Elec       q    Type
REMARK                         _______ _______ _______ _____ _____    ______ ____
ROOT
ATOM      1  C   UNL     1       0.156  10.661  21.849  0.00  0.00    +0.000 A 
ATOM      2  C   UNL     1      -0.951  10.435  22.677  0.00  0.00    +0.000 A 
ATOM      3  C   UNL     1      -1.736  11.501  23.067  0.00  0.00    +0.000 A 
ATOM      4  C   UNL     1      -1.416  12.774  22.627  0.00  0.00    +0.000 A 
ATOM      5  N   UNL     1      -2.295  13.786  22.996  0.00  0.00    +0.000 N 
ATOM      6  N   UNL     1      -0.376  12.992  21.797  0.00  0.00    +0.000 NA
ATOM      7  C   UNL     1       0.426  11.965  21.385  0.00  0.00    +0.000 A 
ATOM      8  H   UNL     1      -2.414  13.799  24.007  0.00  0.00    +0.000 HD
ENDROOT
BRANCH   7   9
ATOM      9  N   UNL     1       1.454  12.296  20.518  0.00  0.00    +0.000 N 
ATOM     10  C   UNL     1       1.350  12.169  19.059  0.00  0.00    +0.000 C 
ATOM     11  C   UNL     1       1.289  13.554  18.409  0.00  0.00    +0.000 C 
ATOM     12  C   UNL     1       2.455  14.419  18.835  0.00  0.00    +0.000 C 
ATOM     13  C   UNL     1       2.631  14.479  20.342  0.00  0.00    +0.000 C 
ATOM     14  C   UNL     1       2.606  13.080  20.982  0.00  0.00    +0.000 C 
ATOM     15  C   UNL     1       3.667  14.525  17.934  0.00  0.00    +0.000 C 
ATOM     16  C   UNL     1       2.707  15.679  18.036  0.00  0.00    +0.000 C 
ENDBRANCH   7   9
BRANCH   1  18
ATOM     17  N   UNL     1       0.929   8.728  20.577  0.00  0.00    +0.000 N 
ATOM     18  C   UNL     1       1.102   9.521  21.712  0.00  0.00    +0.000 C 
ATOM     19  O   UNL     1       1.912   9.336  22.608  0.00  0.00    +0.000 OA
ATOM     20  H   UNL     1       0.310   9.065  19.851  0.00  0.00    +0.000 HD
BRANCH  17  25
ATOM     21  C   UNL     1       3.599   3.719  19.704  0.00  0.00    +0.000 C 
ATOM     22  C   UNL     1       2.939   5.068  19.828  0.00  0.00    +0.000 A 
ATOM     23  C   UNL     1       1.871   5.132  20.739  0.00  0.00    +0.000 A 
ATOM     24  C   UNL     1       1.203   6.321  20.991  0.00  0.00    +0.000 A 
ATOM     25  C   UNL     1       1.569   7.489  20.340  0.00  0.00    +0.000 A 
ATOM     26  C   UNL     1       2.601   7.427  19.387  0.00  0.00    +0.000 A 
ATOM     27  C   UNL     1       3.320   6.229  19.103  0.00  0.00    +0.000 A 
BRANCH  27  28
ATOM     28  C   UNL     1       4.424   6.257  18.091  0.00  0.00    +0.000 A 
ATOM     29  C   UNL     1       5.757   5.991  18.447  0.00  0.00    +0.000 A 
ATOM     30  C   UNL     1       6.757   6.026  17.479  0.00  0.00    +0.000 A 
ATOM     31  N   UNL     1       6.534   6.277  16.177  0.00  0.00    +0.000 NA
ATOM     32  C   UNL     1       5.259   6.536  15.834  0.00  0.00    +0.000 A 
ATOM     33  C   UNL     1       4.207   6.569  16.741  0.00  0.00    +0.000 A 
ENDBRANCH  27  28
ENDBRANCH  17  25
ENDBRANCH   1  18
BRANCH   5  34
ATOM     34  C   UNL     1      -2.297  15.135  22.401  0.00  0.00    +0.000 C 
ATOM     35  C   UNL     1      -3.262  15.955  23.289  0.00  0.00    +0.000 C 
ATOM     36  C   UNL     1      -0.912  15.788  22.452  0.00  0.00    +0.000 C 
BRANCH  34  37
ATOM     37  C   UNL     1      -2.852  15.126  20.953  0.00  0.00    +0.000 C 
BRANCH  37  38
ATOM     38  O   UNL     1      -1.799  14.944  19.999  0.00  0.00    +0.000 OA
ATOM     39  H   UNL     1      -1.335  15.804  19.989  0.00  0.00    +0.000 HD
ENDBRANCH  37  38
ENDBRANCH  34  37
ENDBRANCH   5  34
TORSDOF 7
ENDMDL
MODEL 6
REMARK VINA RESULT:      -7.6      2.346      4.795
REMARK  Name = 
REMARK  10 active torsions:
REMARK  status: ('A' for Active; 'I' for Inactive)
REMARK    1  A    between atoms: C_1  and  C_2
REMARK    2  A    between atoms: C_5  and  N_6
REMARK    3  A    between atoms: C_7  and  C_9
REMARK    4  A    between atoms: N_13  and  C_14
REMARK    5  A    between atoms: C_14  and  C_15
REMARK    6  A    between atoms: C_14  and  C_16
REMARK    7  A    between atoms: C_14  and  C_17
REMARK    8  A    between atoms: C_17  and  O_18
REMARK    9  A    between atoms: C_20  and  N_21
REMARK   10  A    between atoms: C_30  and  C_31
REMARK                            x       y       z     vdW  Elec       q    Type
REMARK                         _______ _______ _______ _____ _____    ______ ____
ROOT
ATOM      1  C   UNL     1       1.277  11.447  19.072  0.00  0.00    +0.000 A 
ATOM      2  C   UNL     1       2.295  11.970  18.265  0.00  0.00    +0.000 A 
ATOM      3  C   UNL     1       2.365  13.332  18.058  0.00  0.00    +0.000 A 
ATOM      4  C   UNL     1       1.428  14.157  18.657  0.00  0.00    +0.000 A 
ATOM      5  N   UNL     1       1.607  15.522  18.467  0.00  0.00    +0.000 N 
ATOM      6  N   UNL     1       0.470  13.663  19.468  0.00  0.00    +0.000 NA
ATOM      7  C   UNL     1       0.366  12.321  19.701  0.00  0.00    +0.000 A 
ATOM      8  H   UNL     1       1.658  15.737  17.473  0.00  0.00    +0.000 HD
ENDROOT
BRANCH   7   9
ATOM      9  N   UNL     1      -0.641  11.922  20.565  0.00  0.00    +0.000 N 
ATOM     10  C   UNL     1      -0.404  11.556  21.966  0.00  0.00    +0.000 C 
ATOM     11  C   UNL     1      -0.981  12.626  22.899  0.00  0.00    +0.000 C 
ATOM     12  C   UNL     1      -2.442  12.887  22.606  0.00  0.00    +0.000 C 
ATOM     13  C   UNL     1      -2.713  13.170  21.139  0.00  0.00    +0.000 C 
ATOM     14  C   UNL     1      -2.054  12.129  20.219  0.00  0.00    +0.000 C 
ATOM     15  C   UNL     1      -3.499  12.201  23.445  0.00  0.00    +0.000 C 
ATOM     16  C   UNL     1      -3.223  13.667  23.641  0.00  0.00    +0.000 C 
ENDBRANCH   7   9
BRANCH   1  18
ATOM     17  N   UNL     1       1.784   9.242  19.986  0.00  0.00    +0.000 N 
ATOM     18  C   UNL     1       1.100   9.970  19.012  0.00  0.00    +0.000 C 
ATOM     19  O   UNL     1       0.425   9.509  18.105  0.00  0.00    +0.000 OA
ATOM     20  H   UNL     1       2.201   9.751  20.755  0.00  0.00    +0.000 HD
BRANCH  17  25
ATOM     21  C   UNL     1       2.439   3.540  20.158  0.00  0.00    +0.000 C 
ATOM     22  C   UNL     1       2.322   5.035  20.009  0.00  0.00    +0.000 A 
ATOM     23  C   UNL     1       1.319   5.638  20.786  0.00  0.00    +0.000 A 
ATOM     24  C   UNL     1       1.130   7.013  20.785  0.00  0.00    +0.000 A 
ATOM     25  C   UNL     1       1.928   7.835  20.005  0.00  0.00    +0.000 A 
ATOM     26  C   UNL     1       2.900   7.238  19.182  0.00  0.00    +0.000 A 
ATOM     27  C   UNL     1       3.133   5.832  19.158  0.00  0.00    +0.000 A 
BRANCH  27  28
ATOM     28  C   UNL     1       4.207   5.282  18.271  0.00  0.00    +0.000 A 
ATOM     29  C   UNL     1       5.564   5.331  18.638  0.00  0.00    +0.000 A 
ATOM     30  C   UNL     1       6.534   4.810  17.787  0.00  0.00    +0.000 A 
ATOM     31  N   UNL     1       6.263   4.215  16.612  0.00  0.00    +0.000 NA
ATOM     32  C   UNL     1       4.967   4.170  16.257  0.00  0.00    +0.000 A 
ATOM     33  C   UNL     1       3.937   4.708  17.020  0.00  0.00    +0.000 A 
ENDBRANCH  27  28
ENDBRANCH  17  25
ENDBRANCH   1  18
BRANCH   5  34
ATOM     34  C   UNL     1       0.907  16.562  19.243  0.00  0.00    +0.000 C 
ATOM     35  C   UNL     1      -0.546  16.539  18.712  0.00  0.00    +0.000 C 
ATOM     36  C   UNL     1       0.883  16.243  20.741  0.00  0.00    +0.000 C 
BRANCH  34  37
ATOM     37  C   UNL     1       1.501  17.972  18.987  0.00  0.00    +0.000 C 
BRANCH  37  38
ATOM     38  O   UNL     1       1.935  18.109  17.629  0.00  0.00    +0.000 OA
ATOM     39  H   UNL     1       1.164  18.492  17.169  0.00  0.00    +0.000 HD
ENDBRANCH  37  38
ENDBRANCH  34  37
ENDBRANCH   5  34
TORSDOF 7
ENDMDL
MODEL 7
REMARK VINA RESULT:      -7.6      1.275      1.583
REMARK  Name = 
REMARK  10 active torsions:
REMARK  status: ('A' for Active; 'I' for Inactive)
REMARK    1  A    between atoms: C_1  and  C_2
REMARK    2  A    between atoms: C_5  and  N_6
REMARK    3  A    between atoms: C_7  and  C_9
REMARK    4  A    between atoms: N_13  and  C_14
REMARK    5  A    between atoms: C_14  and  C_15
REMARK    6  A    between atoms: C_14  and  C_16
REMARK    7  A    between atoms: C_14  and  C_17
REMARK    8  A    between atoms: C_17  and  O_18
REMARK    9  A    between atoms: C_20  and  N_21
REMARK   10  A    between atoms: C_30  and  C_31
REMARK                            x       y       z     vdW  Elec       q    Type
REMARK                         _______ _______ _______ _____ _____    ______ ____
ROOT
ATOM      1  C   UNL     1      -0.473  11.743  20.819  0.00  0.00    +0.000 A 
ATOM      2  C   UNL     1      -1.213  11.435  21.968  0.00  0.00    +0.000 A 
ATOM      3  C   UNL     1      -1.376  12.394  22.946  0.00  0.00    +0.000 A 
ATOM      4  C   UNL     1      -0.808  13.644  22.771  0.00  0.00    +0.000 A 
ATOM      5  N   UNL     1      -1.079  14.582  23.761  0.00  0.00    +0.000 N 
ATOM      6  N   UNL     1      -0.130  13.959  21.649  0.00  0.00    +0.000 NA
ATOM      7  C   UNL     1       0.054  13.041  20.654  0.00  0.00    +0.000 A 
ATOM      8  H   UNL     1      -0.815  14.218  24.674  0.00  0.00    +0.000 HD
ENDROOT
BRANCH   7   9
ATOM      9  N   UNL     1       0.748  13.473  19.536  0.00  0.00    +0.000 N 
ATOM     10  C   UNL     1       0.269  14.544  18.654  0.00  0.00    +0.000 C 
ATOM     11  C   UNL     1       1.138  15.796  18.819  0.00  0.00    +0.000 C 
ATOM     12  C   UNL     1       2.604  15.485  18.612  0.00  0.00    +0.000 C 
ATOM     13  C   UNL     1       3.087  14.312  19.449  0.00  0.00    +0.000 C 
ATOM     14  C   UNL     1       2.153  13.096  19.332  0.00  0.00    +0.000 C 
ATOM     15  C   UNL     1       3.234  15.752  17.262  0.00  0.00    +0.000 C 
ATOM     16  C   UNL     1       3.537  16.660  18.423  0.00  0.00    +0.000 C 
ENDBRANCH   7   9
BRANCH   1  18
ATOM     17  N   UNL     1       0.912   9.768  20.451  0.00  0.00    +0.000 N 
ATOM     18  C   UNL     1      -0.106  10.585  19.959  0.00  0.00    +0.000 C 
ATOM     19  O   UNL     1      -0.674  10.466  18.884  0.00  0.00    +0.000 OA
ATOM     20  H   UNL     1       1.207   9.901  21.409  0.00  0.00    +0.000 HD
BRANCH  17  25
ATOM     21  C   UNL     1       3.449   5.591  17.434  0.00  0.00    +0.000 C 
ATOM     22  C   UNL     1       2.783   6.614  18.318  0.00  0.00    +0.000 A 
ATOM     23  C   UNL     1       2.905   7.947  17.890  0.00  0.00    +0.000 A 
ATOM     24  C   UNL     1       2.301   8.989  18.580  0.00  0.00    +0.000 A 
ATOM     25  C   UNL     1       1.560   8.741  19.725  0.00  0.00    +0.000 A 
ATOM     26  C   UNL     1       1.476   7.418  20.193  0.00  0.00    +0.000 A 
ATOM     27  C   UNL     1       2.073   6.317  19.512  0.00  0.00    +0.000 A 
BRANCH  27  28
ATOM     28  C   UNL     1       1.911   4.936  20.067  0.00  0.00    +0.000 A 
ATOM     29  C   UNL     1       1.264   3.921  19.341  0.00  0.00    +0.000 A 
ATOM     30  C   UNL     1       1.132   2.648  19.889  0.00  0.00    +0.000 A 
ATOM     31  N   UNL     1       1.620   2.293  21.091  0.00  0.00    +0.000 NA
ATOM     32  C   UNL     1       2.237   3.263  21.789  0.00  0.00    +0.000 A 
ATOM     33  C   UNL     1       2.371   4.572  21.341  0.00  0.00    +0.000 A 
ENDBRANCH  27  28
ENDBRANCH  17  25
ENDBRANCH   1  18
BRANCH   5  34
ATOM     34  C   UNL     1      -0.819  16.027  23.622  0.00  0.00    +0.000 C 
ATOM     35  C   UNL     1      -1.010  16.598  25.047  0.00  0.00    +0.000 C 
ATOM     36  C   UNL     1       0.617  16.312  23.171  0.00  0.00    +0.000 C 
BRANCH  34  37
ATOM     37  C   UNL     1      -1.842  16.710  22.678  0.00  0.00    +0.000 C 
BRANCH  37  38
ATOM     38  O   UNL     1      -1.353  16.754  21.333  0.00  0.00    +0.000 OA
ATOM     39  H   UNL     1      -2.158  16.850  20.789  0.00  0.00    +0.000 HD
ENDBRANCH  37  38
ENDBRANCH  34  37
ENDBRANCH   5  34
TORSDOF 7
ENDMDL
MODEL 8
REMARK VINA RESULT:      -7.5      2.854      4.442
REMARK  Name = 
REMARK  10 active torsions:
REMARK  status: ('A' for Active; 'I' for Inactive)
REMARK    1  A    between atoms: C_1  and  C_2
REMARK    2  A    between atoms: C_5  and  N_6
REMARK    3  A    between atoms: C_7  and  C_9
REMARK    4  A    between atoms: N_13  and  C_14
REMARK    5  A    between atoms: C_14  and  C_15
REMARK    6  A    between atoms: C_14  and  C_16
REMARK    7  A    between atoms: C_14  and  C_17
REMARK    8  A    between atoms: C_17  and  O_18
REMARK    9  A    between atoms: C_20  and  N_21
REMARK   10  A    between atoms: C_30  and  C_31
REMARK                            x       y       z     vdW  Elec       q    Type
REMARK                         _______ _______ _______ _____ _____    ______ ____
ROOT
ATOM      1  C   UNL     1       0.207   9.248  21.080  0.00  0.00    +0.000 A 
ATOM      2  C   UNL     1       0.324   9.246  22.475  0.00  0.00    +0.000 A 
ATOM      3  C   UNL     1      -0.216  10.288  23.202  0.00  0.00    +0.000 A 
ATOM      4  C   UNL     1      -0.866  11.313  22.536  0.00  0.00    +0.000 A 
ATOM      5  N   UNL     1      -1.450  12.287  23.338  0.00  0.00    +0.000 N 
ATOM      6  N   UNL     1      -1.018  11.299  21.197  0.00  0.00    +0.000 NA
ATOM      7  C   UNL     1      -0.501  10.285  20.439  0.00  0.00    +0.000 A 
ATOM      8  H   UNL     1      -0.760  12.683  23.973  0.00  0.00    +0.000 HD
ENDROOT
BRANCH   7   9
ATOM      9  N   UNL     1      -0.730  10.358  19.075  0.00  0.00    +0.000 N 
ATOM     10  C   UNL     1      -1.358   9.278  18.304  0.00  0.00    +0.000 C 
ATOM     11  C   UNL     1      -2.765   9.691  17.859  0.00  0.00    +0.000 C 
ATOM     12  C   UNL     1      -2.745  11.005  17.108  0.00  0.00    +0.000 C 
ATOM     13  C   UNL     1      -2.011  12.105  17.855  0.00  0.00    +0.000 C 
ATOM     14  C   UNL     1      -0.637  11.640  18.364  0.00  0.00    +0.000 C 
ATOM     15  C   UNL     1      -2.738  10.992  15.594  0.00  0.00    +0.000 C 
ATOM     16  C   UNL     1      -3.991  11.374  16.334  0.00  0.00    +0.000 C 
ENDBRANCH   7   9
BRANCH   1  18
ATOM     17  N   UNL     1       0.970   6.943  20.829  0.00  0.00    +0.000 N 
ATOM     18  C   UNL     1       1.050   8.255  20.360  0.00  0.00    +0.000 C 
ATOM     19  O   UNL     1       1.775   8.660  19.464  0.00  0.00    +0.000 OA
ATOM     20  H   UNL     1       0.237   6.719  21.490  0.00  0.00    +0.000 HD
BRANCH  17  25
ATOM     21  C   UNL     1       4.476   2.642  19.353  0.00  0.00    +0.000 C 
ATOM     22  C   UNL     1       3.601   3.832  19.650  0.00  0.00    +0.000 A 
ATOM     23  C   UNL     1       2.451   3.556  20.410  0.00  0.00    +0.000 A 
ATOM     24  C   UNL     1       1.580   4.563  20.799  0.00  0.00    +0.000 A 
ATOM     25  C   UNL     1       1.819   5.881  20.440  0.00  0.00    +0.000 A 
ATOM     26  C   UNL     1       2.937   6.162  19.635  0.00  0.00    +0.000 A 
ATOM     27  C   UNL     1       3.862   5.160  19.220  0.00  0.00    +0.000 A 
BRANCH  27  28
ATOM     28  C   UNL     1       5.041   5.551  18.384  0.00  0.00    +0.000 A 
ATOM     29  C   UNL     1       4.913   5.826  17.011  0.00  0.00    +0.000 A 
ATOM     30  C   UNL     1       6.032   6.187  16.266  0.00  0.00    +0.000 A 
ATOM     31  N   UNL     1       7.266   6.327  16.782  0.00  0.00    +0.000 NA
ATOM     32  C   UNL     1       7.392   6.062  18.094  0.00  0.00    +0.000 A 
ATOM     33  C   UNL     1       6.341   5.648  18.903  0.00  0.00    +0.000 A 
ENDBRANCH  27  28
ENDBRANCH  17  25
ENDBRANCH   1  18
BRANCH   5  34
ATOM     34  C   UNL     1      -2.420  13.285  22.850  0.00  0.00    +0.000 C 
ATOM     35  C   UNL     1      -3.791  12.574  22.935  0.00  0.00    +0.000 C 
ATOM     36  C   UNL     1      -2.459  14.531  23.741  0.00  0.00    +0.000 C 
BRANCH  34  37
ATOM     37  C   UNL     1      -2.158  13.670  21.371  0.00  0.00    +0.000 C 
BRANCH  37  38
ATOM     38  O   UNL     1      -0.983  14.480  21.250  0.00  0.00    +0.000 OA
ATOM     39  H   UNL     1      -0.635  14.534  22.161  0.00  0.00    +0.000 HD
ENDBRANCH  37  38
ENDBRANCH  34  37
ENDBRANCH   5  34
TORSDOF 7
ENDMDL
MODEL 9
REMARK VINA RESULT:      -7.5      1.323      1.550
REMARK  Name = 
REMARK  10 active torsions:
REMARK  status: ('A' for Active; 'I' for Inactive)
REMARK    1  A    between atoms: C_1  and  C_2
REMARK    2  A    between atoms: C_5  and  N_6
REMARK    3  A    between atoms: C_7  and  C_9
REMARK    4  A    between atoms: N_13  and  C_14
REMARK    5  A    between atoms: C_14  and  C_15
REMARK    6  A    between atoms: C_14  and  C_16
REMARK    7  A    between atoms: C_14  and  C_17
REMARK    8  A    between atoms: C_17  and  O_18
REMARK    9  A    between atoms: C_20  and  N_21
REMARK   10  A    between atoms: C_30  and  C_31
REMARK                            x       y       z     vdW  Elec       q    Type
REMARK                         _______ _______ _______ _____ _____    ______ ____
ROOT
ATOM      1  C   UNL     1      -0.523  11.523  20.931  0.00  0.00    +0.000 A 
ATOM      2  C   UNL     1      -1.332  11.217  22.032  0.00  0.00    +0.000 A 
ATOM      3  C   UNL     1      -1.522  12.164  23.018  0.00  0.00    +0.000 A 
ATOM      4  C   UNL     1      -0.911  13.401  22.896  0.00  0.00    +0.000 A 
ATOM      5  N   UNL     1      -1.209  14.329  23.887  0.00  0.00    +0.000 N 
ATOM      6  N   UNL     1      -0.164  13.714  21.818  0.00  0.00    +0.000 NA
ATOM      7  C   UNL     1       0.048  12.807  20.818  0.00  0.00    +0.000 A 
ATOM      8  H   UNL     1      -1.006  13.943  24.806  0.00  0.00    +0.000 HD
ENDROOT
BRANCH   7   9
ATOM      9  N   UNL     1       0.814  13.238  19.748  0.00  0.00    +0.000 N 
ATOM     10  C   UNL     1       0.292  14.093  18.675  0.00  0.00    +0.000 C 
ATOM     11  C   UNL     1       0.895  15.498  18.776  0.00  0.00    +0.000 C 
ATOM     12  C   UNL     1       2.407  15.453  18.798  0.00  0.00    +0.000 C 
ATOM     13  C   UNL     1       2.958  14.495  19.841  0.00  0.00    +0.000 C 
ATOM     14  C   UNL     1       2.278  13.117  19.774  0.00  0.00    +0.000 C 
ATOM     15  C   UNL     1       3.174  15.684  17.513  0.00  0.00    +0.000 C 
ATOM     16  C   UNL     1       3.139  16.757  18.569  0.00  0.00    +0.000 C 
ENDBRANCH   7   9
BRANCH   1  18
ATOM     17  N   UNL     1       0.989   9.661  20.480  0.00  0.00    +0.000 N 
ATOM     18  C   UNL     1      -0.141  10.369  20.071  0.00  0.00    +0.000 C 
ATOM     19  O   UNL     1      -0.800  10.162  19.064  0.00  0.00    +0.000 OA
ATOM     20  H   UNL     1       1.365   9.854  21.400  0.00  0.00    +0.000 HD
BRANCH  17  25
ATOM     21  C   UNL     1       3.575   5.608  17.340  0.00  0.00    +0.000 C 
ATOM     22  C   UNL     1       2.909   6.601  18.257  0.00  0.00    +0.000 A 
ATOM     23  C   UNL     1       2.900   7.929  17.798  0.00  0.00    +0.000 A 
ATOM     24  C   UNL     1       2.278   8.940  18.517  0.00  0.00    +0.000 A 
ATOM     25  C   UNL     1       1.650   8.666  19.722  0.00  0.00    +0.000 A 
ATOM     26  C   UNL     1       1.700   7.351  20.218  0.00  0.00    +0.000 A 
ATOM     27  C   UNL     1       2.320   6.281  19.509  0.00  0.00    +0.000 A 
BRANCH  27  28
ATOM     28  C   UNL     1       2.304   4.905  20.098  0.00  0.00    +0.000 A 
ATOM     29  C   UNL     1       3.472   4.128  20.189  0.00  0.00    +0.000 A 
ATOM     30  C   UNL     1       3.419   2.852  20.743  0.00  0.00    +0.000 A 
ATOM     31  N   UNL     1       2.302   2.296  21.244  0.00  0.00    +0.000 NA
ATOM     32  C   UNL     1       1.182   3.036  21.156  0.00  0.00    +0.000 A 
ATOM     33  C   UNL     1       1.133   4.297  20.575  0.00  0.00    +0.000 A 
ENDBRANCH  27  28
ENDBRANCH  17  25
ENDBRANCH   1  18
BRANCH   5  34
ATOM     34  C   UNL     1      -0.902  15.768  23.789  0.00  0.00    +0.000 C 
ATOM     35  C   UNL     1      -1.970  16.333  22.822  0.00  0.00    +0.000 C 
ATOM     36  C   UNL     1      -1.042  16.478  25.139  0.00  0.00    +0.000 C 
BRANCH  34  37
ATOM     37  C   UNL     1       0.499  16.019  23.174  0.00  0.00    +0.000 C 
BRANCH  37  38
ATOM     38  O   UNL     1       0.394  16.674  21.905  0.00  0.00    +0.000 OA
ATOM     39  H   UNL     1       0.582  15.970  21.255  0.00  0.00    +0.000 HD
ENDBRANCH  37  38
ENDBRANCH  34  37
ENDBRANCH   5  34
TORSDOF 7
ENDMDL
