MODEL 1
REMARK VINA RESULT:      -7.7      0.000      0.000
REMARK  Name = 
REMARK  5 active torsions:
REMARK  status: ('A' for Active; 'I' for Inactive)
REMARK    1  A    between atoms: C_1  and  C_2
REMARK    2  A    between atoms: C_4  and  C_5
REMARK    3  A    between atoms: N_7  and  C_8
REMARK    4  A    between atoms: C_14  and  C_15
REMARK    5  A    between atoms: C_15  and  O_17
REMARK                            x       y       z     vdW  Elec       q    Type
REMARK                         _______ _______ _______ _____ _____    ______ ____
ROOT
ATOM      1  C   UNL     1       0.028   9.960  19.127  0.00  0.00    +0.000 C 
ATOM      2  C   UNL     1       0.321   9.090  20.359  0.00  0.00    +0.000 C 
ATOM      3  C   UNL     1       1.720   8.478  20.439  0.00  0.00    +0.000 C 
ATOM      4  N   UNL     1       2.259   8.075  19.143  0.00  0.00    +0.000 N 
ATOM      5  C   UNL     1       2.480   6.739  18.847  0.00  0.00    +0.000 A 
ATOM      6  C   UNL     1       3.493   6.392  17.953  0.00  0.00    +0.000 A 
ATOM      7  C   UNL     1       3.730   5.053  17.631  0.00  0.00    +0.000 A 
ATOM      8  C   UNL     1       2.930   4.069  18.181  0.00  0.00    +0.000 A 
ATOM      9  C   UNL     1       1.962   4.493  19.071  0.00  0.00    +0.000 A 
ATOM     10 CL   UNL     1       0.912   3.350  19.806  0.00  0.00    +0.000 Cl
ATOM     11  N   UNL     1       1.736   5.778  19.432  0.00  0.00    +0.000 NA
ATOM     12  C   UNL     1       2.102   9.022  18.042  0.00  0.00    +0.000 C 
ATOM     13  C   UNL     1       0.629   9.359  17.855  0.00  0.00    +0.000 C 
ENDROOT
BRANCH   1  16
ATOM     14  C   UNL     1      -0.352  12.366  18.670  0.00  0.00    +0.000 C 
ATOM     15  O   UNL     1      -1.410  12.119  18.096  0.00  0.00    +0.000 OA
ATOM     16  N   UNL     1       0.400  11.373  19.277  0.00  0.00    +0.000 N 
ATOM     17  H   UNL     1       1.320  11.616  19.624  0.00  0.00    +0.000 HD
BRANCH  14  21
ATOM     18  C   UNL     1      -0.717  17.299  18.846  0.00  0.00    +0.000 C 
ATOM     19  C   UNL     1      -0.025  15.984  18.782  0.00  0.00    +0.000 A 
ATOM     20  N   UNL     1      -0.706  14.794  18.801  0.00  0.00    +0.000 N 
ATOM     21  C   UNL     1       0.167  13.717  18.702  0.00  0.00    +0.000 A 
ATOM     22  C   UNL     1       1.440  14.258  18.648  0.00  0.00    +0.000 A 
ATOM     23 CL   UNL     1       2.920  13.415  18.538  0.00  0.00    +0.000 Cl
ATOM     24  C   UNL     1       1.317  15.676  18.693  0.00  0.00    +0.000 A 
ATOM     25 CL   UNL     1       2.598  16.797  18.640  0.00  0.00    +0.000 Cl
ATOM     26  H   UNL     1      -1.711  14.682  18.865  0.00  0.00    +0.000 HD
ENDBRANCH  14  21
ENDBRANCH   1  16
BRANCH   7  27
ATOM     27  C   UNL     1       4.812   4.768  16.657  0.00  0.00    +0.000 C 
ATOM     28  O   UNL     1       5.157   5.573  15.811  0.00  0.00    +0.000 OA
BRANCH  27  29
ATOM     29  O   UNL     1       5.399   3.565  16.812  0.00  0.00    +0.000 OA
ATOM     30  H   UNL     1       4.839   2.784  16.655  0.00  0.00    +0.000 HD
ENDBRANCH  27  29
ENDBRANCH   7  27
TORSDOF 4
ENDMDL
MODEL 2
REMARK VINA RESULT:      -7.3      1.324      1.658
REMARK  Name = 
REMARK  5 active torsions:
REMARK  status: ('A' for Active; 'I' for Inactive)
REMARK    1  A    between atoms: C_1  and  C_2
REMARK    2  A    between atoms: C_4  and  C_5
REMARK    3  A    between atoms: N_7  and  C_8
REMARK    4  A    between atoms: C_14  and  C_15
REMARK    5  A    between atoms: C_15  and  O_17
REMARK                            x       y       z     vdW  Elec       q    Type
REMARK                         _______ _______ _______ _____ _____    ______ ____
ROOT
ATOM      1  C   UNL     1       0.454   9.827  19.015  0.00  0.00    +0.000 C 
ATOM      2  C   UNL     1       0.579   8.953  20.273  0.00  0.00    +0.000 C 
ATOM      3  C   UNL     1       1.906   8.215  20.455  0.00  0.00    +0.000 C 
ATOM      4  N   UNL     1       2.491   7.742  19.204  0.00  0.00    +0.000 N 
ATOM      5  C   UNL     1       2.605   6.386  18.937  0.00  0.00    +0.000 A 
ATOM      6  C   UNL     1       3.639   5.933  18.118  0.00  0.00    +0.000 A 
ATOM      7  C   UNL     1       3.770   4.572  17.826  0.00  0.00    +0.000 A 
ATOM      8  C   UNL     1       2.845   3.676  18.329  0.00  0.00    +0.000 A 
ATOM      9  C   UNL     1       1.864   4.203  19.146  0.00  0.00    +0.000 A 
ATOM     10 CL   UNL     1       0.664   3.175  19.819  0.00  0.00    +0.000 Cl
ATOM     11  N   UNL     1       1.736   5.509  19.478  0.00  0.00    +0.000 NA
ATOM     12  C   UNL     1       2.499   8.682  18.085  0.00  0.00    +0.000 C 
ATOM     13  C   UNL     1       1.080   9.151  17.794  0.00  0.00    +0.000 C 
ENDROOT
BRANCH   1  16
ATOM     14  C   UNL     1       0.224  12.270  18.671  0.00  0.00    +0.000 C 
ATOM     15  O   UNL     1      -0.895  12.125  18.185  0.00  0.00    +0.000 OA
ATOM     16  N   UNL     1       0.946  11.200  19.177  0.00  0.00    +0.000 N 
ATOM     17  H   UNL     1       1.909  11.361  19.449  0.00  0.00    +0.000 HD
BRANCH  14  21
ATOM     18  C   UNL     1       3.880  15.504  17.850  0.00  0.00    +0.000 C 
ATOM     19  C   UNL     1       2.544  15.046  18.314  0.00  0.00    +0.000 A 
ATOM     20  N   UNL     1       2.116  13.751  18.160  0.00  0.00    +0.000 N 
ATOM     21  C   UNL     1       0.848  13.576  18.700  0.00  0.00    +0.000 A 
ATOM     22  C   UNL     1       0.461  14.814  19.183  0.00  0.00    +0.000 A 
ATOM     23 CL   UNL     1      -1.013  15.216  19.943  0.00  0.00    +0.000 Cl
ATOM     24  C   UNL     1       1.525  15.730  18.945  0.00  0.00    +0.000 A 
ATOM     25 CL   UNL     1       1.544  17.380  19.370  0.00  0.00    +0.000 Cl
ATOM     26  H   UNL     1       2.637  12.998  17.725  0.00  0.00    +0.000 HD
ENDBRANCH  14  21
ENDBRANCH   1  16
BRANCH   7  27
ATOM     27  C   UNL     1       4.884   4.172  16.932  0.00  0.00    +0.000 C 
ATOM     28  O   UNL     1       4.767   4.135  15.720  0.00  0.00    +0.000 OA
BRANCH  27  29
ATOM     29  O   UNL     1       6.037   3.890  17.570  0.00  0.00    +0.000 OA
ATOM     30  H   UNL     1       6.083   3.032  18.027  0.00  0.00    +0.000 HD
ENDBRANCH  27  29
ENDBRANCH   7  27
TORSDOF 4
ENDMDL
MODEL 3
REMARK VINA RESULT:      -7.2      3.793      9.594
REMARK  Name = 
REMARK  5 active torsions:
REMARK  status: ('A' for Active; 'I' for Inactive)
REMARK    1  A    between atoms: C_1  and  C_2
REMARK    2  A    between atoms: C_4  and  C_5
REMARK    3  A    between atoms: N_7  and  C_8
REMARK    4  A    between atoms: C_14  and  C_15
REMARK    5  A    between atoms: C_15  and  O_17
REMARK                            x       y       z     vdW  Elec       q    Type
REMARK                         _______ _______ _______ _____ _____    ______ ____
ROOT
ATOM      1  C   UNL     1       0.636  10.149  19.059  0.00  0.00    +0.000 C 
ATOM      2  C   UNL     1       1.327  11.475  19.412  0.00  0.00    +0.000 C 
ATOM      3  C   UNL     1       1.188  11.946  20.860  0.00  0.00    +0.000 C 
ATOM      4  N   UNL     1      -0.113  11.646  21.452  0.00  0.00    +0.000 N 
ATOM      5  C   UNL     1      -0.991  12.661  21.799  0.00  0.00    +0.000 A 
ATOM      6  C   UNL     1      -1.884  12.467  22.852  0.00  0.00    +0.000 A 
ATOM      7  C   UNL     1      -2.785  13.472  23.215  0.00  0.00    +0.000 A 
ATOM      8  C   UNL     1      -2.809  14.655  22.501  0.00  0.00    +0.000 A 
ATOM      9  C   UNL     1      -1.881  14.776  21.486  0.00  0.00    +0.000 A 
ATOM     10 CL   UNL     1      -1.830  16.205  20.534  0.00  0.00    +0.000 Cl
ATOM     11  N   UNL     1      -0.970  13.837  21.138  0.00  0.00    +0.000 NA
ATOM     12  C   UNL     1      -0.645  10.305  21.225  0.00  0.00    +0.000 C 
ATOM     13  C   UNL     1      -0.733  10.029  19.730  0.00  0.00    +0.000 C 
ENDROOT
BRANCH   1  16
ATOM     14  C   UNL     1       2.155   8.362  18.257  0.00  0.00    +0.000 C 
ATOM     15  O   UNL     1       2.217   8.876  17.143  0.00  0.00    +0.000 OA
ATOM     16  N   UNL     1       1.454   8.954  19.297  0.00  0.00    +0.000 N 
ATOM     17  H   UNL     1       1.334   8.425  20.153  0.00  0.00    +0.000 HD
BRANCH  14  21
ATOM     18  C   UNL     1       2.813   4.095  20.678  0.00  0.00    +0.000 C 
ATOM     19  C   UNL     1       3.077   5.132  19.644  0.00  0.00    +0.000 A 
ATOM     20  N   UNL     1       2.324   6.274  19.540  0.00  0.00    +0.000 N 
ATOM     21  C   UNL     1       2.792   7.088  18.515  0.00  0.00    +0.000 A 
ATOM     22  C   UNL     1       3.857   6.414  17.944  0.00  0.00    +0.000 A 
ATOM     23 CL   UNL     1       4.818   6.921  16.628  0.00  0.00    +0.000 Cl
ATOM     24  C   UNL     1       4.037   5.194  18.655  0.00  0.00    +0.000 A 
ATOM     25 CL   UNL     1       5.229   4.017  18.346  0.00  0.00    +0.000 Cl
ATOM     26  H   UNL     1       1.535   6.524  20.124  0.00  0.00    +0.000 HD
ENDBRANCH  14  21
ENDBRANCH   1  16
BRANCH   7  27
ATOM     27  C   UNL     1      -3.716  13.180  24.333  0.00  0.00    +0.000 C 
ATOM     28  O   UNL     1      -4.379  12.159  24.380  0.00  0.00    +0.000 OA
BRANCH  27  29
ATOM     29  O   UNL     1      -3.736  14.117  25.301  0.00  0.00    +0.000 OA
ATOM     30  H   UNL     1      -3.160  13.961  26.070  0.00  0.00    +0.000 HD
ENDBRANCH  27  29
ENDBRANCH   7  27
TORSDOF 4
ENDMDL
MODEL 4
REMARK VINA RESULT:      -7.2      3.662      9.620
REMARK  Name = 
REMARK  5 active torsions:
REMARK  status: ('A' for Active; 'I' for Inactive)
REMARK    1  A    between atoms: C_1  and  C_2
REMARK    2  A    between atoms: C_4  and  C_5
REMARK    3  A    between atoms: N_7  and  C_8
REMARK    4  A    between atoms: C_14  and  C_15
REMARK    5  A    between atoms: C_15  and  O_17
REMARK                            x       y       z     vdW  Elec       q    Type
REMARK                         _______ _______ _______ _____ _____    ______ ____
ROOT
ATOM      1  C   UNL     1       0.651  10.194  19.061  0.00  0.00    +0.000 C 
ATOM      2  C   UNL     1       1.319  11.517  19.465  0.00  0.00    +0.000 C 
ATOM      3  C   UNL     1       1.168  11.933  20.929  0.00  0.00    +0.000 C 
ATOM      4  N   UNL     1      -0.129  11.589  21.505  0.00  0.00    +0.000 N 
ATOM      5  C   UNL     1      -1.025  12.578  21.886  0.00  0.00    +0.000 A 
ATOM      6  C   UNL     1      -1.918  12.330  22.928  0.00  0.00    +0.000 A 
ATOM      7  C   UNL     1      -2.837  13.306  23.324  0.00  0.00    +0.000 A 
ATOM      8  C   UNL     1      -2.878  14.514  22.653  0.00  0.00    +0.000 A 
ATOM      9  C   UNL     1      -1.947  14.688  21.647  0.00  0.00    +0.000 A 
ATOM     10 CL   UNL     1      -1.917  16.151  20.749  0.00  0.00    +0.000 Cl
ATOM     11  N   UNL     1      -1.021  13.777  21.268  0.00  0.00    +0.000 NA
ATOM     12  C   UNL     1      -0.639  10.249  21.227  0.00  0.00    +0.000 C 
ATOM     13  C   UNL     1      -0.718  10.028  19.722  0.00  0.00    +0.000 C 
ENDROOT
BRANCH   1  16
ATOM     14  C   UNL     1       2.197   8.460  18.199  0.00  0.00    +0.000 C 
ATOM     15  O   UNL     1       2.250   9.012  17.103  0.00  0.00    +0.000 OA
ATOM     16  N   UNL     1       1.487   9.004  19.258  0.00  0.00    +0.000 N 
ATOM     17  H   UNL     1       1.376   8.445  20.095  0.00  0.00    +0.000 HD
BRANCH  14  21
ATOM     18  C   UNL     1       5.421   4.854  17.149  0.00  0.00    +0.000 C 
ATOM     19  C   UNL     1       4.343   5.540  17.910  0.00  0.00    +0.000 A 
ATOM     20  N   UNL     1       3.875   6.782  17.563  0.00  0.00    +0.000 N 
ATOM     21  C   UNL     1       2.853   7.187  18.413  0.00  0.00    +0.000 A 
ATOM     22  C   UNL     1       2.698   6.171  19.339  0.00  0.00    +0.000 A 
ATOM     23 CL   UNL     1       1.599   6.115  20.643  0.00  0.00    +0.000 Cl
ATOM     24  C   UNL     1       3.628   5.140  19.020  0.00  0.00    +0.000 A 
ATOM     25 CL   UNL     1       3.821   3.668  19.854  0.00  0.00    +0.000 Cl
ATOM     26  H   UNL     1       4.203   7.349  16.788  0.00  0.00    +0.000 HD
ENDBRANCH  14  21
ENDBRANCH   1  16
BRANCH   7  27
ATOM     27  C   UNL     1      -3.766  12.959  24.426  0.00  0.00    +0.000 C 
ATOM     28  O   UNL     1      -4.411  11.925  24.435  0.00  0.00    +0.000 OA
BRANCH  27  29
ATOM     29  O   UNL     1      -3.806  13.861  25.427  0.00  0.00    +0.000 OA
ATOM     30  H   UNL     1      -4.561  14.476  25.428  0.00  0.00    +0.000 HD
ENDBRANCH  27  29
ENDBRANCH   7  27
TORSDOF 4
ENDMDL
MODEL 5
REMARK VINA RESULT:      -7.1      3.683      4.318
REMARK  Name = 
REMARK  5 active torsions:
REMARK  status: ('A' for Active; 'I' for Inactive)
REMARK    1  A    between atoms: C_1  and  C_2
REMARK    2  A    between atoms: C_4  and  C_5
REMARK    3  A    between atoms: N_7  and  C_8
REMARK    4  A    between atoms: C_14  and  C_15
REMARK    5  A    between atoms: C_15  and  O_17
REMARK                            x       y       z     vdW  Elec       q    Type
REMARK                         _______ _______ _______ _____ _____    ______ ____
ROOT
ATOM      1  C   UNL     1       1.472   9.577  19.324  0.00  0.00    +0.000 C 
ATOM      2  C   UNL     1       2.278   9.407  18.027  0.00  0.00    +0.000 C 
ATOM      3  C   UNL     1       2.306   8.001  17.427  0.00  0.00    +0.000 C 
ATOM      4  N   UNL     1       2.341   6.937  18.427  0.00  0.00    +0.000 N 
ATOM      5  C   UNL     1       3.453   6.119  18.560  0.00  0.00    +0.000 A 
ATOM      6  C   UNL     1       3.293   4.812  19.019  0.00  0.00    +0.000 A 
ATOM      7  C   UNL     1       4.398   3.970  19.170  0.00  0.00    +0.000 A 
ATOM      8  C   UNL     1       5.663   4.452  18.891  0.00  0.00    +0.000 A 
ATOM      9  C   UNL     1       5.735   5.750  18.422  0.00  0.00    +0.000 A 
ATOM     10 CL   UNL     1       7.260   6.445  18.050  0.00  0.00    +0.000 Cl
ATOM     11  N   UNL     1       4.679   6.574  18.228  0.00  0.00    +0.000 NA
ATOM     12  C   UNL     1       1.426   7.067  19.558  0.00  0.00    +0.000 C 
ATOM     13  C   UNL     1       1.668   8.391  20.269  0.00  0.00    +0.000 C 
ENDROOT
BRANCH   1  16
ATOM     14  C   UNL     1      -0.371  11.161  18.837  0.00  0.00    +0.000 C 
ATOM     15  O   UNL     1       0.428  12.069  18.624  0.00  0.00    +0.000 OA
ATOM     16  N   UNL     1       0.048   9.871  19.122  0.00  0.00    +0.000 N 
ATOM     17  H   UNL     1      -0.650   9.195  19.411  0.00  0.00    +0.000 HD
BRANCH  14  21
ATOM     18  C   UNL     1      -4.560  13.182  20.529  0.00  0.00    +0.000 C 
ATOM     19  C   UNL     1      -3.710  12.358  19.628  0.00  0.00    +0.000 A 
ATOM     20  N   UNL     1      -2.350  12.270  19.779  0.00  0.00    +0.000 N 
ATOM     21  C   UNL     1      -1.796  11.419  18.831  0.00  0.00    +0.000 A 
ATOM     22  C   UNL     1      -2.847  10.984  18.044  0.00  0.00    +0.000 A 
ATOM     23 CL   UNL     1      -2.772   9.929  16.705  0.00  0.00    +0.000 Cl
ATOM     24  C   UNL     1      -4.044  11.569  18.547  0.00  0.00    +0.000 A 
ATOM     25 CL   UNL     1      -5.614  11.332  17.930  0.00  0.00    +0.000 Cl
ATOM     26  H   UNL     1      -1.796  12.741  20.486  0.00  0.00    +0.000 HD
ENDBRANCH  14  21
ENDBRANCH   1  16
BRANCH   7  27
ATOM     27  C   UNL     1       4.147   2.602  19.683  0.00  0.00    +0.000 C 
ATOM     28  O   UNL     1       3.026   2.129  19.761  0.00  0.00    +0.000 OA
BRANCH  27  29
ATOM     29  O   UNL     1       5.259   1.919  20.020  0.00  0.00    +0.000 OA
ATOM     30  H   UNL     1       5.521   1.949  20.958  0.00  0.00    +0.000 HD
ENDBRANCH  27  29
ENDBRANCH   7  27
TORSDOF 4
ENDMDL
MODEL 6
REMARK VINA RESULT:      -7.1      1.473      1.530
REMARK  Name = 
REMARK  5 active torsions:
REMARK  status: ('A' for Active; 'I' for Inactive)
REMARK    1  A    between atoms: C_1  and  C_2
REMARK    2  A    between atoms: C_4  and  C_5
REMARK    3  A    between atoms: N_7  and  C_8
REMARK    4  A    between atoms: C_14  and  C_15
REMARK    5  A    between atoms: C_15  and  O_17
REMARK                            x       y       z     vdW  Elec       q    Type
REMARK                         _______ _______ _______ _____ _____    ______ ____
ROOT
ATOM      1  C   UNL     1      -0.268  10.003  19.388  0.00  0.00    +0.000 C 
ATOM      2  C   UNL     1       0.114   8.999  20.487  0.00  0.00    +0.000 C 
ATOM      3  C   UNL     1       1.572   8.540  20.507  0.00  0.00    +0.000 C 
ATOM      4  N   UNL     1       2.159   8.392  19.179  0.00  0.00    +0.000 N 
ATOM      5  C   UNL     1       2.530   7.146  18.697  0.00  0.00    +0.000 A 
ATOM      6  C   UNL     1       3.580   7.047  17.785  0.00  0.00    +0.000 A 
ATOM      7  C   UNL     1       3.967   5.803  17.277  0.00  0.00    +0.000 A 
ATOM      8  C   UNL     1       3.279   4.668  17.662  0.00  0.00    +0.000 A 
ATOM      9  C   UNL     1       2.265   4.848  18.583  0.00  0.00    +0.000 A 
ATOM     10 CL   UNL     1       1.346   3.502  19.122  0.00  0.00    +0.000 Cl
ATOM     11  N   UNL     1       1.895   6.034  19.121  0.00  0.00    +0.000 NA
ATOM     12  C   UNL     1       1.903   9.467  18.223  0.00  0.00    +0.000 C 
ATOM     13  C   UNL     1       0.403   9.663  18.056  0.00  0.00    +0.000 C 
ENDROOT
BRANCH   1  16
ATOM     14  C   UNL     1      -1.022  12.362  19.459  0.00  0.00    +0.000 C 
ATOM     15  O   UNL     1      -2.122  12.054  19.008  0.00  0.00    +0.000 OA
ATOM     16  N   UNL     1      -0.058  11.410  19.749  0.00  0.00    +0.000 N 
ATOM     17  H   UNL     1       0.871  11.731  19.998  0.00  0.00    +0.000 HD
BRANCH  14  21
ATOM     18  C   UNL     1      -0.214  17.039  18.054  0.00  0.00    +0.000 C 
ATOM     19  C   UNL     1      -0.311  15.898  19.003  0.00  0.00    +0.000 A 
ATOM     20  N   UNL     1      -0.696  14.643  18.604  0.00  0.00    +0.000 N 
ATOM     21  C   UNL     1      -0.679  13.753  19.671  0.00  0.00    +0.000 A 
ATOM     22  C   UNL     1      -0.296  14.488  20.780  0.00  0.00    +0.000 A 
ATOM     23 CL   UNL     1      -0.116  13.930  22.382  0.00  0.00    +0.000 Cl
ATOM     24  C   UNL     1      -0.062  15.828  20.358  0.00  0.00    +0.000 A 
ATOM     25 CL   UNL     1       0.443  17.119  21.348  0.00  0.00    +0.000 Cl
ATOM     26  H   UNL     1      -0.953  14.367  17.663  0.00  0.00    +0.000 HD
ENDBRANCH  14  21
ENDBRANCH   1  16
BRANCH   7  27
ATOM     27  C   UNL     1       5.079   5.785  16.296  0.00  0.00    +0.000 C 
ATOM     28  O   UNL     1       5.566   6.805  15.842  0.00  0.00    +0.000 OA
BRANCH  27  29
ATOM     29  O   UNL     1       5.523   4.552  15.980  0.00  0.00    +0.000 OA
ATOM     30  H   UNL     1       5.310   3.839  16.607  0.00  0.00    +0.000 HD
ENDBRANCH  27  29
ENDBRANCH   7  27
TORSDOF 4
ENDMDL
MODEL 7
REMARK VINA RESULT:      -7.0      1.566      1.955
REMARK  Name = 
REMARK  5 active torsions:
REMARK  status: ('A' for Active; 'I' for Inactive)
REMARK    1  A    between atoms: C_1  and  C_2
REMARK    2  A    between atoms: C_4  and  C_5
REMARK    3  A    between atoms: N_7  and  C_8
REMARK    4  A    between atoms: C_14  and  C_15
REMARK    5  A    between atoms: C_15  and  O_17
REMARK                            x       y       z     vdW  Elec       q    Type
REMARK                         _______ _______ _______ _____ _____    ______ ____
ROOT
ATOM      1  C   UNL     1       0.751   9.556  19.030  0.00  0.00    +0.000 C 
ATOM      2  C   UNL     1       0.776   8.466  20.112  0.00  0.00    +0.000 C 
ATOM      3  C   UNL     1       2.064   7.648  20.220  0.00  0.00    +0.000 C 
ATOM      4  N   UNL     1       2.699   7.382  18.932  0.00  0.00    +0.000 N 
ATOM      5  C   UNL     1       2.780   6.093  18.429  0.00  0.00    +0.000 A 
ATOM      6  C   UNL     1       3.840   5.747  17.592  0.00  0.00    +0.000 A 
ATOM      7  C   UNL     1       3.938   4.457  17.064  0.00  0.00    +0.000 A 
ATOM      8  C   UNL     1       2.956   3.527  17.352  0.00  0.00    +0.000 A 
ATOM      9  C   UNL     1       1.951   3.942  18.203  0.00  0.00    +0.000 A 
ATOM     10 CL   UNL     1       0.680   2.865  18.621  0.00  0.00    +0.000 Cl
ATOM     11  N   UNL     1       1.852   5.172  18.761  0.00  0.00    +0.000 NA
ATOM     12  C   UNL     1       2.801   8.506  18.005  0.00  0.00    +0.000 C 
ATOM     13  C   UNL     1       1.418   9.083  17.737  0.00  0.00    +0.000 C 
ENDROOT
BRANCH   1  16
ATOM     14  C   UNL     1       0.664  12.032  19.069  0.00  0.00    +0.000 C 
ATOM     15  O   UNL     1      -0.402  12.032  18.459  0.00  0.00    +0.000 OA
ATOM     16  N   UNL     1       1.281  10.855  19.461  0.00  0.00    +0.000 N 
ATOM     17  H   UNL     1       2.216  10.912  19.848  0.00  0.00    +0.000 HD
BRANCH  14  21
ATOM     18  C   UNL     1       4.395  14.806  20.766  0.00  0.00    +0.000 C 
ATOM     19  C   UNL     1       3.065  14.534  20.160  0.00  0.00    +0.000 A 
ATOM     20  N   UNL     1       2.616  13.261  19.915  0.00  0.00    +0.000 N 
ATOM     21  C   UNL     1       1.337  13.278  19.372  0.00  0.00    +0.000 A 
ATOM     22  C   UNL     1       0.989  14.611  19.249  0.00  0.00    +0.000 A 
ATOM     23 CL   UNL     1      -0.466  15.250  18.627  0.00  0.00    +0.000 Cl
ATOM     24  C   UNL     1       2.069  15.395  19.747  0.00  0.00    +0.000 A 
ATOM     25 CL   UNL     1       2.123  17.095  19.827  0.00  0.00    +0.000 Cl
ATOM     26  H   UNL     1       3.121  12.402  20.104  0.00  0.00    +0.000 HD
ENDBRANCH  14  21
ENDBRANCH   1  16
BRANCH   7  27
ATOM     27  C   UNL     1       5.084   4.174  16.166  0.00  0.00    +0.000 C 
ATOM     28  O   UNL     1       5.044   4.393  14.968  0.00  0.00    +0.000 OA
BRANCH  27  29
ATOM     29  O   UNL     1       6.176   3.692  16.791  0.00  0.00    +0.000 OA
ATOM     30  H   UNL     1       6.914   3.409  16.221  0.00  0.00    +0.000 HD
ENDBRANCH  27  29
ENDBRANCH   7  27
TORSDOF 4
ENDMDL
MODEL 8
REMARK VINA RESULT:      -7.0      3.267      9.273
REMARK  Name = 
REMARK  5 active torsions:
REMARK  status: ('A' for Active; 'I' for Inactive)
REMARK    1  A    between atoms: C_1  and  C_2
REMARK    2  A    between atoms: C_4  and  C_5
REMARK    3  A    between atoms: N_7  and  C_8
REMARK    4  A    between atoms: C_14  and  C_15
REMARK    5  A    between atoms: C_15  and  O_17
REMARK                            x       y       z     vdW  Elec       q    Type
REMARK                         _______ _______ _______ _____ _____    ______ ____
ROOT
ATOM      1  C   UNL     1      -0.018  10.597  20.590  0.00  0.00    +0.000 C 
ATOM      2  C   UNL     1      -1.168  11.220  19.783  0.00  0.00    +0.000 C 
ATOM      3  C   UNL     1      -0.764  12.107  18.605  0.00  0.00    +0.000 C 
ATOM      4  N   UNL     1       0.438  12.898  18.851  0.00  0.00    +0.000 N 
ATOM      5  C   UNL     1       0.378  14.281  18.935  0.00  0.00    +0.000 A 
ATOM      6  C   UNL     1       1.487  15.040  18.565  0.00  0.00    +0.000 A 
ATOM      7  C   UNL     1       1.455  16.435  18.650  0.00  0.00    +0.000 A 
ATOM      8  C   UNL     1       0.323  17.061  19.136  0.00  0.00    +0.000 A 
ATOM      9  C   UNL     1      -0.739  16.240  19.463  0.00  0.00    +0.000 A 
ATOM     10 CL   UNL     1      -2.191  16.918  20.080  0.00  0.00    +0.000 Cl
ATOM     11  N   UNL     1      -0.750  14.890  19.353  0.00  0.00    +0.000 NA
ATOM     12  C   UNL     1       1.566  12.205  19.468  0.00  0.00    +0.000 C 
ATOM     13  C   UNL     1       1.132  11.584  20.789  0.00  0.00    +0.000 C 
ENDROOT
BRANCH   1  16
ATOM     14  C   UNL     1       1.250   8.484  20.856  0.00  0.00    +0.000 C 
ATOM     15  O   UNL     1       1.468   8.731  22.040  0.00  0.00    +0.000 OA
ATOM     16  N   UNL     1       0.464   9.312  20.069  0.00  0.00    +0.000 N 
ATOM     17  H   UNL     1       0.423   9.126  19.074  0.00  0.00    +0.000 HD
BRANCH  14  21
ATOM     18  C   UNL     1       2.672   3.748  20.635  0.00  0.00    +0.000 C 
ATOM     19  C   UNL     1       2.491   5.142  20.148  0.00  0.00    +0.000 A 
ATOM     20  N   UNL     1       1.858   6.104  20.893  0.00  0.00    +0.000 N 
ATOM     21  C   UNL     1       1.844   7.324  20.227  0.00  0.00    +0.000 A 
ATOM     22  C   UNL     1       2.468   7.105  19.011  0.00  0.00    +0.000 A 
ATOM     23 CL   UNL     1       2.732   8.238  17.763  0.00  0.00    +0.000 Cl
ATOM     24  C   UNL     1       2.876   5.741  18.966  0.00  0.00    +0.000 A 
ATOM     25 CL   UNL     1       3.701   4.981  17.684  0.00  0.00    +0.000 Cl
ATOM     26  H   UNL     1       1.453   5.977  21.814  0.00  0.00    +0.000 HD
ENDBRANCH  14  21
ENDBRANCH   1  16
BRANCH   7  27
ATOM     27  C   UNL     1       2.682  17.169  18.257  0.00  0.00    +0.000 C 
ATOM     28  O   UNL     1       2.939  17.438  17.096  0.00  0.00    +0.000 OA
BRANCH  27  29
ATOM     29  O   UNL     1       3.465  17.541  19.289  0.00  0.00    +0.000 OA
ATOM     30  H   UNL     1       3.138  18.274  19.841  0.00  0.00    +0.000 HD
ENDBRANCH  27  29
ENDBRANCH   7  27
TORSDOF 4
ENDMDL
MODEL 9
REMARK VINA RESULT:      -7.0      1.759      1.930
REMARK  Name = 
REMARK  5 active torsions:
REMARK  status: ('A' for Active; 'I' for Inactive)
REMARK    1  A    between atoms: C_1  and  C_2
REMARK    2  A    between atoms: C_4  and  C_5
REMARK    3  A    between atoms: N_7  and  C_8
REMARK    4  A    between atoms: C_14  and  C_15
REMARK    5  A    between atoms: C_15  and  O_17
REMARK                            x       y       z     vdW  Elec       q    Type
REMARK                         _______ _______ _______ _____ _____    ______ ____
ROOT
ATOM      1  C   UNL     1      -0.591  10.008  20.267  0.00  0.00    +0.000 C 
ATOM      2  C   UNL     1      -0.080   9.111  21.404  0.00  0.00    +0.000 C 
ATOM      3  C   UNL     1       1.377   8.656  21.305  0.00  0.00    +0.000 C 
ATOM      4  N   UNL     1       1.816   8.388  19.938  0.00  0.00    +0.000 N 
ATOM      5  C   UNL     1       2.145   7.103  19.535  0.00  0.00    +0.000 A 
ATOM      6  C   UNL     1       3.089   6.921  18.525  0.00  0.00    +0.000 A 
ATOM      7  C   UNL     1       3.432   5.636  18.093  0.00  0.00    +0.000 A 
ATOM      8  C   UNL     1       2.803   4.541  18.653  0.00  0.00    +0.000 A 
ATOM      9  C   UNL     1       1.895   4.804  19.661  0.00  0.00    +0.000 A 
ATOM     10 CL   UNL     1       1.056   3.512  20.420  0.00  0.00    +0.000 Cl
ATOM     11  N   UNL     1       1.574   6.034  20.126  0.00  0.00    +0.000 NA
ATOM     12  C   UNL     1       1.444   9.369  18.923  0.00  0.00    +0.000 C 
ATOM     13  C   UNL     1      -0.068   9.548  18.906  0.00  0.00    +0.000 C 
ENDROOT
BRANCH   1  16
ATOM     14  C   UNL     1      -1.315  12.372  20.094  0.00  0.00    +0.000 C 
ATOM     15  O   UNL     1      -2.426  12.032  19.694  0.00  0.00    +0.000 OA
ATOM     16  N   UNL     1      -0.358  11.443  20.472  0.00  0.00    +0.000 N 
ATOM     17  H   UNL     1       0.577  11.776  20.673  0.00  0.00    +0.000 HD
BRANCH  14  21
ATOM     18  C   UNL     1      -0.335  16.826  18.171  0.00  0.00    +0.000 C 
ATOM     19  C   UNL     1      -0.504  15.812  19.245  0.00  0.00    +0.000 A 
ATOM     20  N   UNL     1      -0.897  14.524  18.985  0.00  0.00    +0.000 N 
ATOM     21  C   UNL     1      -0.952  13.773  20.152  0.00  0.00    +0.000 A 
ATOM     22  C   UNL     1      -0.607  14.633  21.180  0.00  0.00    +0.000 A 
ATOM     23 CL   UNL     1      -0.516  14.274  22.846  0.00  0.00    +0.000 Cl
ATOM     24  C   UNL     1      -0.322  15.906  20.610  0.00  0.00    +0.000 A 
ATOM     25 CL   UNL     1       0.164  17.301  21.458  0.00  0.00    +0.000 Cl
ATOM     26  H   UNL     1      -1.114  14.139  18.073  0.00  0.00    +0.000 HD
ENDBRANCH  14  21
ENDBRANCH   1  16
BRANCH   7  27
ATOM     27  C   UNL     1       4.429   5.529  17.000  0.00  0.00    +0.000 C 
ATOM     28  O   UNL     1       4.819   4.455  16.576  0.00  0.00    +0.000 OA
BRANCH  27  29
ATOM     29  O   UNL     1       4.836   6.711  16.498  0.00  0.00    +0.000 OA
ATOM     30  H   UNL     1       5.596   7.132  16.937  0.00  0.00    +0.000 HD
ENDBRANCH  27  29
ENDBRANCH   7  27
TORSDOF 4
ENDMDL
