MODEL 1
REMARK VINA RESULT:      -8.3      0.000      0.000
REMARK  Name = 
REMARK  11 active torsions:
REMARK  status: ('A' for Active; 'I' for Inactive)
REMARK    1  A    between atoms: C_1  and  O_2
REMARK    2  A    between atoms: O_2  and  C_3
REMARK    3  A    between atoms: C_3  and  C_5
REMARK    4  A    between atoms: C_8  and  C_9
REMARK    5  A    between atoms: C_9  and  N_10
REMARK    6  A    between atoms: C_12  and  C_13
REMARK    7  A    between atoms: C_14  and  C_15
REMARK    8  A    between atoms: N_17  and  C_18
REMARK    9  A    between atoms: C_18  and  C_19
REMARK   10  A    between atoms: C_24  and  O_25
REMARK   11  A    between atoms: O_25  and  C_26
REMARK                            x       y       z     vdW  Elec       q    Type
REMARK                         _______ _______ _______ _____ _____    ______ ____
ROOT
ATOM      1  N   UNL     1       8.640  14.027  17.907  0.00  0.00    +0.000 N 
ATOM      2  C   UNL     1       8.315  12.697  17.700  0.00  0.00    +0.000 A 
ATOM      3  C   UNL     1       9.107  11.698  18.111  0.00  0.00    +0.000 A 
ATOM      4  C   UNL     1      10.391  12.042  18.767  0.00  0.00    +0.000 A 
ATOM      5  O   UNL     1      11.102  11.200  19.305  0.00  0.00    +0.000 OA
ATOM      6  N   UNL     1      10.713  13.371  18.763  0.00  0.00    +0.000 N 
ATOM      7  C   UNL     1       9.851  14.399  18.478  0.00  0.00    +0.000 A 
ATOM      8  O   UNL     1      10.161  15.554  18.758  0.00  0.00    +0.000 OA
ATOM      9  H   UNL     1      11.563  13.628  19.242  0.00  0.00    +0.000 HD
ENDROOT
BRANCH   3  10
ATOM     10  C   UNL     1       8.635  10.256  18.022  0.00  0.00    +0.000 C 
ATOM     11  C   UNL     1       8.229   9.019  17.948  0.00  0.00    +0.000 C 
BRANCH  11  12
ATOM     12  C   UNL     1       7.855   7.626  17.903  0.00  0.00    +0.000 C 
ATOM     13  O   UNL     1       8.204   6.889  18.812  0.00  0.00    +0.000 OA
ATOM     14  N   UNL     1       7.122   7.241  16.811  0.00  0.00    +0.000 N 
ATOM     15  H   UNL     1       6.901   7.926  16.102  0.00  0.00    +0.000 HD
BRANCH  14  16
ATOM     16  C   UNL     1       6.706   5.874  16.619  0.00  0.00    +0.000 C 
BRANCH  16  17
ATOM     17  C   UNL     1       5.324   5.617  17.170  0.00  0.00    +0.000 A 
ATOM     18  C   UNL     1       4.393   6.660  17.284  0.00  0.00    +0.000 A 
ATOM     19  C   UNL     1       3.140   6.426  17.853  0.00  0.00    +0.000 A 
ATOM     20  C   UNL     1       2.818   5.156  18.318  0.00  0.00    +0.000 A 
ATOM     21  F   UNL     1       1.612   4.963  18.879  0.00  0.00    +0.000 F 
ATOM     22  C   UNL     1       3.726   4.099  18.223  0.00  0.00    +0.000 A 
ATOM     23  C   UNL     1       4.975   4.336  17.636  0.00  0.00    +0.000 A 
BRANCH  22  24
ATOM     24  O   UNL     1       3.312   2.898  18.737  0.00  0.00    +0.000 OA
ATOM     25  C   UNL     1       2.574   2.045  17.872  0.00  0.00    +0.000 C 
ENDBRANCH  22  24
ENDBRANCH  16  17
ENDBRANCH  14  16
ENDBRANCH  11  12
ENDBRANCH   3  10
BRANCH   1  26
ATOM     26  C   UNL     1       7.613  15.051  17.701  0.00  0.00    +0.000 C 
BRANCH  26  30
ATOM     27  C   UNL     1       4.107  14.892  20.233  0.00  0.00    +0.000 A 
ATOM     28  C   UNL     1       5.377  15.054  20.793  0.00  0.00    +0.000 A 
ATOM     29  C   UNL     1       6.509  15.069  19.975  0.00  0.00    +0.000 A 
ATOM     30  C   UNL     1       6.393  14.922  18.584  0.00  0.00    +0.000 A 
ATOM     31  C   UNL     1       5.117  14.752  18.029  0.00  0.00    +0.000 A 
ATOM     32  C   UNL     1       3.983  14.737  18.846  0.00  0.00    +0.000 A 
BRANCH  27  33
ATOM     33  C   UNL     1       2.931  14.911  21.143  0.00  0.00    +0.000 C 
ATOM     34  O   UNL     1       2.956  14.507  22.294  0.00  0.00    +0.000 OA
BRANCH  33  36
ATOM     35  C   UNL     1       1.254  16.539  21.178  0.00  0.00    +0.000 C 
ATOM     36  O   UNL     1       1.860  15.435  20.504  0.00  0.00    +0.000 OA
ENDBRANCH  33  36
ENDBRANCH  27  33
ENDBRANCH  26  30
ENDBRANCH   1  26
TORSDOF 9
ENDMDL
MODEL 2
REMARK VINA RESULT:      -8.1      0.735      1.293
REMARK  Name = 
REMARK  11 active torsions:
REMARK  status: ('A' for Active; 'I' for Inactive)
REMARK    1  A    between atoms: C_1  and  O_2
REMARK    2  A    between atoms: O_2  and  C_3
REMARK    3  A    between atoms: C_3  and  C_5
REMARK    4  A    between atoms: C_8  and  C_9
REMARK    5  A    between atoms: C_9  and  N_10
REMARK    6  A    between atoms: C_12  and  C_13
REMARK    7  A    between atoms: C_14  and  C_15
REMARK    8  A    between atoms: N_17  and  C_18
REMARK    9  A    between atoms: C_18  and  C_19
REMARK   10  A    between atoms: C_24  and  O_25
REMARK   11  A    between atoms: O_25  and  C_26
REMARK                            x       y       z     vdW  Elec       q    Type
REMARK                         _______ _______ _______ _____ _____    ______ ____
ROOT
ATOM      1  N   UNL     1       8.571  13.937  17.963  0.00  0.00    +0.000 N 
ATOM      2  C   UNL     1       8.315  12.596  17.731  0.00  0.00    +0.000 A 
ATOM      3  C   UNL     1       9.065  11.625  18.266  0.00  0.00    +0.000 A 
ATOM      4  C   UNL     1      10.231  12.011  19.095  0.00  0.00    +0.000 A 
ATOM      5  O   UNL     1      10.880  11.195  19.742  0.00  0.00    +0.000 OA
ATOM      6  N   UNL     1      10.517  13.348  19.117  0.00  0.00    +0.000 N 
ATOM      7  C   UNL     1       9.678  14.349  18.695  0.00  0.00    +0.000 A 
ATOM      8  O   UNL     1       9.914  15.515  19.001  0.00  0.00    +0.000 OA
ATOM      9  H   UNL     1      11.281  13.635  19.709  0.00  0.00    +0.000 HD
ENDROOT
BRANCH   3  10
ATOM     10  C   UNL     1       8.648  10.169  18.131  0.00  0.00    +0.000 C 
ATOM     11  C   UNL     1       8.290   8.921  18.014  0.00  0.00    +0.000 C 
BRANCH  11  12
ATOM     12  C   UNL     1       7.812   7.564  17.904  0.00  0.00    +0.000 C 
ATOM     13  O   UNL     1       8.117   6.755  18.767  0.00  0.00    +0.000 OA
ATOM     14  N   UNL     1       7.036   7.292  16.808  0.00  0.00    +0.000 N 
ATOM     15  H   UNL     1       6.857   8.029  16.139  0.00  0.00    +0.000 HD
BRANCH  14  16
ATOM     16  C   UNL     1       6.516   5.972  16.553  0.00  0.00    +0.000 C 
BRANCH  16  17
ATOM     17  C   UNL     1       5.173   5.754  17.208  0.00  0.00    +0.000 A 
ATOM     18  C   UNL     1       4.299   6.830  17.427  0.00  0.00    +0.000 A 
ATOM     19  C   UNL     1       3.088   6.628  18.090  0.00  0.00    +0.000 A 
ATOM     20  C   UNL     1       2.751   5.358  18.545  0.00  0.00    +0.000 A 
ATOM     21  F   UNL     1       1.587   5.197  19.198  0.00  0.00    +0.000 F 
ATOM     22  C   UNL     1       3.603   4.269  18.347  0.00  0.00    +0.000 A 
ATOM     23  C   UNL     1       4.808   4.475  17.666  0.00  0.00    +0.000 A 
BRANCH  22  24
ATOM     24  O   UNL     1       3.181   3.071  18.860  0.00  0.00    +0.000 OA
ATOM     25  C   UNL     1       3.490   2.805  20.221  0.00  0.00    +0.000 C 
ENDBRANCH  22  24
ENDBRANCH  16  17
ENDBRANCH  14  16
ENDBRANCH  11  12
ENDBRANCH   3  10
BRANCH   1  26
ATOM     26  C   UNL     1       7.559  14.930  17.595  0.00  0.00    +0.000 C 
BRANCH  26  30
ATOM     27  C   UNL     1       4.026  14.724  20.085  0.00  0.00    +0.000 A 
ATOM     28  C   UNL     1       3.924  14.575  18.699  0.00  0.00    +0.000 A 
ATOM     29  C   UNL     1       5.062  14.677  17.896  0.00  0.00    +0.000 A 
ATOM     30  C   UNL     1       6.320  14.932  18.462  0.00  0.00    +0.000 A 
ATOM     31  C   UNL     1       6.415  15.089  19.851  0.00  0.00    +0.000 A 
ATOM     32  C   UNL     1       5.277  14.987  20.658  0.00  0.00    +0.000 A 
BRANCH  27  33
ATOM     33  C   UNL     1       2.790  14.578  20.899  0.00  0.00    +0.000 C 
ATOM     34  O   UNL     1       2.052  15.506  21.187  0.00  0.00    +0.000 OA
BRANCH  33  36
ATOM     35  C   UNL     1       1.547  12.622  20.588  0.00  0.00    +0.000 C 
ATOM     36  O   UNL     1       2.622  13.285  21.257  0.00  0.00    +0.000 OA
ENDBRANCH  33  36
ENDBRANCH  27  33
ENDBRANCH  26  30
ENDBRANCH   1  26
TORSDOF 9
ENDMDL
MODEL 3
REMARK VINA RESULT:      -8.0      6.322     11.166
REMARK  Name = 
REMARK  11 active torsions:
REMARK  status: ('A' for Active; 'I' for Inactive)
REMARK    1  A    between atoms: C_1  and  O_2
REMARK    2  A    between atoms: O_2  and  C_3
REMARK    3  A    between atoms: C_3  and  C_5
REMARK    4  A    between atoms: C_8  and  C_9
REMARK    5  A    between atoms: C_9  and  N_10
REMARK    6  A    between atoms: C_12  and  C_13
REMARK    7  A    between atoms: C_14  and  C_15
REMARK    8  A    between atoms: N_17  and  C_18
REMARK    9  A    between atoms: C_18  and  C_19
REMARK   10  A    between atoms: C_24  and  O_25
REMARK   11  A    between atoms: O_25  and  C_26
REMARK                            x       y       z     vdW  Elec       q    Type
REMARK                         _______ _______ _______ _____ _____    ______ ____
ROOT
ATOM      1  N   UNL     1       4.719   5.249  18.598  0.00  0.00    +0.000 N 
ATOM      2  C   UNL     1       3.890   6.357  18.597  0.00  0.00    +0.000 A 
ATOM      3  C   UNL     1       2.792   6.425  19.361  0.00  0.00    +0.000 A 
ATOM      4  C   UNL     1       2.440   5.252  20.195  0.00  0.00    +0.000 A 
ATOM      5  O   UNL     1       1.543   5.282  21.031  0.00  0.00    +0.000 OA
ATOM      6  N   UNL     1       3.209   4.138  19.993  0.00  0.00    +0.000 N 
ATOM      7  C   UNL     1       4.409   4.109  19.328  0.00  0.00    +0.000 A 
ATOM      8  O   UNL     1       5.142   3.128  19.431  0.00  0.00    +0.000 OA
ATOM      9  H   UNL     1       3.011   3.343  20.581  0.00  0.00    +0.000 HD
ENDROOT
BRANCH   3  10
ATOM     10  C   UNL     1       2.006   7.722  19.465  0.00  0.00    +0.000 C 
ATOM     11  C   UNL     1       1.333   8.835  19.555  0.00  0.00    +0.000 C 
BRANCH  11  12
ATOM     12  C   UNL     1       0.516  10.019  19.672  0.00  0.00    +0.000 C 
ATOM     13  O   UNL     1       0.024  10.296  20.755  0.00  0.00    +0.000 OA
ATOM     14  N   UNL     1       0.357  10.749  18.523  0.00  0.00    +0.000 N 
ATOM     15  H   UNL     1       0.791  10.422  17.671  0.00  0.00    +0.000 HD
BRANCH  14  16
ATOM     16  C   UNL     1      -0.458  11.938  18.485  0.00  0.00    +0.000 C 
BRANCH  16  17
ATOM     17  C   UNL     1      -1.919  11.619  18.282  0.00  0.00    +0.000 A 
ATOM     18  C   UNL     1      -2.332  10.786  17.229  0.00  0.00    +0.000 A 
ATOM     19  C   UNL     1      -3.690  10.549  17.011  0.00  0.00    +0.000 A 
ATOM     20  C   UNL     1      -4.638  11.148  17.834  0.00  0.00    +0.000 A 
ATOM     21  F   UNL     1      -5.939  10.917  17.588  0.00  0.00    +0.000 F 
ATOM     22  C   UNL     1      -4.259  11.985  18.885  0.00  0.00    +0.000 A 
ATOM     23  C   UNL     1      -2.894  12.206  19.109  0.00  0.00    +0.000 A 
BRANCH  22  24
ATOM     24  O   UNL     1      -5.277  12.540  19.613  0.00  0.00    +0.000 OA
ATOM     25  C   UNL     1      -5.089  12.639  21.018  0.00  0.00    +0.000 C 
ENDBRANCH  22  24
ENDBRANCH  16  17
ENDBRANCH  14  16
ENDBRANCH  11  12
ENDBRANCH   3  10
BRANCH   1  26
ATOM     26  C   UNL     1       6.041   5.348  17.973  0.00  0.00    +0.000 C 
BRANCH  26  30
ATOM     27  C   UNL     1       6.275   4.136  13.826  0.00  0.00    +0.000 A 
ATOM     28  C   UNL     1       7.313   4.868  14.408  0.00  0.00    +0.000 A 
ATOM     29  C   UNL     1       7.218   5.288  15.737  0.00  0.00    +0.000 A 
ATOM     30  C   UNL     1       6.084   4.985  16.506  0.00  0.00    +0.000 A 
ATOM     31  C   UNL     1       5.043   4.257  15.914  0.00  0.00    +0.000 A 
ATOM     32  C   UNL     1       5.137   3.836  14.584  0.00  0.00    +0.000 A 
BRANCH  27  33
ATOM     33  C   UNL     1       6.437   3.688  12.417  0.00  0.00    +0.000 C 
ATOM     34  O   UNL     1       7.350   4.046  11.690  0.00  0.00    +0.000 OA
BRANCH  33  36
ATOM     35  C   UNL     1       5.852   1.712  11.312  0.00  0.00    +0.000 C 
ATOM     36  O   UNL     1       5.437   2.841  12.082  0.00  0.00    +0.000 OA
ENDBRANCH  33  36
ENDBRANCH  27  33
ENDBRANCH  26  30
ENDBRANCH   1  26
TORSDOF 9
ENDMDL
MODEL 4
REMARK VINA RESULT:      -8.0      1.256      1.696
REMARK  Name = 
REMARK  11 active torsions:
REMARK  status: ('A' for Active; 'I' for Inactive)
REMARK    1  A    between atoms: C_1  and  O_2
REMARK    2  A    between atoms: O_2  and  C_3
REMARK    3  A    between atoms: C_3  and  C_5
REMARK    4  A    between atoms: C_8  and  C_9
REMARK    5  A    between atoms: C_9  and  N_10
REMARK    6  A    between atoms: C_12  and  C_13
REMARK    7  A    between atoms: C_14  and  C_15
REMARK    8  A    between atoms: N_17  and  C_18
REMARK    9  A    between atoms: C_18  and  C_19
REMARK   10  A    between atoms: C_24  and  O_25
REMARK   11  A    between atoms: O_25  and  C_26
REMARK                            x       y       z     vdW  Elec       q    Type
REMARK                         _______ _______ _______ _____ _____    ______ ____
ROOT
ATOM      1  N   UNL     1       8.469  13.802  17.917  0.00  0.00    +0.000 N 
ATOM      2  C   UNL     1       8.204  12.471  17.642  0.00  0.00    +0.000 A 
ATOM      3  C   UNL     1       8.926  11.477  18.173  0.00  0.00    +0.000 A 
ATOM      4  C   UNL     1      10.071  11.826  19.047  0.00  0.00    +0.000 A 
ATOM      5  O   UNL     1      10.690  10.985  19.691  0.00  0.00    +0.000 OA
ATOM      6  N   UNL     1      10.371  13.159  19.114  0.00  0.00    +0.000 N 
ATOM      7  C   UNL     1       9.557  14.181  18.693  0.00  0.00    +0.000 A 
ATOM      8  O   UNL     1       9.798  15.336  19.036  0.00  0.00    +0.000 OA
ATOM      9  H   UNL     1      11.121  13.420  19.735  0.00  0.00    +0.000 HD
ENDROOT
BRANCH   3  10
ATOM     10  C   UNL     1       8.496  10.030  17.988  0.00  0.00    +0.000 C 
ATOM     11  C   UNL     1       8.128   8.790  17.831  0.00  0.00    +0.000 C 
BRANCH  11  12
ATOM     12  C   UNL     1       7.801   7.398  17.632  0.00  0.00    +0.000 C 
ATOM     13  O   UNL     1       7.644   6.983  16.494  0.00  0.00    +0.000 OA
ATOM     14  N   UNL     1       7.692   6.642  18.770  0.00  0.00    +0.000 N 
ATOM     15  H   UNL     1       7.822   7.087  19.668  0.00  0.00    +0.000 HD
BRANCH  14  16
ATOM     16  C   UNL     1       7.340   5.245  18.722  0.00  0.00    +0.000 C 
BRANCH  16  17
ATOM     17  C   UNL     1       5.872   5.037  18.441  0.00  0.00    +0.000 A 
ATOM     18  C   UNL     1       5.448   4.445  17.241  0.00  0.00    +0.000 A 
ATOM     19  C   UNL     1       4.087   4.316  16.963  0.00  0.00    +0.000 A 
ATOM     20  C   UNL     1       3.146   4.785  17.874  0.00  0.00    +0.000 A 
ATOM     21  F   UNL     1       1.842   4.665  17.571  0.00  0.00    +0.000 F 
ATOM     22  C   UNL     1       3.537   5.384  19.074  0.00  0.00    +0.000 A 
ATOM     23  C   UNL     1       4.904   5.496  19.354  0.00  0.00    +0.000 A 
BRANCH  22  24
ATOM     24  O   UNL     1       2.527   5.832  19.883  0.00  0.00    +0.000 OA
ATOM     25  C   UNL     1       2.007   4.915  20.836  0.00  0.00    +0.000 C 
ENDBRANCH  22  24
ENDBRANCH  16  17
ENDBRANCH  14  16
ENDBRANCH  11  12
ENDBRANCH   3  10
BRANCH   1  26
ATOM     26  C   UNL     1       7.480  14.817  17.546  0.00  0.00    +0.000 C 
BRANCH  26  30
ATOM     27  C   UNL     1       4.047  14.845  20.180  0.00  0.00    +0.000 A 
ATOM     28  C   UNL     1       3.894  14.556  18.822  0.00  0.00    +0.000 A 
ATOM     29  C   UNL     1       4.999  14.583  17.968  0.00  0.00    +0.000 A 
ATOM     30  C   UNL     1       6.276  14.900  18.456  0.00  0.00    +0.000 A 
ATOM     31  C   UNL     1       6.422  15.197  19.818  0.00  0.00    +0.000 A 
ATOM     32  C   UNL     1       5.317  15.170  20.675  0.00  0.00    +0.000 A 
BRANCH  27  33
ATOM     33  C   UNL     1       2.845  14.774  21.053  0.00  0.00    +0.000 C 
ATOM     34  O   UNL     1       2.872  14.416  22.220  0.00  0.00    +0.000 OA
BRANCH  33  36
ATOM     35  C   UNL     1       0.596  14.346  20.579  0.00  0.00    +0.000 C 
ATOM     36  O   UNL     1       1.748  15.163  20.364  0.00  0.00    +0.000 OA
ENDBRANCH  33  36
ENDBRANCH  27  33
ENDBRANCH  26  30
ENDBRANCH   1  26
TORSDOF 9
ENDMDL
MODEL 5
REMARK VINA RESULT:      -7.9      6.367     11.082
REMARK  Name = 
REMARK  11 active torsions:
REMARK  status: ('A' for Active; 'I' for Inactive)
REMARK    1  A    between atoms: C_1  and  O_2
REMARK    2  A    between atoms: O_2  and  C_3
REMARK    3  A    between atoms: C_3  and  C_5
REMARK    4  A    between atoms: C_8  and  C_9
REMARK    5  A    between atoms: C_9  and  N_10
REMARK    6  A    between atoms: C_12  and  C_13
REMARK    7  A    between atoms: C_14  and  C_15
REMARK    8  A    between atoms: N_17  and  C_18
REMARK    9  A    between atoms: C_18  and  C_19
REMARK   10  A    between atoms: C_24  and  O_25
REMARK   11  A    between atoms: O_25  and  C_26
REMARK                            x       y       z     vdW  Elec       q    Type
REMARK                         _______ _______ _______ _____ _____    ______ ____
ROOT
ATOM      1  N   UNL     1       4.197   4.688  19.225  0.00  0.00    +0.000 N 
ATOM      2  C   UNL     1       3.612   5.938  19.334  0.00  0.00    +0.000 A 
ATOM      3  C   UNL     1       2.378   6.106  19.825  0.00  0.00    +0.000 A 
ATOM      4  C   UNL     1       1.606   4.904  20.218  0.00  0.00    +0.000 A 
ATOM      5  O   UNL     1       0.535   4.973  20.812  0.00  0.00    +0.000 OA
ATOM      6  N   UNL     1       2.187   3.706  19.904  0.00  0.00    +0.000 N 
ATOM      7  C   UNL     1       3.498   3.529  19.538  0.00  0.00    +0.000 A 
ATOM      8  O   UNL     1       3.986   2.401  19.537  0.00  0.00    +0.000 OA
ATOM      9  H   UNL     1       1.696   2.877  20.201  0.00  0.00    +0.000 HD
ENDROOT
BRANCH   3  10
ATOM     10  C   UNL     1       1.840   7.503  20.092  0.00  0.00    +0.000 C 
ATOM     11  C   UNL     1       1.379   8.700  20.324  0.00  0.00    +0.000 C 
BRANCH  11  12
ATOM     12  C   UNL     1       0.790   9.996  20.558  0.00  0.00    +0.000 C 
ATOM     13  O   UNL     1       1.009  10.566  21.615  0.00  0.00    +0.000 OA
ATOM     14  N   UNL     1       0.010  10.489  19.544  0.00  0.00    +0.000 N 
ATOM     15  H   UNL     1      -0.126   9.928  18.714  0.00  0.00    +0.000 HD
BRANCH  14  16
ATOM     16  C   UNL     1      -0.667  11.757  19.653  0.00  0.00    +0.000 C 
BRANCH  16  17
ATOM     17  C   UNL     1      -1.987  11.762  18.920  0.00  0.00    +0.000 A 
ATOM     18  C   UNL     1      -3.184  12.034  19.600  0.00  0.00    +0.000 A 
ATOM     19  C   UNL     1      -4.405  11.973  18.926  0.00  0.00    +0.000 A 
ATOM     20  C   UNL     1      -4.436  11.632  17.578  0.00  0.00    +0.000 A 
ATOM     21  F   UNL     1      -5.627  11.563  16.960  0.00  0.00    +0.000 F 
ATOM     22  C   UNL     1      -3.261  11.351  16.876  0.00  0.00    +0.000 A 
ATOM     23  C   UNL     1      -2.038  11.430  17.554  0.00  0.00    +0.000 A 
BRANCH  22  24
ATOM     24  O   UNL     1      -3.413  11.002  15.560  0.00  0.00    +0.000 OA
ATOM     25  C   UNL     1      -2.729   9.838  15.117  0.00  0.00    +0.000 C 
ENDBRANCH  22  24
ENDBRANCH  16  17
ENDBRANCH  14  16
ENDBRANCH  11  12
ENDBRANCH   3  10
BRANCH   1  26
ATOM     26  C   UNL     1       5.634   4.594  18.958  0.00  0.00    +0.000 C 
BRANCH  26  30
ATOM     27  C   UNL     1       6.597   4.475  14.741  0.00  0.00    +0.000 A 
ATOM     28  C   UNL     1       5.394   3.938  15.207  0.00  0.00    +0.000 A 
ATOM     29  C   UNL     1       5.103   3.946  16.573  0.00  0.00    +0.000 A 
ATOM     30  C   UNL     1       6.009   4.490  17.497  0.00  0.00    +0.000 A 
ATOM     31  C   UNL     1       7.217   5.019  17.024  0.00  0.00    +0.000 A 
ATOM     32  C   UNL     1       7.511   5.012  15.657  0.00  0.00    +0.000 A 
BRANCH  27  33
ATOM     33  C   UNL     1       6.848   4.468  13.275  0.00  0.00    +0.000 C 
ATOM     34  O   UNL     1       7.741   5.101  12.735  0.00  0.00    +0.000 OA
BRANCH  33  36
ATOM     35  C   UNL     1       6.523   2.760  11.712  0.00  0.00    +0.000 C 
ATOM     36  O   UNL     1       5.951   3.668  12.655  0.00  0.00    +0.000 OA
ENDBRANCH  33  36
ENDBRANCH  27  33
ENDBRANCH  26  30
ENDBRANCH   1  26
TORSDOF 9
ENDMDL
MODEL 6
REMARK VINA RESULT:      -7.8      3.717      8.875
REMARK  Name = 
REMARK  11 active torsions:
REMARK  status: ('A' for Active; 'I' for Inactive)
REMARK    1  A    between atoms: C_1  and  O_2
REMARK    2  A    between atoms: O_2  and  C_3
REMARK    3  A    between atoms: C_3  and  C_5
REMARK    4  A    between atoms: C_8  and  C_9
REMARK    5  A    between atoms: C_9  and  N_10
REMARK    6  A    between atoms: C_12  and  C_13
REMARK    7  A    between atoms: C_14  and  C_15
REMARK    8  A    between atoms: N_17  and  C_18
REMARK    9  A    between atoms: C_18  and  C_19
REMARK   10  A    between atoms: C_24  and  O_25
REMARK   11  A    between atoms: O_25  and  C_26
REMARK                            x       y       z     vdW  Elec       q    Type
REMARK                         _______ _______ _______ _____ _____    ______ ____
ROOT
ATOM      1  N   UNL     1       4.743   5.237  18.130  0.00  0.00    +0.000 N 
ATOM      2  C   UNL     1       5.591   6.300  18.384  0.00  0.00    +0.000 A 
ATOM      3  C   UNL     1       6.626   6.593  17.586  0.00  0.00    +0.000 A 
ATOM      4  C   UNL     1       6.888   5.715  16.422  0.00  0.00    +0.000 A 
ATOM      5  O   UNL     1       7.716   5.991  15.560  0.00  0.00    +0.000 OA
ATOM      6  N   UNL     1       6.116   4.587  16.353  0.00  0.00    +0.000 N 
ATOM      7  C   UNL     1       4.973   4.360  17.077  0.00  0.00    +0.000 A 
ATOM      8  O   UNL     1       4.215   3.448  16.754  0.00  0.00    +0.000 OA
ATOM      9  H   UNL     1       6.251   3.999  15.546  0.00  0.00    +0.000 HD
ENDROOT
BRANCH   3  10
ATOM     10  C   UNL     1       7.426   7.868  17.800  0.00  0.00    +0.000 C 
ATOM     11  C   UNL     1       8.112   8.961  17.985  0.00  0.00    +0.000 C 
BRANCH  11  12
ATOM     12  C   UNL     1       8.804  10.202  18.235  0.00  0.00    +0.000 C 
ATOM     13  O   UNL     1       8.528  11.182  17.560  0.00  0.00    +0.000 OA
ATOM     14  N   UNL     1       9.740  10.172  19.236  0.00  0.00    +0.000 N 
ATOM     15  H   UNL     1       9.908   9.303  19.723  0.00  0.00    +0.000 HD
BRANCH  14  16
ATOM     16  C   UNL     1      10.528  11.331  19.574  0.00  0.00    +0.000 C 
BRANCH  16  17
ATOM     17  C   UNL     1       9.941  12.101  20.731  0.00  0.00    +0.000 A 
ATOM     18  C   UNL     1       8.969  11.520  21.560  0.00  0.00    +0.000 A 
ATOM     19  C   UNL     1       8.386  12.262  22.588  0.00  0.00    +0.000 A 
ATOM     20  C   UNL     1       8.761  13.587  22.784  0.00  0.00    +0.000 A 
ATOM     21  F   UNL     1       8.168  14.284  23.769  0.00  0.00    +0.000 F 
ATOM     22  C   UNL     1       9.720  14.195  21.971  0.00  0.00    +0.000 A 
ATOM     23  C   UNL     1      10.314  13.440  20.953  0.00  0.00    +0.000 A 
BRANCH  22  24
ATOM     24  O   UNL     1       9.993  15.511  22.239  0.00  0.00    +0.000 OA
ATOM     25  C   UNL     1       9.980  16.410  21.138  0.00  0.00    +0.000 C 
ENDBRANCH  22  24
ENDBRANCH  16  17
ENDBRANCH  14  16
ENDBRANCH  11  12
ENDBRANCH   3  10
BRANCH   1  26
ATOM     26  C   UNL     1       3.477   5.143  18.862  0.00  0.00    +0.000 C 
BRANCH  26  30
ATOM     27  C   UNL     1       1.463   8.950  19.286  0.00  0.00    +0.000 A 
ATOM     28  C   UNL     1       1.564   8.079  20.374  0.00  0.00    +0.000 A 
ATOM     29  C   UNL     1       2.184   6.836  20.224  0.00  0.00    +0.000 A 
ATOM     30  C   UNL     1       2.712   6.442  18.984  0.00  0.00    +0.000 A 
ATOM     31  C   UNL     1       2.600   7.316  17.895  0.00  0.00    +0.000 A 
ATOM     32  C   UNL     1       1.980   8.561  18.043  0.00  0.00    +0.000 A 
BRANCH  27  33
ATOM     33  C   UNL     1       0.820  10.273  19.504  0.00  0.00    +0.000 C 
ATOM     34  O   UNL     1       0.118  10.537  20.467  0.00  0.00    +0.000 OA
BRANCH  33  36
ATOM     35  C   UNL     1       1.847  12.283  18.895  0.00  0.00    +0.000 C 
ATOM     36  O   UNL     1       1.134  11.113  18.492  0.00  0.00    +0.000 OA
ENDBRANCH  33  36
ENDBRANCH  27  33
ENDBRANCH  26  30
ENDBRANCH   1  26
TORSDOF 9
ENDMDL
MODEL 7
REMARK VINA RESULT:      -7.8      1.571      2.237
REMARK  Name = 
REMARK  11 active torsions:
REMARK  status: ('A' for Active; 'I' for Inactive)
REMARK    1  A    between atoms: C_1  and  O_2
REMARK    2  A    between atoms: O_2  and  C_3
REMARK    3  A    between atoms: C_3  and  C_5
REMARK    4  A    between atoms: C_8  and  C_9
REMARK    5  A    between atoms: C_9  and  N_10
REMARK    6  A    between atoms: C_12  and  C_13
REMARK    7  A    between atoms: C_14  and  C_15
REMARK    8  A    between atoms: N_17  and  C_18
REMARK    9  A    between atoms: C_18  and  C_19
REMARK   10  A    between atoms: C_24  and  O_25
REMARK   11  A    between atoms: O_25  and  C_26
REMARK                            x       y       z     vdW  Elec       q    Type
REMARK                         _______ _______ _______ _____ _____    ______ ____
ROOT
ATOM      1  N   UNL     1       9.337  13.648  18.205  0.00  0.00    +0.000 N 
ATOM      2  C   UNL     1       8.998  12.342  17.898  0.00  0.00    +0.000 A 
ATOM      3  C   UNL     1       9.217  11.331  18.747  0.00  0.00    +0.000 A 
ATOM      4  C   UNL     1       9.885  11.626  20.037  0.00  0.00    +0.000 A 
ATOM      5  O   UNL     1       9.989  10.793  20.931  0.00  0.00    +0.000 OA
ATOM      6  N   UNL     1      10.350  12.905  20.176  0.00  0.00    +0.000 N 
ATOM      7  C   UNL     1      10.005  13.968  19.380  0.00  0.00    +0.000 A 
ATOM      8  O   UNL     1      10.262  15.114  19.744  0.00  0.00    +0.000 OA
ATOM      9  H   UNL     1      10.771  13.136  21.063  0.00  0.00    +0.000 HD
ENDROOT
BRANCH   3  10
ATOM     10  C   UNL     1       8.672   9.943  18.448  0.00  0.00    +0.000 C 
ATOM     11  C   UNL     1       8.205   8.753  18.193  0.00  0.00    +0.000 C 
BRANCH  11  12
ATOM     12  C   UNL     1       7.764   7.418  17.868  0.00  0.00    +0.000 C 
ATOM     13  O   UNL     1       8.083   6.493  18.599  0.00  0.00    +0.000 OA
ATOM     14  N   UNL     1       7.004   7.301  16.733  0.00  0.00    +0.000 N 
ATOM     15  H   UNL     1       6.812   8.128  16.185  0.00  0.00    +0.000 HD
BRANCH  14  16
ATOM     16  C   UNL     1       6.521   6.023  16.271  0.00  0.00    +0.000 C 
BRANCH  16  17
ATOM     17  C   UNL     1       5.188   5.665  16.882  0.00  0.00    +0.000 A 
ATOM     18  C   UNL     1       4.677   4.363  16.773  0.00  0.00    +0.000 A 
ATOM     19  C   UNL     1       3.415   4.058  17.286  0.00  0.00    +0.000 A 
ATOM     20  C   UNL     1       2.657   5.051  17.897  0.00  0.00    +0.000 A 
ATOM     21  F   UNL     1       1.437   4.733  18.363  0.00  0.00    +0.000 F 
ATOM     22  C   UNL     1       3.137   6.358  18.014  0.00  0.00    +0.000 A 
ATOM     23  C   UNL     1       4.410   6.653  17.513  0.00  0.00    +0.000 A 
BRANCH  22  24
ATOM     24  O   UNL     1       2.295   7.259  18.610  0.00  0.00    +0.000 OA
ATOM     25  C   UNL     1       1.921   8.398  17.846  0.00  0.00    +0.000 C 
ENDBRANCH  22  24
ENDBRANCH  16  17
ENDBRANCH  14  16
ENDBRANCH  11  12
ENDBRANCH   3  10
BRANCH   1  26
ATOM     26  C   UNL     1       8.816  14.735  17.372  0.00  0.00    +0.000 C 
BRANCH  26  30
ATOM     27  C   UNL     1       5.005  16.210  18.794  0.00  0.00    +0.000 A 
ATOM     28  C   UNL     1       5.086  14.980  18.136  0.00  0.00    +0.000 A 
ATOM     29  C   UNL     1       6.312  14.524  17.647  0.00  0.00    +0.000 A 
ATOM     30  C   UNL     1       7.478  15.289  17.806  0.00  0.00    +0.000 A 
ATOM     31  C   UNL     1       7.389  16.525  18.460  0.00  0.00    +0.000 A 
ATOM     32  C   UNL     1       6.162  16.983  18.951  0.00  0.00    +0.000 A 
BRANCH  27  33
ATOM     33  C   UNL     1       3.681  16.638  19.322  0.00  0.00    +0.000 C 
ATOM     34  O   UNL     1       3.439  17.769  19.711  0.00  0.00    +0.000 OA
BRANCH  33  36
ATOM     35  C   UNL     1       1.528  15.916  18.768  0.00  0.00    +0.000 C 
ATOM     36  O   UNL     1       2.816  15.599  19.299  0.00  0.00    +0.000 OA
ENDBRANCH  33  36
ENDBRANCH  27  33
ENDBRANCH  26  30
ENDBRANCH   1  26
TORSDOF 9
ENDMDL
MODEL 8
REMARK VINA RESULT:      -7.8      6.136     11.352
REMARK  Name = 
REMARK  11 active torsions:
REMARK  status: ('A' for Active; 'I' for Inactive)
REMARK    1  A    between atoms: C_1  and  O_2
REMARK    2  A    between atoms: O_2  and  C_3
REMARK    3  A    between atoms: C_3  and  C_5
REMARK    4  A    between atoms: C_8  and  C_9
REMARK    5  A    between atoms: C_9  and  N_10
REMARK    6  A    between atoms: C_12  and  C_13
REMARK    7  A    between atoms: C_14  and  C_15
REMARK    8  A    between atoms: N_17  and  C_18
REMARK    9  A    between atoms: C_18  and  C_19
REMARK   10  A    between atoms: C_24  and  O_25
REMARK   11  A    between atoms: O_25  and  C_26
REMARK                            x       y       z     vdW  Elec       q    Type
REMARK                         _______ _______ _______ _____ _____    ______ ____
ROOT
ATOM      1  N   UNL     1       4.684   5.138  18.682  0.00  0.00    +0.000 N 
ATOM      2  C   UNL     1       3.897   6.272  18.579  0.00  0.00    +0.000 A 
ATOM      3  C   UNL     1       2.743   6.401  19.246  0.00  0.00    +0.000 A 
ATOM      4  C   UNL     1       2.283   5.268  20.083  0.00  0.00    +0.000 A 
ATOM      5  O   UNL     1       1.323   5.355  20.841  0.00  0.00    +0.000 OA
ATOM      6  N   UNL     1       3.027   4.124  19.980  0.00  0.00    +0.000 N 
ATOM      7  C   UNL     1       4.275   4.034  19.418  0.00  0.00    +0.000 A 
ATOM      8  O   UNL     1       4.963   3.034  19.611  0.00  0.00    +0.000 OA
ATOM      9  H   UNL     1       2.754   3.356  20.574  0.00  0.00    +0.000 HD
ENDROOT
BRANCH   3  10
ATOM     10  C   UNL     1       1.998   7.726  19.245  0.00  0.00    +0.000 C 
ATOM     11  C   UNL     1       1.358   8.862  19.242  0.00  0.00    +0.000 C 
BRANCH  11  12
ATOM     12  C   UNL     1       0.715  10.153  19.193  0.00  0.00    +0.000 C 
ATOM     13  O   UNL     1      -0.055  10.398  18.278  0.00  0.00    +0.000 OA
ATOM     14  N   UNL     1       1.037  11.018  20.206  0.00  0.00    +0.000 N 
ATOM     15  H   UNL     1       1.704  10.725  20.907  0.00  0.00    +0.000 HD
BRANCH  14  16
ATOM     16  C   UNL     1       0.495  12.352  20.267  0.00  0.00    +0.000 C 
BRANCH  16  17
ATOM     17  C   UNL     1      -0.768  12.416  21.091  0.00  0.00    +0.000 A 
ATOM     18  C   UNL     1      -0.780  11.969  22.421  0.00  0.00    +0.000 A 
ATOM     19  C   UNL     1      -1.968  11.972  23.154  0.00  0.00    +0.000 A 
ATOM     20  C   UNL     1      -3.146  12.411  22.560  0.00  0.00    +0.000 A 
ATOM     21  F   UNL     1      -4.279  12.385  23.283  0.00  0.00    +0.000 F 
ATOM     22  C   UNL     1      -3.167  12.856  21.236  0.00  0.00    +0.000 A 
ATOM     23  C   UNL     1      -1.969  12.865  20.512  0.00  0.00    +0.000 A 
BRANCH  22  24
ATOM     24  O   UNL     1      -4.388  13.239  20.746  0.00  0.00    +0.000 OA
ATOM     25  C   UNL     1      -4.678  14.630  20.752  0.00  0.00    +0.000 C 
ENDBRANCH  22  24
ENDBRANCH  16  17
ENDBRANCH  14  16
ENDBRANCH  11  12
ENDBRANCH   3  10
BRANCH   1  26
ATOM     26  C   UNL     1       6.056   5.174  18.166  0.00  0.00    +0.000 C 
BRANCH  26  30
ATOM     27  C   UNL     1       6.379   4.140  13.977  0.00  0.00    +0.000 A 
ATOM     28  C   UNL     1       5.252   3.765  14.712  0.00  0.00    +0.000 A 
ATOM     29  C   UNL     1       5.167   4.069  16.073  0.00  0.00    +0.000 A 
ATOM     30  C   UNL     1       6.207   4.752  16.722  0.00  0.00    +0.000 A 
ATOM     31  C   UNL     1       7.339   5.119  15.981  0.00  0.00    +0.000 A 
ATOM     32  C   UNL     1       7.426   4.815  14.619  0.00  0.00    +0.000 A 
BRANCH  27  33
ATOM     33  C   UNL     1       6.409   3.818  12.525  0.00  0.00    +0.000 C 
ATOM     34  O   UNL     1       7.264   4.227  11.756  0.00  0.00    +0.000 OA
BRANCH  33  36
ATOM     35  C   UNL     1       5.706   1.902  11.385  0.00  0.00    +0.000 C 
ATOM     36  O   UNL     1       5.365   3.021  12.206  0.00  0.00    +0.000 OA
ENDBRANCH  33  36
ENDBRANCH  27  33
ENDBRANCH  26  30
ENDBRANCH   1  26
TORSDOF 9
ENDMDL
MODEL 9
REMARK VINA RESULT:      -7.7      4.376      7.163
REMARK  Name = 
REMARK  11 active torsions:
REMARK  status: ('A' for Active; 'I' for Inactive)
REMARK    1  A    between atoms: C_1  and  O_2
REMARK    2  A    between atoms: O_2  and  C_3
REMARK    3  A    between atoms: C_3  and  C_5
REMARK    4  A    between atoms: C_8  and  C_9
REMARK    5  A    between atoms: C_9  and  N_10
REMARK    6  A    between atoms: C_12  and  C_13
REMARK    7  A    between atoms: C_14  and  C_15
REMARK    8  A    between atoms: N_17  and  C_18
REMARK    9  A    between atoms: C_18  and  C_19
REMARK   10  A    between atoms: C_24  and  O_25
REMARK   11  A    between atoms: O_25  and  C_26
REMARK                            x       y       z     vdW  Elec       q    Type
REMARK                         _______ _______ _______ _____ _____    ______ ____
ROOT
ATOM      1  N   UNL     1      -0.461  11.740  20.505  0.00  0.00    +0.000 N 
ATOM      2  C   UNL     1       0.274  10.590  20.278  0.00  0.00    +0.000 A 
ATOM      3  C   UNL     1       0.419   9.640  21.211  0.00  0.00    +0.000 A 
ATOM      4  C   UNL     1      -0.196   9.861  22.541  0.00  0.00    +0.000 A 
ATOM      5  O   UNL     1      -0.241   8.987  23.400  0.00  0.00    +0.000 OA
ATOM      6  N   UNL     1      -0.742  11.100  22.736  0.00  0.00    +0.000 N 
ATOM      7  C   UNL     1      -1.018  12.012  21.749  0.00  0.00    +0.000 A 
ATOM      8  O   UNL     1      -1.744  12.974  21.989  0.00  0.00    +0.000 OA
ATOM      9  H   UNL     1      -1.202  11.255  23.620  0.00  0.00    +0.000 HD
ENDROOT
BRANCH   3  10
ATOM     10  C   UNL     1       1.083   8.317  20.866  0.00  0.00    +0.000 C 
ATOM     11  C   UNL     1       1.651   7.182  20.569  0.00  0.00    +0.000 C 
BRANCH  11  12
ATOM     12  C   UNL     1       2.241   5.891  20.310  0.00  0.00    +0.000 C 
ATOM     13  O   UNL     1       1.882   4.931  20.974  0.00  0.00    +0.000 OA
ATOM     14  N   UNL     1       3.181   5.853  19.314  0.00  0.00    +0.000 N 
ATOM     15  H   UNL     1       3.423   6.710  18.836  0.00  0.00    +0.000 HD
BRANCH  14  16
ATOM     16  C   UNL     1       3.874   4.637  18.969  0.00  0.00    +0.000 C 
BRANCH  16  17
ATOM     17  C   UNL     1       4.781   4.819  17.776  0.00  0.00    +0.000 A 
ATOM     18  C   UNL     1       4.693   3.959  16.670  0.00  0.00    +0.000 A 
ATOM     19  C   UNL     1       5.579   4.095  15.600  0.00  0.00    +0.000 A 
ATOM     20  C   UNL     1       6.559   5.081  15.635  0.00  0.00    +0.000 A 
ATOM     21  F   UNL     1       7.411   5.177  14.600  0.00  0.00    +0.000 F 
ATOM     22  C   UNL     1       6.676   5.948  16.724  0.00  0.00    +0.000 A 
ATOM     23  C   UNL     1       5.773   5.816  17.786  0.00  0.00    +0.000 A 
BRANCH  22  24
ATOM     24  O   UNL     1       7.694   6.862  16.662  0.00  0.00    +0.000 OA
ATOM     25  C   UNL     1       7.619   7.974  17.545  0.00  0.00    +0.000 C 
ENDBRANCH  22  24
ENDBRANCH  16  17
ENDBRANCH  14  16
ENDBRANCH  11  12
ENDBRANCH   3  10
BRANCH   1  26
ATOM     26  C   UNL     1      -0.822  12.592  19.369  0.00  0.00    +0.000 C 
BRANCH  26  30
ATOM     27  C   UNL     1       1.714  16.000  18.541  0.00  0.00    +0.000 A 
ATOM     28  C   UNL     1       2.195  14.700  18.362  0.00  0.00    +0.000 A 
ATOM     29  C   UNL     1       1.386  13.603  18.664  0.00  0.00    +0.000 A 
ATOM     30  C   UNL     1       0.083  13.785  19.152  0.00  0.00    +0.000 A 
ATOM     31  C   UNL     1      -0.391  15.090  19.338  0.00  0.00    +0.000 A 
ATOM     32  C   UNL     1       0.417  16.190  19.035  0.00  0.00    +0.000 A 
BRANCH  27  33
ATOM     33  C   UNL     1       2.605  17.134  18.178  0.00  0.00    +0.000 C 
ATOM     34  O   UNL     1       2.981  17.365  17.040  0.00  0.00    +0.000 OA
BRANCH  33  36
ATOM     35  C   UNL     1       4.008  17.317  20.039  0.00  0.00    +0.000 C 
ATOM     36  O   UNL     1       2.919  17.849  19.282  0.00  0.00    +0.000 OA
ENDBRANCH  33  36
ENDBRANCH  27  33
ENDBRANCH  26  30
ENDBRANCH   1  26
TORSDOF 9
ENDMDL
