MODEL 1
REMARK VINA RESULT:      -7.6      0.000      0.000
REMARK  Name = 
REMARK  5 active torsions:
REMARK  status: ('A' for Active; 'I' for Inactive)
REMARK    1  A    between atoms: C_1  and  C_2
REMARK    2  A    between atoms: C_9  and  O_10
REMARK    3  A    between atoms: C_9  and  N_11
REMARK    4  A    between atoms: C_15  and  C_16
REMARK    5  A    between atoms: N_20  and  C_21
REMARK                            x       y       z     vdW  Elec       q    Type
REMARK                         _______ _______ _______ _____ _____    ______ ____
ROOT
ATOM      1  C   UNL     1       5.522   6.459  15.314  0.00  0.00    +0.000 C 
ATOM      2  C   UNL     1       4.881   5.475  16.247  0.00  0.00    +0.000 A 
ATOM      3  C   UNL     1       5.257   4.133  16.262  0.00  0.00    +0.000 A 
ATOM      4  C   UNL     1       4.732   3.276  17.227  0.00  0.00    +0.000 A 
ATOM      5  C   UNL     1       3.866   3.769  18.219  0.00  0.00    +0.000 A 
ATOM      6  C   UNL     1       3.454   5.107  18.216  0.00  0.00    +0.000 A 
ATOM      7  C   UNL     1       3.935   5.927  17.179  0.00  0.00    +0.000 A 
ATOM      8  C   UNL     1       2.560   5.581  19.303  0.00  0.00    +0.000 C 
ATOM      9  C   UNL     1       2.371   6.873  19.665  0.00  0.00    +0.000 C 
ATOM     10  C   UNL     1       1.963   4.565  20.232  0.00  0.00    +0.000 C 
ATOM     11  O   UNL     1       0.943   4.788  20.877  0.00  0.00    +0.000 OA
ATOM     12  N   UNL     1       2.711   3.404  20.352  0.00  0.00    +0.000 N 
ATOM     13  C   UNL     1       2.534   2.598  21.540  0.00  0.00    +0.000 C 
ATOM     14  C   UNL     1       3.484   2.864  19.331  0.00  0.00    +0.000 C 
ATOM     15  O   UNL     1       3.869   1.699  19.324  0.00  0.00    +0.000 OA
ENDROOT
BRANCH   9  16
ATOM     16  N   UNL     1       1.569   7.320  20.705  0.00  0.00    +0.000 N 
ATOM     17  C   UNL     1       0.983   8.532  20.862  0.00  0.00    +0.000 A 
ATOM     18  N   UNL     1       1.035   9.545  20.023  0.00  0.00    +0.000 NA
ATOM     19  C   UNL     1       0.354  10.633  20.520  0.00  0.00    +0.000 A 
ATOM     20  C   UNL     1      -0.183  10.472  21.777  0.00  0.00    +0.000 A 
ATOM     21  C   UNL     1      -0.901  11.460  22.618  0.00  0.00    +0.000 C 
ATOM     22  S   UNL     1       0.104   8.871  22.316  0.00  0.00    +0.000 S 
ATOM     23  H   UNL     1       1.387   6.621  21.419  0.00  0.00    +0.000 HD
ENDBRANCH   9  16
BRANCH   9  24
ATOM     24  O   UNL     1       3.070   7.859  19.005  0.00  0.00    +0.000 OA
ATOM     25  H   UNL     1       2.435   8.268  18.391  0.00  0.00    +0.000 HD
ENDBRANCH   9  24
TORSDOF 2
ENDMDL
MODEL 2
REMARK VINA RESULT:      -7.1      0.979      1.027
REMARK  Name = 
REMARK  5 active torsions:
REMARK  status: ('A' for Active; 'I' for Inactive)
REMARK    1  A    between atoms: C_1  and  C_2
REMARK    2  A    between atoms: C_9  and  O_10
REMARK    3  A    between atoms: C_9  and  N_11
REMARK    4  A    between atoms: C_15  and  C_16
REMARK    5  A    between atoms: N_20  and  C_21
REMARK                            x       y       z     vdW  Elec       q    Type
REMARK                         _______ _______ _______ _____ _____    ______ ____
ROOT
ATOM      1  C   UNL     1       5.749   5.751  15.043  0.00  0.00    +0.000 C 
ATOM      2  C   UNL     1       5.009   5.027  16.130  0.00  0.00    +0.000 A 
ATOM      3  C   UNL     1       5.283   3.695  16.434  0.00  0.00    +0.000 A 
ATOM      4  C   UNL     1       4.667   3.094  17.530  0.00  0.00    +0.000 A 
ATOM      5  C   UNL     1       3.813   3.840  18.363  0.00  0.00    +0.000 A 
ATOM      6  C   UNL     1       3.504   5.172  18.068  0.00  0.00    +0.000 A 
ATOM      7  C   UNL     1       4.074   5.726  16.908  0.00  0.00    +0.000 A 
ATOM      8  C   UNL     1       2.618   5.921  18.997  0.00  0.00    +0.000 C 
ATOM      9  C   UNL     1       2.518   7.269  19.079  0.00  0.00    +0.000 C 
ATOM     10  C   UNL     1       1.920   5.162  20.087  0.00  0.00    +0.000 C 
ATOM     11  O   UNL     1       0.902   5.583  20.628  0.00  0.00    +0.000 OA
ATOM     12  N   UNL     1       2.575   4.003  20.474  0.00  0.00    +0.000 N 
ATOM     13  C   UNL     1       2.304   3.474  21.792  0.00  0.00    +0.000 C 
ATOM     14  C   UNL     1       3.333   3.212  19.618  0.00  0.00    +0.000 C 
ATOM     15  O   UNL     1       3.630   2.047  19.866  0.00  0.00    +0.000 OA
ENDROOT
BRANCH   9  16
ATOM     16  N   UNL     1       1.723   7.976  19.970  0.00  0.00    +0.000 N 
ATOM     17  C   UNL     1       1.024   9.118  19.761  0.00  0.00    +0.000 A 
ATOM     18  N   UNL     1       0.933   9.789  18.632  0.00  0.00    +0.000 NA
ATOM     19  C   UNL     1       0.168  10.921  18.790  0.00  0.00    +0.000 A 
ATOM     20  C   UNL     1      -0.291  11.152  20.067  0.00  0.00    +0.000 A 
ATOM     21  C   UNL     1      -1.066  12.305  20.585  0.00  0.00    +0.000 C 
ATOM     22  S   UNL     1       0.183   9.857  21.083  0.00  0.00    +0.000 S 
ATOM     23  H   UNL     1       1.646   7.547  20.888  0.00  0.00    +0.000 HD
ENDBRANCH   9  16
BRANCH   9  24
ATOM     24  O   UNL     1       3.308   8.048  18.262  0.00  0.00    +0.000 OA
ATOM     25  H   UNL     1       4.117   8.229  18.772  0.00  0.00    +0.000 HD
ENDBRANCH   9  24
TORSDOF 2
ENDMDL
MODEL 3
REMARK VINA RESULT:      -6.7      4.525      7.022
REMARK  Name = 
REMARK  5 active torsions:
REMARK  status: ('A' for Active; 'I' for Inactive)
REMARK    1  A    between atoms: C_1  and  C_2
REMARK    2  A    between atoms: C_9  and  O_10
REMARK    3  A    between atoms: C_9  and  N_11
REMARK    4  A    between atoms: C_15  and  C_16
REMARK    5  A    between atoms: N_20  and  C_21
REMARK                            x       y       z     vdW  Elec       q    Type
REMARK                         _______ _______ _______ _____ _____    ______ ____
ROOT
ATOM      1  C   UNL     1       3.078   7.720  17.878  0.00  0.00    +0.000 C 
ATOM      2  C   UNL     1       2.084   8.175  18.905  0.00  0.00    +0.000 A 
ATOM      3  C   UNL     1       1.868   7.455  20.079  0.00  0.00    +0.000 A 
ATOM      4  C   UNL     1       1.031   7.973  21.066  0.00  0.00    +0.000 A 
ATOM      5  C   UNL     1       0.447   9.242  20.908  0.00  0.00    +0.000 A 
ATOM      6  C   UNL     1       0.629   9.978  19.731  0.00  0.00    +0.000 A 
ATOM      7  C   UNL     1       1.409   9.391  18.719  0.00  0.00    +0.000 A 
ATOM      8  C   UNL     1       0.011  11.324  19.629  0.00  0.00    +0.000 C 
ATOM      9  C   UNL     1       0.376  12.298  18.761  0.00  0.00    +0.000 C 
ATOM     10  C   UNL     1      -0.956  11.751  20.694  0.00  0.00    +0.000 C 
ATOM     11  O   UNL     1      -1.793  12.629  20.504  0.00  0.00    +0.000 OA
ATOM     12  N   UNL     1      -0.759  11.126  21.915  0.00  0.00    +0.000 N 
ATOM     13  C   UNL     1      -1.258  11.780  23.105  0.00  0.00    +0.000 C 
ATOM     14  C   UNL     1      -0.279   9.830  22.061  0.00  0.00    +0.000 C 
ATOM     15  O   UNL     1      -0.413   9.175  23.090  0.00  0.00    +0.000 OA
ENDROOT
BRANCH   9  16
ATOM     16  N   UNL     1      -0.169  13.571  18.686  0.00  0.00    +0.000 N 
ATOM     17  C   UNL     1       0.463  14.769  18.744  0.00  0.00    +0.000 A 
ATOM     18  N   UNL     1       1.758  14.970  18.856  0.00  0.00    +0.000 NA
ATOM     19  C   UNL     1       2.046  16.314  18.920  0.00  0.00    +0.000 A 
ATOM     20  C   UNL     1       0.957  17.154  18.909  0.00  0.00    +0.000 A 
ATOM     21  C   UNL     1       0.916  18.631  19.041  0.00  0.00    +0.000 C 
ATOM     22  S   UNL     1      -0.473  16.228  18.726  0.00  0.00    +0.000 S 
ATOM     23  H   UNL     1      -1.175  13.585  18.541  0.00  0.00    +0.000 HD
ENDBRANCH   9  16
BRANCH   9  24
ATOM     24  O   UNL     1       1.424  12.064  17.897  0.00  0.00    +0.000 OA
ATOM     25  H   UNL     1       2.025  12.823  17.998  0.00  0.00    +0.000 HD
ENDBRANCH   9  24
TORSDOF 2
ENDMDL
MODEL 4
REMARK VINA RESULT:      -6.5      2.176      3.999
REMARK  Name = 
REMARK  5 active torsions:
REMARK  status: ('A' for Active; 'I' for Inactive)
REMARK    1  A    between atoms: C_1  and  C_2
REMARK    2  A    between atoms: C_9  and  O_10
REMARK    3  A    between atoms: C_9  and  N_11
REMARK    4  A    between atoms: C_15  and  C_16
REMARK    5  A    between atoms: N_20  and  C_21
REMARK                            x       y       z     vdW  Elec       q    Type
REMARK                         _______ _______ _______ _____ _____    ______ ____
ROOT
ATOM      1  C   UNL     1       1.554   2.591  21.551  0.00  0.00    +0.000 C 
ATOM      2  C   UNL     1       2.525   3.005  20.485  0.00  0.00    +0.000 A 
ATOM      3  C   UNL     1       3.254   2.065  19.759  0.00  0.00    +0.000 A 
ATOM      4  C   UNL     1       4.051   2.478  18.693  0.00  0.00    +0.000 A 
ATOM      5  C   UNL     1       4.081   3.831  18.311  0.00  0.00    +0.000 A 
ATOM      6  C   UNL     1       3.377   4.800  19.036  0.00  0.00    +0.000 A 
ATOM      7  C   UNL     1       2.650   4.363  20.158  0.00  0.00    +0.000 A 
ATOM      8  C   UNL     1       3.423   6.210  18.573  0.00  0.00    +0.000 C 
ATOM      9  C   UNL     1       2.539   7.181  18.906  0.00  0.00    +0.000 C 
ATOM     10  C   UNL     1       4.389   6.575  17.485  0.00  0.00    +0.000 C 
ATOM     11  O   UNL     1       4.782   7.726  17.317  0.00  0.00    +0.000 OA
ATOM     12  N   UNL     1       4.722   5.519  16.650  0.00  0.00    +0.000 N 
ATOM     13  C   UNL     1       5.212   5.825  15.324  0.00  0.00    +0.000 C 
ATOM     14  C   UNL     1       4.792   4.193  17.060  0.00  0.00    +0.000 C 
ATOM     15  O   UNL     1       5.390   3.325  16.430  0.00  0.00    +0.000 OA
ENDROOT
BRANCH   9  16
ATOM     16  N   UNL     1       2.552   8.490  18.446  0.00  0.00    +0.000 N 
ATOM     17  C   UNL     1       1.735   9.517  18.787  0.00  0.00    +0.000 A 
ATOM     18  N   UNL     1       0.758   9.485  19.668  0.00  0.00    +0.000 NA
ATOM     19  C   UNL     1       0.114  10.699  19.735  0.00  0.00    +0.000 A 
ATOM     20  C   UNL     1       0.567  11.659  18.860  0.00  0.00    +0.000 A 
ATOM     21  C   UNL     1       0.048  13.028  18.627  0.00  0.00    +0.000 C 
ATOM     22  S   UNL     1       1.903  11.043  17.983  0.00  0.00    +0.000 S 
ATOM     23  H   UNL     1       3.299   8.691  17.788  0.00  0.00    +0.000 HD
ENDBRANCH   9  16
BRANCH   9  24
ATOM     24  O   UNL     1       1.478   6.865  19.725  0.00  0.00    +0.000 OA
ATOM     25  H   UNL     1       1.256   7.685  20.200  0.00  0.00    +0.000 HD
ENDBRANCH   9  24
TORSDOF 2
ENDMDL
MODEL 5
REMARK VINA RESULT:      -6.4      3.348      4.918
REMARK  Name = 
REMARK  5 active torsions:
REMARK  status: ('A' for Active; 'I' for Inactive)
REMARK    1  A    between atoms: C_1  and  C_2
REMARK    2  A    between atoms: C_9  and  O_10
REMARK    3  A    between atoms: C_9  and  N_11
REMARK    4  A    between atoms: C_15  and  C_16
REMARK    5  A    between atoms: N_20  and  C_21
REMARK                            x       y       z     vdW  Elec       q    Type
REMARK                         _______ _______ _______ _____ _____    ______ ____
ROOT
ATOM      1  C   UNL     1       4.873   6.990  16.165  0.00  0.00    +0.000 C 
ATOM      2  C   UNL     1       3.864   7.036  17.274  0.00  0.00    +0.000 A 
ATOM      3  C   UNL     1       3.791   6.030  18.236  0.00  0.00    +0.000 A 
ATOM      4  C   UNL     1       2.928   6.169  19.321  0.00  0.00    +0.000 A 
ATOM      5  C   UNL     1       2.170   7.343  19.480  0.00  0.00    +0.000 A 
ATOM      6  C   UNL     1       2.206   8.359  18.518  0.00  0.00    +0.000 A 
ATOM      7  C   UNL     1       3.022   8.152  17.392  0.00  0.00    +0.000 A 
ATOM      8  C   UNL     1       1.405   9.588  18.749  0.00  0.00    +0.000 C 
ATOM      9  C   UNL     1       1.601  10.785  18.145  0.00  0.00    +0.000 C 
ATOM     10  C   UNL     1       0.428   9.602  19.887  0.00  0.00    +0.000 C 
ATOM     11  O   UNL     1      -0.528  10.372  19.920  0.00  0.00    +0.000 OA
ATOM     12  N   UNL     1       0.753   8.735  20.919  0.00  0.00    +0.000 N 
ATOM     13  C   UNL     1       0.212   9.004  22.233  0.00  0.00    +0.000 C 
ATOM     14  C   UNL     1       1.412   7.524  20.742  0.00  0.00    +0.000 C 
ATOM     15  O   UNL     1       1.406   6.627  21.580  0.00  0.00    +0.000 OA
ENDROOT
BRANCH   9  16
ATOM     16  N   UNL     1       0.883  11.948  18.385  0.00  0.00    +0.000 N 
ATOM     17  C   UNL     1       1.335  13.224  18.455  0.00  0.00    +0.000 A 
ATOM     18  N   UNL     1       2.574  13.630  18.277  0.00  0.00    +0.000 NA
ATOM     19  C   UNL     1       2.679  14.990  18.457  0.00  0.00    +0.000 A 
ATOM     20  C   UNL     1       1.518  15.629  18.830  0.00  0.00    +0.000 A 
ATOM     21  C   UNL     1       1.309  17.056  19.174  0.00  0.00    +0.000 C 
ATOM     22  S   UNL     1       0.234  14.496  18.871  0.00  0.00    +0.000 S 
ATOM     23  H   UNL     1      -0.117  11.804  18.492  0.00  0.00    +0.000 HD
ENDBRANCH   9  16
BRANCH   9  24
ATOM     24  O   UNL     1       2.639  10.918  17.249  0.00  0.00    +0.000 OA
ATOM     25  H   UNL     1       2.688  11.868  17.040  0.00  0.00    +0.000 HD
ENDBRANCH   9  24
TORSDOF 2
ENDMDL
MODEL 6
REMARK VINA RESULT:      -6.0      4.115      7.318
REMARK  Name = 
REMARK  5 active torsions:
REMARK  status: ('A' for Active; 'I' for Inactive)
REMARK    1  A    between atoms: C_1  and  C_2
REMARK    2  A    between atoms: C_9  and  O_10
REMARK    3  A    between atoms: C_9  and  N_11
REMARK    4  A    between atoms: C_15  and  C_16
REMARK    5  A    between atoms: N_20  and  C_21
REMARK                            x       y       z     vdW  Elec       q    Type
REMARK                         _______ _______ _______ _____ _____    ______ ____
ROOT
ATOM      1  C   UNL     1       1.569   9.772  17.939  0.00  0.00    +0.000 C 
ATOM      2  C   UNL     1       2.192   8.501  18.437  0.00  0.00    +0.000 A 
ATOM      3  C   UNL     1       1.669   7.813  19.530  0.00  0.00    +0.000 A 
ATOM      4  C   UNL     1       2.195   6.573  19.884  0.00  0.00    +0.000 A 
ATOM      5  C   UNL     1       3.214   5.986  19.113  0.00  0.00    +0.000 A 
ATOM      6  C   UNL     1       3.773   6.664  18.024  0.00  0.00    +0.000 A 
ATOM      7  C   UNL     1       3.279   7.950  17.742  0.00  0.00    +0.000 A 
ATOM      8  C   UNL     1       4.829   5.987  17.228  0.00  0.00    +0.000 C 
ATOM      9  C   UNL     1       5.202   6.315  15.967  0.00  0.00    +0.000 C 
ATOM     10  C   UNL     1       5.404   4.702  17.748  0.00  0.00    +0.000 C 
ATOM     11  O   UNL     1       6.507   4.291  17.401  0.00  0.00    +0.000 OA
ATOM     12  N   UNL     1       4.545   3.997  18.577  0.00  0.00    +0.000 N 
ATOM     13  C   UNL     1       4.758   2.574  18.727  0.00  0.00    +0.000 C 
ATOM     14  C   UNL     1       3.609   4.589  19.417  0.00  0.00    +0.000 C 
ATOM     15  O   UNL     1       3.095   4.006  20.367  0.00  0.00    +0.000 OA
ENDROOT
BRANCH   9  16
ATOM     16  N   UNL     1       6.158   5.663  15.203  0.00  0.00    +0.000 N 
ATOM     17  C   UNL     1       5.978   4.828  14.150  0.00  0.00    +0.000 A 
ATOM     18  N   UNL     1       4.829   4.483  13.609  0.00  0.00    +0.000 NA
ATOM     19  C   UNL     1       5.017   3.592  12.578  0.00  0.00    +0.000 A 
ATOM     20  C   UNL     1       6.320   3.206  12.358  0.00  0.00    +0.000 A 
ATOM     21  C   UNL     1       6.849   2.216  11.390  0.00  0.00    +0.000 C 
ATOM     22  S   UNL     1       7.352   4.059  13.427  0.00  0.00    +0.000 S 
ATOM     23  H   UNL     1       7.116   5.874  15.468  0.00  0.00    +0.000 HD
ENDBRANCH   9  16
BRANCH   9  24
ATOM     24  O   UNL     1       4.552   7.348  15.327  0.00  0.00    +0.000 OA
ATOM     25  H   UNL     1       4.828   7.296  14.394  0.00  0.00    +0.000 HD
ENDBRANCH   9  24
TORSDOF 2
ENDMDL
MODEL 7
REMARK VINA RESULT:      -5.9      9.439     11.075
REMARK  Name = 
REMARK  5 active torsions:
REMARK  status: ('A' for Active; 'I' for Inactive)
REMARK    1  A    between atoms: C_1  and  C_2
REMARK    2  A    between atoms: C_9  and  O_10
REMARK    3  A    between atoms: C_9  and  N_11
REMARK    4  A    between atoms: C_15  and  C_16
REMARK    5  A    between atoms: N_20  and  C_21
REMARK                            x       y       z     vdW  Elec       q    Type
REMARK                         _______ _______ _______ _____ _____    ______ ____
ROOT
ATOM      1  C   UNL     1       8.958   9.315  18.808  0.00  0.00    +0.000 C 
ATOM      2  C   UNL     1       9.549  10.689  18.925  0.00  0.00    +0.000 A 
ATOM      3  C   UNL     1      10.107  11.338  17.826  0.00  0.00    +0.000 A 
ATOM      4  C   UNL     1      10.532  12.660  17.943  0.00  0.00    +0.000 A 
ATOM      5  C   UNL     1      10.351  13.360  19.150  0.00  0.00    +0.000 A 
ATOM      6  C   UNL     1       9.814  12.726  20.276  0.00  0.00    +0.000 A 
ATOM      7  C   UNL     1       9.474  11.367  20.151  0.00  0.00    +0.000 A 
ATOM      8  C   UNL     1       9.620  13.520  21.516  0.00  0.00    +0.000 C 
ATOM      9  C   UNL     1       8.799  13.194  22.544  0.00  0.00    +0.000 C 
ATOM     10  C   UNL     1      10.204  14.901  21.581  0.00  0.00    +0.000 C 
ATOM     11  O   UNL     1      10.445  15.460  22.646  0.00  0.00    +0.000 OA
ATOM     12  N   UNL     1      10.360  15.504  20.342  0.00  0.00    +0.000 N 
ATOM     13  C   UNL     1      10.425  16.948  20.289  0.00  0.00    +0.000 C 
ATOM     14  C   UNL     1      10.643  14.814  19.169  0.00  0.00    +0.000 C 
ATOM     15  O   UNL     1      11.098  15.355  18.165  0.00  0.00    +0.000 OA
ENDROOT
BRANCH   9  16
ATOM     16  N   UNL     1       8.583  13.950  23.687  0.00  0.00    +0.000 N 
ATOM     17  C   UNL     1       8.161  13.538  24.908  0.00  0.00    +0.000 A 
ATOM     18  N   UNL     1       7.893  12.302  25.272  0.00  0.00    +0.000 NA
ATOM     19  C   UNL     1       7.456  12.255  26.575  0.00  0.00    +0.000 A 
ATOM     20  C   UNL     1       7.336  13.473  27.204  0.00  0.00    +0.000 A 
ATOM     21  C   UNL     1       6.827  13.775  28.564  0.00  0.00    +0.000 C 
ATOM     22  S   UNL     1       7.873  14.712  26.150  0.00  0.00    +0.000 S 
ATOM     23  H   UNL     1       8.802  14.936  23.581  0.00  0.00    +0.000 HD
ENDBRANCH   9  16
BRANCH   9  24
ATOM     24  O   UNL     1       8.044  12.045  22.456  0.00  0.00    +0.000 OA
ATOM     25  H   UNL     1       7.320  12.155  23.097  0.00  0.00    +0.000 HD
ENDBRANCH   9  24
TORSDOF 2
ENDMDL
MODEL 8
REMARK VINA RESULT:      -5.9      8.758     10.423
REMARK  Name = 
REMARK  5 active torsions:
REMARK  status: ('A' for Active; 'I' for Inactive)
REMARK    1  A    between atoms: C_1  and  C_2
REMARK    2  A    between atoms: C_9  and  O_10
REMARK    3  A    between atoms: C_9  and  N_11
REMARK    4  A    between atoms: C_15  and  C_16
REMARK    5  A    between atoms: N_20  and  C_21
REMARK                            x       y       z     vdW  Elec       q    Type
REMARK                         _______ _______ _______ _____ _____    ______ ____
ROOT
ATOM      1  C   UNL     1       8.914   9.132  18.849  0.00  0.00    +0.000 C 
ATOM      2  C   UNL     1       9.111  10.600  19.091  0.00  0.00    +0.000 A 
ATOM      3  C   UNL     1       9.154  11.512  18.039  0.00  0.00    +0.000 A 
ATOM      4  C   UNL     1       9.212  12.878  18.307  0.00  0.00    +0.000 A 
ATOM      5  C   UNL     1       9.172  13.344  19.633  0.00  0.00    +0.000 A 
ATOM      6  C   UNL     1       9.153  12.450  20.710  0.00  0.00    +0.000 A 
ATOM      7  C   UNL     1       9.181  11.077  20.409  0.00  0.00    +0.000 A 
ATOM      8  C   UNL     1       9.085  12.997  22.090  0.00  0.00    +0.000 C 
ATOM      9  C   UNL     1       8.690  12.315  23.192  0.00  0.00    +0.000 C 
ATOM     10  C   UNL     1       9.259  14.474  22.283  0.00  0.00    +0.000 C 
ATOM     11  O   UNL     1       9.611  14.957  23.355  0.00  0.00    +0.000 OA
ATOM     12  N   UNL     1       8.907  15.232  21.177  0.00  0.00    +0.000 N 
ATOM     13  C   UNL     1       8.553  16.619  21.384  0.00  0.00    +0.000 C 
ATOM     14  C   UNL     1       9.046  14.805  19.862  0.00  0.00    +0.000 C 
ATOM     15  O   UNL     1       9.049  15.571  18.903  0.00  0.00    +0.000 OA
ENDROOT
BRANCH   9  16
ATOM     16  N   UNL     1       8.587  12.829  24.476  0.00  0.00    +0.000 N 
ATOM     17  C   UNL     1       7.637  12.586  25.413  0.00  0.00    +0.000 A 
ATOM     18  N   UNL     1       6.612  11.768  25.299  0.00  0.00    +0.000 NA
ATOM     19  C   UNL     1       5.832  11.795  26.432  0.00  0.00    +0.000 A 
ATOM     20  C   UNL     1       6.232  12.680  27.406  0.00  0.00    +0.000 A 
ATOM     21  C   UNL     1       5.577  13.005  28.697  0.00  0.00    +0.000 C 
ATOM     22  S   UNL     1       7.686  13.443  26.918  0.00  0.00    +0.000 S 
ATOM     23  H   UNL     1       9.349  13.447  24.739  0.00  0.00    +0.000 HD
ENDBRANCH   9  16
BRANCH   9  24
ATOM     24  O   UNL     1       8.288  11.004  23.057  0.00  0.00    +0.000 OA
ATOM     25  H   UNL     1       7.875  10.943  22.177  0.00  0.00    +0.000 HD
ENDBRANCH   9  24
TORSDOF 2
ENDMDL
MODEL 9
REMARK VINA RESULT:      -5.9      3.027      7.581
REMARK  Name = 
REMARK  5 active torsions:
REMARK  status: ('A' for Active; 'I' for Inactive)
REMARK    1  A    between atoms: C_1  and  C_2
REMARK    2  A    between atoms: C_9  and  O_10
REMARK    3  A    between atoms: C_9  and  N_11
REMARK    4  A    between atoms: C_15  and  C_16
REMARK    5  A    between atoms: N_20  and  C_21
REMARK                            x       y       z     vdW  Elec       q    Type
REMARK                         _______ _______ _______ _____ _____    ______ ____
ROOT
ATOM      1  C   UNL     1       2.205  14.601  17.904  0.00  0.00    +0.000 C 
ATOM      2  C   UNL     1       1.776  13.741  19.057  0.00  0.00    +0.000 A 
ATOM      3  C   UNL     1       1.124  14.280  20.164  0.00  0.00    +0.000 A 
ATOM      4  C   UNL     1       0.628  13.436  21.155  0.00  0.00    +0.000 A 
ATOM      5  C   UNL     1       0.732  12.040  21.018  0.00  0.00    +0.000 A 
ATOM      6  C   UNL     1       1.401  11.472  19.927  0.00  0.00    +0.000 A 
ATOM      7  C   UNL     1       1.966  12.353  18.987  0.00  0.00    +0.000 A 
ATOM      8  C   UNL     1       1.459   9.992  19.818  0.00  0.00    +0.000 C 
ATOM      9  C   UNL     1       1.719   9.292  18.687  0.00  0.00    +0.000 C 
ATOM     10  C   UNL     1       0.992   9.170  20.982  0.00  0.00    +0.000 C 
ATOM     11  O   UNL     1       1.356   8.010  21.153  0.00  0.00    +0.000 OA
ATOM     12  N   UNL     1       0.060   9.809  21.785  0.00  0.00    +0.000 N 
ATOM     13  C   UNL     1      -0.813   8.994  22.600  0.00  0.00    +0.000 C 
ATOM     14  C   UNL     1       0.026  11.182  22.000  0.00  0.00    +0.000 C 
ATOM     15  O   UNL     1      -0.569  11.700  22.941  0.00  0.00    +0.000 OA
ENDROOT
BRANCH   9  16
ATOM     16  N   UNL     1       1.736   7.910  18.569  0.00  0.00    +0.000 N 
ATOM     17  C   UNL     1       2.725   7.111  18.097  0.00  0.00    +0.000 A 
ATOM     18  N   UNL     1       3.910   7.495  17.674  0.00  0.00    +0.000 NA
ATOM     19  C   UNL     1       4.648   6.421  17.233  0.00  0.00    +0.000 A 
ATOM     20  C   UNL     1       4.005   5.205  17.269  0.00  0.00    +0.000 A 
ATOM     21  C   UNL     1       4.484   3.881  16.802  0.00  0.00    +0.000 C 
ATOM     22  S   UNL     1       2.450   5.406  17.961  0.00  0.00    +0.000 S 
ATOM     23  H   UNL     1       0.896   7.454  18.912  0.00  0.00    +0.000 HD
ENDBRANCH   9  16
BRANCH   9  24
ATOM     24  O   UNL     1       1.931   9.978  17.512  0.00  0.00    +0.000 OA
ATOM     25  H   UNL     1       1.789   9.331  16.798  0.00  0.00    +0.000 HD
ENDBRANCH   9  24
TORSDOF 2
ENDMDL
