MODEL 1
REMARK VINA RESULT:      -8.7      0.000      0.000
REMARK  Name = 
REMARK  5 active torsions:
REMARK  status: ('A' for Active; 'I' for Inactive)
REMARK    1  A    between atoms: C_1  and  C_2
REMARK    2  A    between atoms: C_8  and  C_9
REMARK    3  A    between atoms: C_12  and  C_13
REMARK    4  A    between atoms: N_20  and  C_21
REMARK    5  A    between atoms: C_25  and  C_26
REMARK                            x       y       z     vdW  Elec       q    Type
REMARK                         _______ _______ _______ _____ _____    ______ ____
ROOT
ATOM      1  C   UNL     1      -0.480   8.920  23.057  0.00  0.00    +0.000 C 
ATOM      2  C   UNL     1       0.883   9.278  22.485  0.00  0.00    +0.000 C 
ATOM      3  C   UNL     1       1.526   8.113  21.713  0.00  0.00    +0.000 C 
ATOM      4  C   UNL     1       1.562   8.581  20.291  0.00  0.00    +0.000 C 
ATOM      5  C   UNL     1       1.123   9.825  20.110  0.00  0.00    +0.000 C 
ATOM      6  C   UNL     1       0.743  10.338  21.421  0.00  0.00    +0.000 C 
ATOM      7  O   UNL     1       0.357  11.481  21.605  0.00  0.00    +0.000 OA
ATOM      8  C   UNL     1       1.061  10.535  18.828  0.00  0.00    +0.000 C 
ATOM      9  N   UNL     1       1.756   9.747  17.825  0.00  0.00    +0.000 N 
ATOM     10  C   UNL     1       2.182   8.450  17.947  0.00  0.00    +0.000 C 
ATOM     11  O   UNL     1       2.618   7.889  16.942  0.00  0.00    +0.000 OA
ATOM     12  N   UNL     1       2.075   7.862  19.223  0.00  0.00    +0.000 N 
ATOM     13  H   UNL     1       1.794  10.103  16.878  0.00  0.00    +0.000 HD
ENDROOT
BRANCH   8  14
ATOM     14  C   UNL     1      -0.364  10.802  18.378  0.00  0.00    +0.000 A 
ATOM     15  C   UNL     1      -0.971  12.037  18.650  0.00  0.00    +0.000 A 
ATOM     16  C   UNL     1      -2.284  12.285  18.243  0.00  0.00    +0.000 A 
ATOM     17  C   UNL     1      -3.008  11.299  17.567  0.00  0.00    +0.000 A 
ATOM     18  C   UNL     1      -2.416  10.063  17.298  0.00  0.00    +0.000 A 
ATOM     19  C   UNL     1      -1.103   9.817  17.699  0.00  0.00    +0.000 A 
BRANCH  17  20
ATOM     20  C   UNL     1      -4.352  11.553  17.148  0.00  0.00    +0.000 C 
ATOM     21  N   UNL     1      -5.442  11.767  16.808  0.00  0.00    +0.000 NA
ENDBRANCH  17  20
ENDBRANCH   8  14
BRANCH  12  22
ATOM     22  C   UNL     1       2.626   6.560  19.392  0.00  0.00    +0.000 A 
ATOM     23  C   UNL     1       3.981   6.316  19.149  0.00  0.00    +0.000 A 
ATOM     24  C   UNL     1       4.492   5.023  19.276  0.00  0.00    +0.000 A 
ATOM     25  C   UNL     1       3.646   3.966  19.621  0.00  0.00    +0.000 A 
ATOM     26  C   UNL     1       2.284   4.194  19.863  0.00  0.00    +0.000 A 
ATOM     27  C   UNL     1       1.787   5.502  19.767  0.00  0.00    +0.000 A 
BRANCH  26  28
ATOM     28  C   UNL     1       1.344   3.062  20.195  0.00  0.00    +0.000 C 
ATOM     29  F   UNL     1       1.097   2.932  21.529  0.00  0.00    +0.000 F 
ATOM     30  F   UNL     1       0.128   3.191  19.599  0.00  0.00    +0.000 F 
ATOM     31  F   UNL     1       1.832   1.855  19.791  0.00  0.00    +0.000 F 
ENDBRANCH  26  28
ENDBRANCH  12  22
TORSDOF 4
ENDMDL
MODEL 2
REMARK VINA RESULT:      -8.6      0.048      1.120
REMARK  Name = 
REMARK  5 active torsions:
REMARK  status: ('A' for Active; 'I' for Inactive)
REMARK    1  A    between atoms: C_1  and  C_2
REMARK    2  A    between atoms: C_8  and  C_9
REMARK    3  A    between atoms: C_12  and  C_13
REMARK    4  A    between atoms: N_20  and  C_21
REMARK    5  A    between atoms: C_25  and  C_26
REMARK                            x       y       z     vdW  Elec       q    Type
REMARK                         _______ _______ _______ _____ _____    ______ ____
ROOT
ATOM      1  C   UNL     1      -0.443   8.945  23.088  0.00  0.00    +0.000 C 
ATOM      2  C   UNL     1       0.909   9.311  22.496  0.00  0.00    +0.000 C 
ATOM      3  C   UNL     1       1.550   8.149  21.719  0.00  0.00    +0.000 C 
ATOM      4  C   UNL     1       1.564   8.615  20.296  0.00  0.00    +0.000 C 
ATOM      5  C   UNL     1       1.114   9.856  20.118  0.00  0.00    +0.000 C 
ATOM      6  C   UNL     1       0.747  10.368  21.433  0.00  0.00    +0.000 C 
ATOM      7  O   UNL     1       0.356  11.509  21.620  0.00  0.00    +0.000 OA
ATOM      8  C   UNL     1       1.029  10.563  18.835  0.00  0.00    +0.000 C 
ATOM      9  N   UNL     1       1.717   9.778  17.825  0.00  0.00    +0.000 N 
ATOM     10  C   UNL     1       2.153   8.485  17.943  0.00  0.00    +0.000 C 
ATOM     11  O   UNL     1       2.581   7.925  16.934  0.00  0.00    +0.000 OA
ATOM     12  N   UNL     1       2.068   7.899  19.222  0.00  0.00    +0.000 N 
ATOM     13  H   UNL     1       1.740  10.133  16.877  0.00  0.00    +0.000 HD
ENDROOT
BRANCH   8  14
ATOM     14  C   UNL     1      -0.402  10.820  18.404  0.00  0.00    +0.000 A 
ATOM     15  C   UNL     1      -1.115   9.839  17.698  0.00  0.00    +0.000 A 
ATOM     16  C   UNL     1      -2.431  10.074  17.294  0.00  0.00    +0.000 A 
ATOM     17  C   UNL     1      -3.047  11.295  17.583  0.00  0.00    +0.000 A 
ATOM     18  C   UNL     1      -2.344  12.282  18.278  0.00  0.00    +0.000 A 
ATOM     19  C   UNL     1      -1.033  12.045  18.686  0.00  0.00    +0.000 A 
BRANCH  17  20
ATOM     20  C   UNL     1      -4.396  11.536  17.170  0.00  0.00    +0.000 C 
ATOM     21  N   UNL     1      -5.493  11.724  16.837  0.00  0.00    +0.000 NA
ENDBRANCH  17  20
ENDBRANCH   8  14
BRANCH  12  22
ATOM     22  C   UNL     1       2.630   6.601  19.385  0.00  0.00    +0.000 A 
ATOM     23  C   UNL     1       3.985   6.367  19.132  0.00  0.00    +0.000 A 
ATOM     24  C   UNL     1       4.507   5.078  19.255  0.00  0.00    +0.000 A 
ATOM     25  C   UNL     1       3.672   4.015  19.605  0.00  0.00    +0.000 A 
ATOM     26  C   UNL     1       2.310   4.232  19.857  0.00  0.00    +0.000 A 
ATOM     27  C   UNL     1       1.802   5.536  19.766  0.00  0.00    +0.000 A 
BRANCH  26  28
ATOM     28  C   UNL     1       1.382   3.092  20.195  0.00  0.00    +0.000 C 
ATOM     29  F   UNL     1       1.847   1.874  19.798  0.00  0.00    +0.000 F 
ATOM     30  F   UNL     1       1.140   2.984  21.530  0.00  0.00    +0.000 F 
ATOM     31  F   UNL     1       0.161   3.231  19.604  0.00  0.00    +0.000 F 
ENDBRANCH  26  28
ENDBRANCH  12  22
TORSDOF 4
ENDMDL
MODEL 3
REMARK VINA RESULT:      -8.0      1.933      2.595
REMARK  Name = 
REMARK  5 active torsions:
REMARK  status: ('A' for Active; 'I' for Inactive)
REMARK    1  A    between atoms: C_1  and  C_2
REMARK    2  A    between atoms: C_8  and  C_9
REMARK    3  A    between atoms: C_12  and  C_13
REMARK    4  A    between atoms: N_20  and  C_21
REMARK    5  A    between atoms: C_25  and  C_26
REMARK                            x       y       z     vdW  Elec       q    Type
REMARK                         _______ _______ _______ _____ _____    ______ ____
ROOT
ATOM      1  C   UNL     1      -0.489   9.252  23.283  0.00  0.00    +0.000 C 
ATOM      2  C   UNL     1       0.818   9.637  22.609  0.00  0.00    +0.000 C 
ATOM      3  C   UNL     1       1.449   8.472  21.827  0.00  0.00    +0.000 C 
ATOM      4  C   UNL     1       1.373   8.900  20.394  0.00  0.00    +0.000 C 
ATOM      5  C   UNL     1       0.879  10.123  20.211  0.00  0.00    +0.000 C 
ATOM      6  C   UNL     1       0.570  10.661  21.530  0.00  0.00    +0.000 C 
ATOM      7  O   UNL     1       0.159  11.796  21.709  0.00  0.00    +0.000 OA
ATOM      8  C   UNL     1       0.706  10.793  18.917  0.00  0.00    +0.000 C 
ATOM      9  N   UNL     1       1.359  10.000  17.890  0.00  0.00    +0.000 N 
ATOM     10  C   UNL     1       1.837   8.722  18.017  0.00  0.00    +0.000 C 
ATOM     11  O   UNL     1       2.224   8.146  17.000  0.00  0.00    +0.000 OA
ATOM     12  N   UNL     1       1.837   8.168  19.313  0.00  0.00    +0.000 N 
ATOM     13  H   UNL     1       1.321  10.329  16.934  0.00  0.00    +0.000 HD
ENDROOT
BRANCH   8  14
ATOM     14  C   UNL     1      -0.754  11.001  18.558  0.00  0.00    +0.000 A 
ATOM     15  C   UNL     1      -1.411  10.093  17.713  0.00  0.00    +0.000 A 
ATOM     16  C   UNL     1      -2.752  10.285  17.376  0.00  0.00    +0.000 A 
ATOM     17  C   UNL     1      -3.451  11.389  17.872  0.00  0.00    +0.000 A 
ATOM     18  C   UNL     1      -2.804  12.303  18.707  0.00  0.00    +0.000 A 
ATOM     19  C   UNL     1      -1.467  12.109  19.048  0.00  0.00    +0.000 A 
BRANCH  17  20
ATOM     20  C   UNL     1      -4.825  11.584  17.528  0.00  0.00    +0.000 C 
ATOM     21  N   UNL     1      -5.944  11.743  17.256  0.00  0.00    +0.000 NA
ENDBRANCH  17  20
ENDBRANCH   8  14
BRANCH  12  22
ATOM     22  C   UNL     1       2.443   6.890  19.478  0.00  0.00    +0.000 A 
ATOM     23  C   UNL     1       1.767   5.853  20.129  0.00  0.00    +0.000 A 
ATOM     24  C   UNL     1       2.396   4.622  20.321  0.00  0.00    +0.000 A 
ATOM     25  C   UNL     1       3.709   4.431  19.888  0.00  0.00    +0.000 A 
ATOM     26  C   UNL     1       4.403   5.462  19.238  0.00  0.00    +0.000 A 
ATOM     27  C   UNL     1       3.750   6.684  19.018  0.00  0.00    +0.000 A 
BRANCH  26  28
ATOM     28  C   UNL     1       5.836   5.292  18.801  0.00  0.00    +0.000 C 
ATOM     29  F   UNL     1       6.084   4.094  18.202  0.00  0.00    +0.000 F 
ATOM     30  F   UNL     1       6.236   6.245  17.914  0.00  0.00    +0.000 F 
ATOM     31  F   UNL     1       6.705   5.368  19.848  0.00  0.00    +0.000 F 
ENDBRANCH  26  28
ENDBRANCH  12  22
TORSDOF 4
ENDMDL
MODEL 4
REMARK VINA RESULT:      -7.4      2.927      4.510
REMARK  Name = 
REMARK  5 active torsions:
REMARK  status: ('A' for Active; 'I' for Inactive)
REMARK    1  A    between atoms: C_1  and  C_2
REMARK    2  A    between atoms: C_8  and  C_9
REMARK    3  A    between atoms: C_12  and  C_13
REMARK    4  A    between atoms: N_20  and  C_21
REMARK    5  A    between atoms: C_25  and  C_26
REMARK                            x       y       z     vdW  Elec       q    Type
REMARK                         _______ _______ _______ _____ _____    ______ ____
ROOT
ATOM      1  C   UNL     1      -2.501  10.857  15.977  0.00  0.00    +0.000 C 
ATOM      2  C   UNL     1      -2.531  10.086  17.287  0.00  0.00    +0.000 C 
ATOM      3  C   UNL     1      -1.173   9.452  17.634  0.00  0.00    +0.000 C 
ATOM      4  C   UNL     1      -0.722  10.182  18.861  0.00  0.00    +0.000 C 
ATOM      5  C   UNL     1      -1.599  11.071  19.326  0.00  0.00    +0.000 C 
ATOM      6  C   UNL     1      -2.759  11.027  18.444  0.00  0.00    +0.000 C 
ATOM      7  O   UNL     1      -3.770  11.682  18.637  0.00  0.00    +0.000 OA
ATOM      8  C   UNL     1      -1.419  11.913  20.514  0.00  0.00    +0.000 C 
ATOM      9  N   UNL     1      -0.234  11.467  21.226  0.00  0.00    +0.000 N 
ATOM     10  C   UNL     1       0.720  10.595  20.770  0.00  0.00    +0.000 C 
ATOM     11  O   UNL     1       1.738  10.448  21.447  0.00  0.00    +0.000 OA
ATOM     12  N   UNL     1       0.455   9.941  19.551  0.00  0.00    +0.000 N 
ATOM     13  H   UNL     1       0.030  11.957  22.071  0.00  0.00    +0.000 HD
ENDROOT
BRANCH   8  14
ATOM     14  C   UNL     1      -1.293  13.386  20.173  0.00  0.00    +0.000 A 
ATOM     15  C   UNL     1      -0.392  13.808  19.184  0.00  0.00    +0.000 A 
ATOM     16  C   UNL     1      -0.268  15.163  18.871  0.00  0.00    +0.000 A 
ATOM     17  C   UNL     1      -1.038  16.113  19.549  0.00  0.00    +0.000 A 
ATOM     18  C   UNL     1      -1.932  15.705  20.540  0.00  0.00    +0.000 A 
ATOM     19  C   UNL     1      -2.060  14.352  20.849  0.00  0.00    +0.000 A 
BRANCH  17  20
ATOM     20  C   UNL     1      -0.913  17.502  19.227  0.00  0.00    +0.000 C 
ATOM     21  N   UNL     1      -0.816  18.629  18.960  0.00  0.00    +0.000 NA
ENDBRANCH  17  20
ENDBRANCH   8  14
BRANCH  12  22
ATOM     22  C   UNL     1       1.379   8.944  19.129  0.00  0.00    +0.000 A 
ATOM     23  C   UNL     1       2.193   9.145  18.010  0.00  0.00    +0.000 A 
ATOM     24  C   UNL     1       3.060   8.137  17.586  0.00  0.00    +0.000 A 
ATOM     25  C   UNL     1       3.097   6.915  18.260  0.00  0.00    +0.000 A 
ATOM     26  C   UNL     1       2.283   6.695  19.382  0.00  0.00    +0.000 A 
ATOM     27  C   UNL     1       1.442   7.727  19.822  0.00  0.00    +0.000 A 
BRANCH  26  28
ATOM     28  C   UNL     1       2.276   5.369  20.100  0.00  0.00    +0.000 C 
ATOM     29  F   UNL     1       1.999   5.471  21.430  0.00  0.00    +0.000 F 
ATOM     30  F   UNL     1       1.363   4.496  19.592  0.00  0.00    +0.000 F 
ATOM     31  F   UNL     1       3.481   4.737  20.022  0.00  0.00    +0.000 F 
ENDBRANCH  26  28
ENDBRANCH  12  22
TORSDOF 4
ENDMDL
MODEL 5
REMARK VINA RESULT:      -7.4      4.689      8.328
REMARK  Name = 
REMARK  5 active torsions:
REMARK  status: ('A' for Active; 'I' for Inactive)
REMARK    1  A    between atoms: C_1  and  C_2
REMARK    2  A    between atoms: C_8  and  C_9
REMARK    3  A    between atoms: C_12  and  C_13
REMARK    4  A    between atoms: N_20  and  C_21
REMARK    5  A    between atoms: C_25  and  C_26
REMARK                            x       y       z     vdW  Elec       q    Type
REMARK                         _______ _______ _______ _____ _____    ______ ____
ROOT
ATOM      1  C   UNL     1      -3.700   9.447  18.117  0.00  0.00    +0.000 C 
ATOM      2  C   UNL     1      -2.879  10.682  17.781  0.00  0.00    +0.000 C 
ATOM      3  C   UNL     1      -2.861  11.712  18.924  0.00  0.00    +0.000 C 
ATOM      4  C   UNL     1      -1.438  11.727  19.391  0.00  0.00    +0.000 C 
ATOM      5  C   UNL     1      -0.619  10.950  18.685  0.00  0.00    +0.000 C 
ATOM      6  C   UNL     1      -1.421  10.320  17.643  0.00  0.00    +0.000 C 
ATOM      7  O   UNL     1      -0.948   9.593  16.784  0.00  0.00    +0.000 OA
ATOM      8  C   UNL     1       0.820  10.786  18.917  0.00  0.00    +0.000 C 
ATOM      9  N   UNL     1       1.250  11.771  19.895  0.00  0.00    +0.000 N 
ATOM     10  C   UNL     1       0.446  12.556  20.679  0.00  0.00    +0.000 C 
ATOM     11  O   UNL     1       0.979  13.228  21.563  0.00  0.00    +0.000 OA
ATOM     12  N   UNL     1      -0.937  12.523  20.408  0.00  0.00    +0.000 N 
ATOM     13  H   UNL     1       2.224  11.781  20.168  0.00  0.00    +0.000 HD
ENDROOT
BRANCH   8  14
ATOM     14  C   UNL     1       1.180   9.392  19.396  0.00  0.00    +0.000 A 
ATOM     15  C   UNL     1       1.930   8.534  18.578  0.00  0.00    +0.000 A 
ATOM     16  C   UNL     1       2.258   7.248  19.013  0.00  0.00    +0.000 A 
ATOM     17  C   UNL     1       1.832   6.802  20.267  0.00  0.00    +0.000 A 
ATOM     18  C   UNL     1       1.078   7.644  21.087  0.00  0.00    +0.000 A 
ATOM     19  C   UNL     1       0.756   8.930  20.655  0.00  0.00    +0.000 A 
BRANCH  17  20
ATOM     20  C   UNL     1       2.169   5.485  20.714  0.00  0.00    +0.000 C 
ATOM     21  N   UNL     1       2.440   4.412  21.070  0.00  0.00    +0.000 NA
ENDBRANCH  17  20
ENDBRANCH   8  14
BRANCH  12  22
ATOM     22  C   UNL     1      -1.767  13.425  21.132  0.00  0.00    +0.000 A 
ATOM     23  C   UNL     1      -1.850  14.773  20.771  0.00  0.00    +0.000 A 
ATOM     24  C   UNL     1      -2.635  15.650  21.521  0.00  0.00    +0.000 A 
ATOM     25  C   UNL     1      -3.318  15.190  22.649  0.00  0.00    +0.000 A 
ATOM     26  C   UNL     1      -3.241  13.842  23.027  0.00  0.00    +0.000 A 
ATOM     27  C   UNL     1      -2.479  12.961  22.247  0.00  0.00    +0.000 A 
BRANCH  26  28
ATOM     28  C   UNL     1      -3.936  13.332  24.265  0.00  0.00    +0.000 C 
ATOM     29  F   UNL     1      -3.816  11.987  24.443  0.00  0.00    +0.000 F 
ATOM     30  F   UNL     1      -3.470  13.905  25.408  0.00  0.00    +0.000 F 
ATOM     31  F   UNL     1      -5.276  13.582  24.241  0.00  0.00    +0.000 F 
ENDBRANCH  26  28
ENDBRANCH  12  22
TORSDOF 4
ENDMDL
MODEL 6
REMARK VINA RESULT:      -7.2      3.010      4.573
REMARK  Name = 
REMARK  5 active torsions:
REMARK  status: ('A' for Active; 'I' for Inactive)
REMARK    1  A    between atoms: C_1  and  C_2
REMARK    2  A    between atoms: C_8  and  C_9
REMARK    3  A    between atoms: C_12  and  C_13
REMARK    4  A    between atoms: N_20  and  C_21
REMARK    5  A    between atoms: C_25  and  C_26
REMARK                            x       y       z     vdW  Elec       q    Type
REMARK                         _______ _______ _______ _____ _____    ______ ____
ROOT
ATOM      1  C   UNL     1      -2.408  11.127  16.177  0.00  0.00    +0.000 C 
ATOM      2  C   UNL     1      -2.479  10.264  17.427  0.00  0.00    +0.000 C 
ATOM      3  C   UNL     1      -1.141   9.579  17.752  0.00  0.00    +0.000 C 
ATOM      4  C   UNL     1      -0.701  10.209  19.037  0.00  0.00    +0.000 C 
ATOM      5  C   UNL     1      -1.569  11.080  19.548  0.00  0.00    +0.000 C 
ATOM      6  C   UNL     1      -2.712  11.123  18.645  0.00  0.00    +0.000 C 
ATOM      7  O   UNL     1      -3.714  11.784  18.866  0.00  0.00    +0.000 OA
ATOM      8  C   UNL     1      -1.397  11.830  20.798  0.00  0.00    +0.000 C 
ATOM      9  N   UNL     1      -0.235  11.310  21.497  0.00  0.00    +0.000 N 
ATOM     10  C   UNL     1       0.711  10.453  20.998  0.00  0.00    +0.000 C 
ATOM     11  O   UNL     1       1.712  10.236  21.681  0.00  0.00    +0.000 OA
ATOM     12  N   UNL     1       0.458   9.895  19.729  0.00  0.00    +0.000 N 
ATOM     13  H   UNL     1       0.021  11.732  22.380  0.00  0.00    +0.000 HD
ENDROOT
BRANCH   8  14
ATOM     14  C   UNL     1      -1.236  13.321  20.567  0.00  0.00    +0.000 A 
ATOM     15  C   UNL     1      -1.930  14.240  21.368  0.00  0.00    +0.000 A 
ATOM     16  C   UNL     1      -1.789  15.613  21.154  0.00  0.00    +0.000 A 
ATOM     17  C   UNL     1      -0.959  16.083  20.131  0.00  0.00    +0.000 A 
ATOM     18  C   UNL     1      -0.271  15.176  19.323  0.00  0.00    +0.000 A 
ATOM     19  C   UNL     1      -0.407  13.806  19.540  0.00  0.00    +0.000 A 
BRANCH  17  20
ATOM     20  C   UNL     1      -0.813  17.489  19.913  0.00  0.00    +0.000 C 
ATOM     21  N   UNL     1      -0.691  18.630  19.729  0.00  0.00    +0.000 NA
ENDBRANCH  17  20
ENDBRANCH   8  14
BRANCH  12  22
ATOM     22  C   UNL     1       1.371   8.911  19.253  0.00  0.00    +0.000 A 
ATOM     23  C   UNL     1       2.169   9.154  18.131  0.00  0.00    +0.000 A 
ATOM     24  C   UNL     1       3.024   8.160  17.654  0.00  0.00    +0.000 A 
ATOM     25  C   UNL     1       3.065   6.912  18.278  0.00  0.00    +0.000 A 
ATOM     26  C   UNL     1       2.267   6.650  19.401  0.00  0.00    +0.000 A 
ATOM     27  C   UNL     1       1.438   7.667  19.895  0.00  0.00    +0.000 A 
BRANCH  26  28
ATOM     28  C   UNL     1       2.265   5.296  20.065  0.00  0.00    +0.000 C 
ATOM     29  F   UNL     1       1.275   4.473  19.620  0.00  0.00    +0.000 F 
ATOM     30  F   UNL     1       3.430   4.615  19.884  0.00  0.00    +0.000 F 
ATOM     31  F   UNL     1       2.091   5.386  21.414  0.00  0.00    +0.000 F 
ENDBRANCH  26  28
ENDBRANCH  12  22
TORSDOF 4
ENDMDL
MODEL 7
REMARK VINA RESULT:      -6.9      3.346      4.833
REMARK  Name = 
REMARK  5 active torsions:
REMARK  status: ('A' for Active; 'I' for Inactive)
REMARK    1  A    between atoms: C_1  and  C_2
REMARK    2  A    between atoms: C_8  and  C_9
REMARK    3  A    between atoms: C_12  and  C_13
REMARK    4  A    between atoms: N_20  and  C_21
REMARK    5  A    between atoms: C_25  and  C_26
REMARK                            x       y       z     vdW  Elec       q    Type
REMARK                         _______ _______ _______ _____ _____    ______ ____
ROOT
ATOM      1  C   UNL     1      -1.640  11.997  17.314  0.00  0.00    +0.000 C 
ATOM      2  C   UNL     1      -1.984  10.929  18.339  0.00  0.00    +0.000 C 
ATOM      3  C   UNL     1      -0.834   9.934  18.569  0.00  0.00    +0.000 C 
ATOM      4  C   UNL     1      -0.401  10.184  19.981  0.00  0.00    +0.000 C 
ATOM      5  C   UNL     1      -1.132  11.089  20.629  0.00  0.00    +0.000 C 
ATOM      6  C   UNL     1      -2.161  11.548  19.703  0.00  0.00    +0.000 C 
ATOM      7  O   UNL     1      -3.036  12.339  20.016  0.00  0.00    +0.000 OA
ATOM      8  C   UNL     1      -0.936  11.514  22.019  0.00  0.00    +0.000 C 
ATOM      9  N   UNL     1       0.040  10.637  22.642  0.00  0.00    +0.000 N 
ATOM     10  C   UNL     1       0.849   9.728  22.013  0.00  0.00    +0.000 C 
ATOM     11  O   UNL     1       1.725   9.176  22.678  0.00  0.00    +0.000 OA
ATOM     12  N   UNL     1       0.611   9.505  20.642  0.00  0.00    +0.000 N 
ATOM     13  H   UNL     1       0.290  10.808  23.607  0.00  0.00    +0.000 HD
ENDROOT
BRANCH   8  14
ATOM     14  C   UNL     1      -0.477  12.957  22.129  0.00  0.00    +0.000 A 
ATOM     15  C   UNL     1      -1.086  13.825  23.046  0.00  0.00    +0.000 A 
ATOM     16  C   UNL     1      -0.670  15.155  23.146  0.00  0.00    +0.000 A 
ATOM     17  C   UNL     1       0.353  15.634  22.323  0.00  0.00    +0.000 A 
ATOM     18  C   UNL     1       0.961  14.780  21.400  0.00  0.00    +0.000 A 
ATOM     19  C   UNL     1       0.550  13.452  21.305  0.00  0.00    +0.000 A 
BRANCH  17  20
ATOM     20  C   UNL     1       0.780  16.996  22.426  0.00  0.00    +0.000 C 
ATOM     21  N   UNL     1       1.120  18.103  22.513  0.00  0.00    +0.000 NA
ENDBRANCH  17  20
ENDBRANCH   8  14
BRANCH  12  22
ATOM     22  C   UNL     1       1.362   8.476  20.005  0.00  0.00    +0.000 A 
ATOM     23  C   UNL     1       2.055   8.722  18.817  0.00  0.00    +0.000 A 
ATOM     24  C   UNL     1       2.748   7.688  18.185  0.00  0.00    +0.000 A 
ATOM     25  C   UNL     1       2.728   6.400  18.723  0.00  0.00    +0.000 A 
ATOM     26  C   UNL     1       2.033   6.135  19.912  0.00  0.00    +0.000 A 
ATOM     27  C   UNL     1       1.370   7.188  20.558  0.00  0.00    +0.000 A 
BRANCH  26  28
ATOM     28  C   UNL     1       1.963   4.743  20.488  0.00  0.00    +0.000 C 
ATOM     29  F   UNL     1       2.443   4.655  21.760  0.00  0.00    +0.000 F 
ATOM     30  F   UNL     1       0.695   4.251  20.531  0.00  0.00    +0.000 F 
ATOM     31  F   UNL     1       2.686   3.849  19.758  0.00  0.00    +0.000 F 
ENDBRANCH  26  28
ENDBRANCH  12  22
TORSDOF 4
ENDMDL
MODEL 8
REMARK VINA RESULT:      -6.9      5.719      8.994
REMARK  Name = 
REMARK  5 active torsions:
REMARK  status: ('A' for Active; 'I' for Inactive)
REMARK    1  A    between atoms: C_1  and  C_2
REMARK    2  A    between atoms: C_8  and  C_9
REMARK    3  A    between atoms: C_12  and  C_13
REMARK    4  A    between atoms: N_20  and  C_21
REMARK    5  A    between atoms: C_25  and  C_26
REMARK                            x       y       z     vdW  Elec       q    Type
REMARK                         _______ _______ _______ _____ _____    ______ ____
ROOT
ATOM      1  C   UNL     1      -4.093  10.155  18.081  0.00  0.00    +0.000 C 
ATOM      2  C   UNL     1      -3.554  11.572  18.203  0.00  0.00    +0.000 C 
ATOM      3  C   UNL     1      -3.610  12.107  19.644  0.00  0.00    +0.000 C 
ATOM      4  C   UNL     1      -2.175  12.255  20.044  0.00  0.00    +0.000 C 
ATOM      5  C   UNL     1      -1.303  11.970  19.078  0.00  0.00    +0.000 C 
ATOM      6  C   UNL     1      -2.077  11.599  17.900  0.00  0.00    +0.000 C 
ATOM      7  O   UNL     1      -1.568  11.342  16.820  0.00  0.00    +0.000 OA
ATOM      8  C   UNL     1       0.158  12.042  19.193  0.00  0.00    +0.000 C 
ATOM      9  N   UNL     1       0.496  12.681  20.453  0.00  0.00    +0.000 N 
ATOM     10  C   UNL     1      -0.355  12.949  21.494  0.00  0.00    +0.000 C 
ATOM     11  O   UNL     1       0.132  13.358  22.548  0.00  0.00    +0.000 OA
ATOM     12  N   UNL     1      -1.727  12.724  21.269  0.00  0.00    +0.000 N 
ATOM     13  H   UNL     1       1.474  12.799  20.684  0.00  0.00    +0.000 HD
ENDROOT
BRANCH   8  14
ATOM     14  C   UNL     1       0.818  10.678  19.114  0.00  0.00    +0.000 A 
ATOM     15  C   UNL     1       1.494  10.286  17.949  0.00  0.00    +0.000 A 
ATOM     16  C   UNL     1       2.097   9.029  17.870  0.00  0.00    +0.000 A 
ATOM     17  C   UNL     1       2.024   8.145  18.951  0.00  0.00    +0.000 A 
ATOM     18  C   UNL     1       1.347   8.522  20.112  0.00  0.00    +0.000 A 
ATOM     19  C   UNL     1       0.749   9.779  20.194  0.00  0.00    +0.000 A 
BRANCH  17  20
ATOM     20  C   UNL     1       2.643   6.858  18.870  0.00  0.00    +0.000 C 
ATOM     21  N   UNL     1       3.153   5.816  18.806  0.00  0.00    +0.000 NA
ENDBRANCH  17  20
ENDBRANCH   8  14
BRANCH  12  22
ATOM     22  C   UNL     1      -2.632  13.113  22.297  0.00  0.00    +0.000 A 
ATOM     23  C   UNL     1      -3.044  12.202  23.275  0.00  0.00    +0.000 A 
ATOM     24  C   UNL     1      -3.966  12.590  24.248  0.00  0.00    +0.000 A 
ATOM     25  C   UNL     1      -4.501  13.880  24.231  0.00  0.00    +0.000 A 
ATOM     26  C   UNL     1      -4.102  14.804  23.254  0.00  0.00    +0.000 A 
ATOM     27  C   UNL     1      -3.148  14.415  22.302  0.00  0.00    +0.000 A 
BRANCH  26  28
ATOM     28  C   UNL     1      -4.698  16.188  23.191  0.00  0.00    +0.000 C 
ATOM     29  F   UNL     1      -3.767  17.178  23.098  0.00  0.00    +0.000 F 
ATOM     30  F   UNL     1      -5.534  16.358  22.131  0.00  0.00    +0.000 F 
ATOM     31  F   UNL     1      -5.437  16.479  24.299  0.00  0.00    +0.000 F 
ENDBRANCH  26  28
ENDBRANCH  12  22
TORSDOF 4
ENDMDL
MODEL 9
REMARK VINA RESULT:      -6.9      3.344      4.907
REMARK  Name = 
REMARK  5 active torsions:
REMARK  status: ('A' for Active; 'I' for Inactive)
REMARK    1  A    between atoms: C_1  and  C_2
REMARK    2  A    between atoms: C_8  and  C_9
REMARK    3  A    between atoms: C_12  and  C_13
REMARK    4  A    between atoms: N_20  and  C_21
REMARK    5  A    between atoms: C_25  and  C_26
REMARK                            x       y       z     vdW  Elec       q    Type
REMARK                         _______ _______ _______ _____ _____    ______ ____
ROOT
ATOM      1  C   UNL     1      -1.615  12.008  17.296  0.00  0.00    +0.000 C 
ATOM      2  C   UNL     1      -1.964  10.943  18.325  0.00  0.00    +0.000 C 
ATOM      3  C   UNL     1      -0.818   9.944  18.556  0.00  0.00    +0.000 C 
ATOM      4  C   UNL     1      -0.382  10.195  19.967  0.00  0.00    +0.000 C 
ATOM      5  C   UNL     1      -1.109  11.105  20.613  0.00  0.00    +0.000 C 
ATOM      6  C   UNL     1      -2.136  11.567  19.687  0.00  0.00    +0.000 C 
ATOM      7  O   UNL     1      -3.008  12.362  19.999  0.00  0.00    +0.000 OA
ATOM      8  C   UNL     1      -0.909  11.533  22.002  0.00  0.00    +0.000 C 
ATOM      9  N   UNL     1       0.063  10.653  22.626  0.00  0.00    +0.000 N 
ATOM     10  C   UNL     1       0.868   9.739  21.998  0.00  0.00    +0.000 C 
ATOM     11  O   UNL     1       1.742   9.185  22.665  0.00  0.00    +0.000 OA
ATOM     12  N   UNL     1       0.627   9.514  20.628  0.00  0.00    +0.000 N 
ATOM     13  H   UNL     1       0.314  10.825  23.591  0.00  0.00    +0.000 HD
ENDROOT
BRANCH   8  14
ATOM     14  C   UNL     1      -0.444  12.974  22.107  0.00  0.00    +0.000 A 
ATOM     15  C   UNL     1       0.611  13.437  21.306  0.00  0.00    +0.000 A 
ATOM     16  C   UNL     1       1.046  14.760  21.404  0.00  0.00    +0.000 A 
ATOM     17  C   UNL     1       0.439  15.634  22.311  0.00  0.00    +0.000 A 
ATOM     18  C   UNL     1      -0.606  15.181  23.120  0.00  0.00    +0.000 A 
ATOM     19  C   UNL     1      -1.045  13.862  23.017  0.00  0.00    +0.000 A 
BRANCH  17  20
ATOM     20  C   UNL     1       0.883  16.990  22.411  0.00  0.00    +0.000 C 
ATOM     21  N   UNL     1       1.248  18.091  22.485  0.00  0.00    +0.000 NA
ENDBRANCH  17  20
ENDBRANCH   8  14
BRANCH  12  22
ATOM     22  C   UNL     1       1.373   8.480  19.994  0.00  0.00    +0.000 A 
ATOM     23  C   UNL     1       2.067   8.720  18.805  0.00  0.00    +0.000 A 
ATOM     24  C   UNL     1       2.755   7.682  18.175  0.00  0.00    +0.000 A 
ATOM     25  C   UNL     1       2.729   6.395  18.715  0.00  0.00    +0.000 A 
ATOM     26  C   UNL     1       2.033   6.136  19.905  0.00  0.00    +0.000 A 
ATOM     27  C   UNL     1       1.375   7.193  20.550  0.00  0.00    +0.000 A 
BRANCH  26  28
ATOM     28  C   UNL     1       1.956   4.745  20.484  0.00  0.00    +0.000 C 
ATOM     29  F   UNL     1       0.687   4.254  20.556  0.00  0.00    +0.000 F 
ATOM     30  F   UNL     1       2.672   3.834  19.770  0.00  0.00    +0.000 F 
ATOM     31  F   UNL     1       2.445   4.691  21.755  0.00  0.00    +0.000 F 
ENDBRANCH  26  28
ENDBRANCH  12  22
TORSDOF 4
ENDMDL
