MODEL 1
REMARK VINA RESULT:      -7.3      0.000      0.000
REMARK  Name = 
REMARK  4 active torsions:
REMARK  status: ('A' for Active; 'I' for Inactive)
REMARK    1  A    between atoms: C_1  and  O_2
REMARK    2  A    between atoms: O_2  and  C_3
REMARK    3  A    between atoms: C_7  and  N_8
REMARK    4  A    between atoms: C_17  and  O_18
REMARK                            x       y       z     vdW  Elec       q    Type
REMARK                         _______ _______ _______ _____ _____    ______ ____
ROOT
ATOM      1  N   UNL     1       5.267   4.250  19.317  0.00  0.00    +0.000 N 
ATOM      2  C   UNL     1       5.823   4.336  18.014  0.00  0.00    +0.000 A 
ATOM      3  N   UNL     1       5.018   4.202  16.930  0.00  0.00    +0.000 NA
ATOM      4  C   UNL     1       5.673   4.410  15.759  0.00  0.00    +0.000 A 
ATOM      5  N   UNL     1       5.139   4.376  14.540  0.00  0.00    +0.000 NA
ATOM      6  O   UNL     1       6.199   4.667  13.683  0.00  0.00    +0.000 OA
ATOM      7  N   UNL     1       7.393   4.880  14.374  0.00  0.00    +0.000 NA
ATOM      8  C   UNL     1       7.071   4.723  15.658  0.00  0.00    +0.000 A 
ATOM      9  N   UNL     1       7.907   4.838  16.732  0.00  0.00    +0.000 NA
ATOM     10  C   UNL     1       7.213   4.634  17.879  0.00  0.00    +0.000 A 
ATOM     11  H   UNL     1       5.915   3.809  19.964  0.00  0.00    +0.000 HD
ENDROOT
BRANCH   1  16
ATOM     12  C   UNL     1       1.797   5.152  20.405  0.00  0.00    +0.000 A 
ATOM     13  C   UNL     1       1.201   3.893  20.406  0.00  0.00    +0.000 A 
ATOM     14  C   UNL     1       1.944   2.762  20.068  0.00  0.00    +0.000 A 
ATOM     15  C   UNL     1       3.291   2.887  19.713  0.00  0.00    +0.000 A 
ATOM     16  C   UNL     1       3.906   4.145  19.675  0.00  0.00    +0.000 A 
ATOM     17  C   UNL     1       3.143   5.264  20.049  0.00  0.00    +0.000 A 
BRANCH  12  19
ATOM     18  C   UNL     1       1.555   7.489  20.777  0.00  0.00    +0.000 C 
ATOM     19  O   UNL     1       0.982   6.185  20.781  0.00  0.00    +0.000 OA
ENDBRANCH  12  19
ENDBRANCH   1  16
BRANCH  10  20
ATOM     20  O   UNL     1       7.998   4.738  18.992  0.00  0.00    +0.000 OA
ATOM     21  H   UNL     1       8.888   4.732  18.596  0.00  0.00    +0.000 HD
ENDBRANCH  10  20
TORSDOF 3
ENDMDL
MODEL 2
REMARK VINA RESULT:      -7.3      2.767      6.033
REMARK  Name = 
REMARK  4 active torsions:
REMARK  status: ('A' for Active; 'I' for Inactive)
REMARK    1  A    between atoms: C_1  and  O_2
REMARK    2  A    between atoms: O_2  and  C_3
REMARK    3  A    between atoms: C_7  and  N_8
REMARK    4  A    between atoms: C_17  and  O_18
REMARK                            x       y       z     vdW  Elec       q    Type
REMARK                         _______ _______ _______ _____ _____    ______ ____
ROOT
ATOM      1  N   UNL     1       5.891   3.793  18.977  0.00  0.00    +0.000 N 
ATOM      2  C   UNL     1       4.527   3.403  19.000  0.00  0.00    +0.000 A 
ATOM      3  N   UNL     1       3.613   4.114  18.294  0.00  0.00    +0.000 NA
ATOM      4  C   UNL     1       2.372   3.562  18.331  0.00  0.00    +0.000 A 
ATOM      5  N   UNL     1       1.287   4.018  17.709  0.00  0.00    +0.000 NA
ATOM      6  O   UNL     1       0.284   3.108  18.038  0.00  0.00    +0.000 OA
ATOM      7  N   UNL     1       0.751   2.086  18.868  0.00  0.00    +0.000 NA
ATOM      8  C   UNL     1       2.042   2.363  19.049  0.00  0.00    +0.000 A 
ATOM      9  N   UNL     1       2.938   1.645  19.788  0.00  0.00    +0.000 NA
ATOM     10  C   UNL     1       4.163   2.222  19.715  0.00  0.00    +0.000 A 
ATOM     11  H   UNL     1       6.338   3.622  19.873  0.00  0.00    +0.000 HD
ENDROOT
BRANCH   1  16
ATOM     12  C   UNL     1       7.286   5.672  16.051  0.00  0.00    +0.000 A 
ATOM     13  C   UNL     1       7.715   6.837  16.683  0.00  0.00    +0.000 A 
ATOM     14  C   UNL     1       7.559   6.987  18.062  0.00  0.00    +0.000 A 
ATOM     15  C   UNL     1       6.959   5.973  18.815  0.00  0.00    +0.000 A 
ATOM     16  C   UNL     1       6.491   4.805  18.198  0.00  0.00    +0.000 A 
ATOM     17  C   UNL     1       6.688   4.667  16.814  0.00  0.00    +0.000 A 
BRANCH  12  19
ATOM     18  C   UNL     1       6.786   4.646  13.964  0.00  0.00    +0.000 C 
ATOM     19  O   UNL     1       7.515   5.621  14.702  0.00  0.00    +0.000 OA
ENDBRANCH  12  19
ENDBRANCH   1  16
BRANCH  10  20
ATOM     20  O   UNL     1       5.105   1.545  20.437  0.00  0.00    +0.000 OA
ATOM     21  H   UNL     1       5.748   2.253  20.619  0.00  0.00    +0.000 HD
ENDBRANCH  10  20
TORSDOF 3
ENDMDL
MODEL 3
REMARK VINA RESULT:      -7.2      2.363      6.349
REMARK  Name = 
REMARK  4 active torsions:
REMARK  status: ('A' for Active; 'I' for Inactive)
REMARK    1  A    between atoms: C_1  and  O_2
REMARK    2  A    between atoms: O_2  and  C_3
REMARK    3  A    between atoms: C_7  and  N_8
REMARK    4  A    between atoms: C_17  and  O_18
REMARK                            x       y       z     vdW  Elec       q    Type
REMARK                         _______ _______ _______ _____ _____    ______ ____
ROOT
ATOM      1  N   UNL     1       5.964   3.673  18.849  0.00  0.00    +0.000 N 
ATOM      2  C   UNL     1       4.693   3.589  19.475  0.00  0.00    +0.000 A 
ATOM      3  N   UNL     1       3.796   4.592  19.310  0.00  0.00    +0.000 NA
ATOM      4  C   UNL     1       2.593   4.323  19.881  0.00  0.00    +0.000 A 
ATOM      5  N   UNL     1       1.515   5.104  19.856  0.00  0.00    +0.000 NA
ATOM      6  O   UNL     1       0.546   4.389  20.557  0.00  0.00    +0.000 OA
ATOM      7  N   UNL     1       1.027   3.162  21.018  0.00  0.00    +0.000 NA
ATOM      8  C   UNL     1       2.292   3.117  20.601  0.00  0.00    +0.000 A 
ATOM      9  N   UNL     1       3.186   2.105  20.803  0.00  0.00    +0.000 NA
ATOM     10  C   UNL     1       4.366   2.408  20.208  0.00  0.00    +0.000 A 
ATOM     11  H   UNL     1       6.687   3.255  19.428  0.00  0.00    +0.000 HD
ENDROOT
BRANCH   1  16
ATOM     12  C   UNL     1       6.864   5.420  15.659  0.00  0.00    +0.000 A 
ATOM     13  C   UNL     1       7.365   6.617  16.163  0.00  0.00    +0.000 A 
ATOM     14  C   UNL     1       7.420   6.833  17.541  0.00  0.00    +0.000 A 
ATOM     15  C   UNL     1       6.959   5.852  18.423  0.00  0.00    +0.000 A 
ATOM     16  C   UNL     1       6.422   4.651  17.941  0.00  0.00    +0.000 A 
ATOM     17  C   UNL     1       6.406   4.448  16.551  0.00  0.00    +0.000 A 
BRANCH  12  19
ATOM     18  C   UNL     1       6.366   4.100  13.744  0.00  0.00    +0.000 C 
ATOM     19  O   UNL     1       6.884   5.306  14.295  0.00  0.00    +0.000 OA
ENDBRANCH  12  19
ENDBRANCH   1  16
BRANCH  10  20
ATOM     20  O   UNL     1       5.304   1.428  20.375  0.00  0.00    +0.000 OA
ATOM     21  H   UNL     1       4.757   0.627  20.286  0.00  0.00    +0.000 HD
ENDBRANCH  10  20
TORSDOF 3
ENDMDL
MODEL 4
REMARK VINA RESULT:      -7.2      2.705      6.127
REMARK  Name = 
REMARK  4 active torsions:
REMARK  status: ('A' for Active; 'I' for Inactive)
REMARK    1  A    between atoms: C_1  and  O_2
REMARK    2  A    between atoms: O_2  and  C_3
REMARK    3  A    between atoms: C_7  and  N_8
REMARK    4  A    between atoms: C_17  and  O_18
REMARK                            x       y       z     vdW  Elec       q    Type
REMARK                         _______ _______ _______ _____ _____    ______ ____
ROOT
ATOM      1  N   UNL     1       6.020   3.848  18.882  0.00  0.00    +0.000 N 
ATOM      2  C   UNL     1       4.733   3.703  19.464  0.00  0.00    +0.000 A 
ATOM      3  N   UNL     1       3.889   4.764  19.501  0.00  0.00    +0.000 NA
ATOM      4  C   UNL     1       2.663   4.445  19.991  0.00  0.00    +0.000 A 
ATOM      5  N   UNL     1       1.625   5.269  20.117  0.00  0.00    +0.000 NA
ATOM      6  O   UNL     1       0.608   4.476  20.644  0.00  0.00    +0.000 OA
ATOM      7  N   UNL     1       1.019   3.157  20.847  0.00  0.00    +0.000 NA
ATOM      8  C   UNL     1       2.289   3.134  20.443  0.00  0.00    +0.000 A 
ATOM      9  N   UNL     1       3.129   2.057  20.440  0.00  0.00    +0.000 NA
ATOM     10  C   UNL     1       4.335   2.415  19.934  0.00  0.00    +0.000 A 
ATOM     11  H   UNL     1       6.709   3.284  19.370  0.00  0.00    +0.000 HD
ENDROOT
BRANCH   1  16
ATOM     12  C   UNL     1       7.830   7.051  18.169  0.00  0.00    +0.000 A 
ATOM     13  C   UNL     1       7.547   7.201  16.814  0.00  0.00    +0.000 A 
ATOM     14  C   UNL     1       6.754   6.262  16.152  0.00  0.00    +0.000 A 
ATOM     15  C   UNL     1       6.248   5.158  16.845  0.00  0.00    +0.000 A 
ATOM     16  C   UNL     1       6.543   4.968  18.201  0.00  0.00    +0.000 A 
ATOM     17  C   UNL     1       7.319   5.944  18.850  0.00  0.00    +0.000 A 
BRANCH  12  19
ATOM     18  C   UNL     1       8.419   9.355  18.192  0.00  0.00    +0.000 C 
ATOM     19  O   UNL     1       8.592   8.045  18.721  0.00  0.00    +0.000 OA
ENDBRANCH  12  19
ENDBRANCH   1  16
BRANCH  10  20
ATOM     20  O   UNL     1       5.220   1.375  19.904  0.00  0.00    +0.000 OA
ATOM     21  H   UNL     1       4.671   0.650  20.254  0.00  0.00    +0.000 HD
ENDBRANCH  10  20
TORSDOF 3
ENDMDL
MODEL 5
REMARK VINA RESULT:      -7.1      2.728      6.460
REMARK  Name = 
REMARK  4 active torsions:
REMARK  status: ('A' for Active; 'I' for Inactive)
REMARK    1  A    between atoms: C_1  and  O_2
REMARK    2  A    between atoms: O_2  and  C_3
REMARK    3  A    between atoms: C_7  and  N_8
REMARK    4  A    between atoms: C_17  and  O_18
REMARK                            x       y       z     vdW  Elec       q    Type
REMARK                         _______ _______ _______ _____ _____    ______ ____
ROOT
ATOM      1  N   UNL     1       3.457   4.275  16.994  0.00  0.00    +0.000 N 
ATOM      2  C   UNL     1       2.930   3.731  18.194  0.00  0.00    +0.000 A 
ATOM      3  N   UNL     1       3.775   3.328  19.177  0.00  0.00    +0.000 NA
ATOM      4  C   UNL     1       3.124   2.927  20.299  0.00  0.00    +0.000 A 
ATOM      5  N   UNL     1       3.688   2.511  21.432  0.00  0.00    +0.000 NA
ATOM      6  O   UNL     1       2.615   2.234  22.277  0.00  0.00    +0.000 OA
ATOM      7  N   UNL     1       1.384   2.478  21.665  0.00  0.00    +0.000 NA
ATOM      8  C   UNL     1       1.695   2.908  20.443  0.00  0.00    +0.000 A 
ATOM      9  N   UNL     1       0.824   3.283  19.459  0.00  0.00    +0.000 NA
ATOM     10  C   UNL     1       1.513   3.686  18.364  0.00  0.00    +0.000 A 
ATOM     11  H   UNL     1       2.889   4.017  16.193  0.00  0.00    +0.000 HD
ENDROOT
BRANCH   1  16
ATOM     12  C   UNL     1       6.896   5.751  17.181  0.00  0.00    +0.000 A 
ATOM     13  C   UNL     1       7.476   5.175  16.054  0.00  0.00    +0.000 A 
ATOM     14  C   UNL     1       6.732   4.325  15.235  0.00  0.00    +0.000 A 
ATOM     15  C   UNL     1       5.401   4.036  15.550  0.00  0.00    +0.000 A 
ATOM     16  C   UNL     1       4.803   4.578  16.696  0.00  0.00    +0.000 A 
ATOM     17  C   UNL     1       5.566   5.454  17.485  0.00  0.00    +0.000 A 
BRANCH  12  19
ATOM     18  C   UNL     1       7.677   7.969  17.541  0.00  0.00    +0.000 C 
ATOM     19  O   UNL     1       7.710   6.590  17.894  0.00  0.00    +0.000 OA
ENDBRANCH  12  19
ENDBRANCH   1  16
BRANCH  10  20
ATOM     20  O   UNL     1       0.693   4.076  17.343  0.00  0.00    +0.000 OA
ATOM     21  H   UNL     1       0.607   5.029  17.523  0.00  0.00    +0.000 HD
ENDBRANCH  10  20
TORSDOF 3
ENDMDL
MODEL 6
REMARK VINA RESULT:      -7.1      3.046      5.752
REMARK  Name = 
REMARK  4 active torsions:
REMARK  status: ('A' for Active; 'I' for Inactive)
REMARK    1  A    between atoms: C_1  and  O_2
REMARK    2  A    between atoms: O_2  and  C_3
REMARK    3  A    between atoms: C_7  and  N_8
REMARK    4  A    between atoms: C_17  and  O_18
REMARK                            x       y       z     vdW  Elec       q    Type
REMARK                         _______ _______ _______ _____ _____    ______ ____
ROOT
ATOM      1  N   UNL     1       5.954   3.870  18.949  0.00  0.00    +0.000 N 
ATOM      2  C   UNL     1       4.596   3.458  18.952  0.00  0.00    +0.000 A 
ATOM      3  N   UNL     1       3.665   4.210  18.313  0.00  0.00    +0.000 NA
ATOM      4  C   UNL     1       2.433   3.637  18.315  0.00  0.00    +0.000 A 
ATOM      5  N   UNL     1       1.335   4.125  17.742  0.00  0.00    +0.000 NA
ATOM      6  O   UNL     1       0.349   3.175  18.004  0.00  0.00    +0.000 OA
ATOM      7  N   UNL     1       0.839   2.096  18.743  0.00  0.00    +0.000 NA
ATOM      8  C   UNL     1       2.128   2.378  18.936  0.00  0.00    +0.000 A 
ATOM      9  N   UNL     1       3.042   1.616  19.606  0.00  0.00    +0.000 NA
ATOM     10  C   UNL     1       4.257   2.217  19.570  0.00  0.00    +0.000 A 
ATOM     11  H   UNL     1       6.412   3.633  19.824  0.00  0.00    +0.000 HD
ENDROOT
BRANCH   1  16
ATOM     12  C   UNL     1       7.824   7.031  18.206  0.00  0.00    +0.000 A 
ATOM     13  C   UNL     1       7.646   7.108  16.827  0.00  0.00    +0.000 A 
ATOM     14  C   UNL     1       6.902   6.134  16.158  0.00  0.00    +0.000 A 
ATOM     15  C   UNL     1       6.342   5.069  16.868  0.00  0.00    +0.000 A 
ATOM     16  C   UNL     1       6.531   4.952  18.251  0.00  0.00    +0.000 A 
ATOM     17  C   UNL     1       7.259   5.961  18.904  0.00  0.00    +0.000 A 
BRANCH  12  19
ATOM     18  C   UNL     1       8.421   9.332  18.147  0.00  0.00    +0.000 C 
ATOM     19  O   UNL     1       8.546   8.053  18.760  0.00  0.00    +0.000 OA
ENDBRANCH  12  19
ENDBRANCH   1  16
BRANCH  10  20
ATOM     20  O   UNL     1       5.216   1.498  20.226  0.00  0.00    +0.000 OA
ATOM     21  H   UNL     1       5.938   1.506  19.572  0.00  0.00    +0.000 HD
ENDBRANCH  10  20
TORSDOF 3
ENDMDL
MODEL 7
REMARK VINA RESULT:      -7.0      1.964      2.388
REMARK  Name = 
REMARK  4 active torsions:
REMARK  status: ('A' for Active; 'I' for Inactive)
REMARK    1  A    between atoms: C_1  and  O_2
REMARK    2  A    between atoms: O_2  and  C_3
REMARK    3  A    between atoms: C_7  and  N_8
REMARK    4  A    between atoms: C_17  and  O_18
REMARK                            x       y       z     vdW  Elec       q    Type
REMARK                         _______ _______ _______ _____ _____    ______ ____
ROOT
ATOM      1  N   UNL     1       5.444   5.079  17.641  0.00  0.00    +0.000 N 
ATOM      2  C   UNL     1       5.957   4.855  16.336  0.00  0.00    +0.000 A 
ATOM      3  N   UNL     1       5.304   4.016  15.493  0.00  0.00    +0.000 NA
ATOM      4  C   UNL     1       5.855   3.983  14.252  0.00  0.00    +0.000 A 
ATOM      5  N   UNL     1       5.414   3.278  13.212  0.00  0.00    +0.000 NA
ATOM      6  O   UNL     1       6.294   3.590  12.177  0.00  0.00    +0.000 OA
ATOM      7  N   UNL     1       7.284   4.490  12.579  0.00  0.00    +0.000 NA
ATOM      8  C   UNL     1       7.014   4.735  13.861  0.00  0.00    +0.000 A 
ATOM      9  N   UNL     1       7.704   5.566  14.699  0.00  0.00    +0.000 NA
ATOM     10  C   UNL     1       7.115   5.579  15.920  0.00  0.00    +0.000 A 
ATOM     11  H   UNL     1       6.195   5.206  18.313  0.00  0.00    +0.000 HD
ENDROOT
BRANCH   1  16
ATOM     12  C   UNL     1       2.965   3.464  19.939  0.00  0.00    +0.000 A 
ATOM     13  C   UNL     1       1.786   3.686  19.231  0.00  0.00    +0.000 A 
ATOM     14  C   UNL     1       1.818   4.347  18.002  0.00  0.00    +0.000 A 
ATOM     15  C   UNL     1       3.033   4.801  17.480  0.00  0.00    +0.000 A 
ATOM     16  C   UNL     1       4.228   4.616  18.187  0.00  0.00    +0.000 A 
ATOM     17  C   UNL     1       4.172   3.921  19.407  0.00  0.00    +0.000 A 
BRANCH  12  19
ATOM     18  C   UNL     1       1.492   2.624  21.607  0.00  0.00    +0.000 C 
ATOM     19  O   UNL     1       2.819   2.781  21.116  0.00  0.00    +0.000 OA
ENDBRANCH  12  19
ENDBRANCH   1  16
BRANCH  10  20
ATOM     20  O   UNL     1       7.762   6.396  16.804  0.00  0.00    +0.000 OA
ATOM     21  H   UNL     1       7.945   7.172  16.244  0.00  0.00    +0.000 HD
ENDBRANCH  10  20
TORSDOF 3
ENDMDL
MODEL 8
REMARK VINA RESULT:      -7.0      4.206      7.187
REMARK  Name = 
REMARK  4 active torsions:
REMARK  status: ('A' for Active; 'I' for Inactive)
REMARK    1  A    between atoms: C_1  and  O_2
REMARK    2  A    between atoms: O_2  and  C_3
REMARK    3  A    between atoms: C_7  and  N_8
REMARK    4  A    between atoms: C_17  and  O_18
REMARK                            x       y       z     vdW  Elec       q    Type
REMARK                         _______ _______ _______ _____ _____    ______ ____
ROOT
ATOM      1  N   UNL     1       2.346   7.580  18.084  0.00  0.00    +0.000 N 
ATOM      2  C   UNL     1       1.794   8.468  19.043  0.00  0.00    +0.000 A 
ATOM      3  N   UNL     1       1.600   8.045  20.317  0.00  0.00    +0.000 NA
ATOM      4  C   UNL     1       1.165   9.033  21.141  0.00  0.00    +0.000 A 
ATOM      5  N   UNL     1       0.919   8.922  22.445  0.00  0.00    +0.000 NA
ATOM      6  O   UNL     1       0.518  10.198  22.837  0.00  0.00    +0.000 OA
ATOM      7  N   UNL     1       0.514  11.101  21.771  0.00  0.00    +0.000 NA
ATOM      8  C   UNL     1       0.915  10.384  20.721  0.00  0.00    +0.000 A 
ATOM      9  N   UNL     1       1.078  10.828  19.439  0.00  0.00    +0.000 NA
ATOM     10  C   UNL     1       1.523   9.815  18.655  0.00  0.00    +0.000 A 
ATOM     11  H   UNL     1       1.947   7.740  17.163  0.00  0.00    +0.000 HD
ENDROOT
BRANCH   1  16
ATOM     12  C   UNL     1       4.680   4.754  18.862  0.00  0.00    +0.000 A 
ATOM     13  C   UNL     1       3.827   3.668  18.682  0.00  0.00    +0.000 A 
ATOM     14  C   UNL     1       2.502   3.871  18.291  0.00  0.00    +0.000 A 
ATOM     15  C   UNL     1       2.021   5.168  18.091  0.00  0.00    +0.000 A 
ATOM     16  C   UNL     1       2.850   6.279  18.294  0.00  0.00    +0.000 A 
ATOM     17  C   UNL     1       4.187   6.045  18.658  0.00  0.00    +0.000 A 
BRANCH  12  19
ATOM     18  C   UNL     1       6.917   5.492  19.189  0.00  0.00    +0.000 C 
ATOM     19  O   UNL     1       5.963   4.436  19.217  0.00  0.00    +0.000 OA
ENDBRANCH  12  19
ENDBRANCH   1  16
BRANCH  10  20
ATOM     20  O   UNL     1       1.707  10.200  17.358  0.00  0.00    +0.000 OA
ATOM     21  H   UNL     1       0.788  10.218  17.034  0.00  0.00    +0.000 HD
ENDBRANCH  10  20
TORSDOF 3
ENDMDL
MODEL 9
REMARK VINA RESULT:      -7.0      2.457      3.748
REMARK  Name = 
REMARK  4 active torsions:
REMARK  status: ('A' for Active; 'I' for Inactive)
REMARK    1  A    between atoms: C_1  and  O_2
REMARK    2  A    between atoms: O_2  and  C_3
REMARK    3  A    between atoms: C_7  and  N_8
REMARK    4  A    between atoms: C_17  and  O_18
REMARK                            x       y       z     vdW  Elec       q    Type
REMARK                         _______ _______ _______ _____ _____    ______ ____
ROOT
ATOM      1  N   UNL     1       2.922   6.155  19.312  0.00  0.00    +0.000 N 
ATOM      2  C   UNL     1       4.094   5.756  18.618  0.00  0.00    +0.000 A 
ATOM      3  N   UNL     1       4.637   6.580  17.687  0.00  0.00    +0.000 NA
ATOM      4  C   UNL     1       5.808   6.109  17.185  0.00  0.00    +0.000 A 
ATOM      5  N   UNL     1       6.579   6.714  16.284  0.00  0.00    +0.000 NA
ATOM      6  O   UNL     1       7.661   5.851  16.111  0.00  0.00    +0.000 OA
ATOM      7  N   UNL     1       7.557   4.709  16.908  0.00  0.00    +0.000 NA
ATOM      8  C   UNL     1       6.413   4.866  17.574  0.00  0.00    +0.000 A 
ATOM      9  N   UNL     1       5.873   4.008  18.489  0.00  0.00    +0.000 NA
ATOM     10  C   UNL     1       4.715   4.520  18.972  0.00  0.00    +0.000 A 
ATOM     11  H   UNL     1       2.322   5.359  19.507  0.00  0.00    +0.000 HD
ENDROOT
BRANCH   1  16
ATOM     12  C   UNL     1       0.981   9.202  20.305  0.00  0.00    +0.000 A 
ATOM     13  C   UNL     1       0.923   9.869  19.084  0.00  0.00    +0.000 A 
ATOM     14  C   UNL     1       1.504   9.308  17.946  0.00  0.00    +0.000 A 
ATOM     15  C   UNL     1       2.160   8.076  18.028  0.00  0.00    +0.000 A 
ATOM     16  C   UNL     1       2.259   7.398  19.251  0.00  0.00    +0.000 A 
ATOM     17  C   UNL     1       1.639   7.972  20.374  0.00  0.00    +0.000 A 
BRANCH  12  19
ATOM     18  C   UNL     1       0.641   9.350  22.654  0.00  0.00    +0.000 C 
ATOM     19  O   UNL     1       0.354   9.832  21.346  0.00  0.00    +0.000 OA
ENDBRANCH  12  19
ENDBRANCH   1  16
BRANCH  10  20
ATOM     20  O   UNL     1       4.127   3.703  19.896  0.00  0.00    +0.000 OA
ATOM     21  H   UNL     1       3.298   4.184  20.073  0.00  0.00    +0.000 HD
ENDBRANCH  10  20
TORSDOF 3
ENDMDL
