MODEL 1
REMARK VINA RESULT:      -7.5      0.000      0.000
REMARK  Name = 
REMARK  11 active torsions:
REMARK  status: ('A' for Active; 'I' for Inactive)
REMARK    1  A    between atoms: C_1  and  C_2
REMARK    2  A    between atoms: C_5  and  C_6
REMARK    3  A    between atoms: C_6  and  N_7
REMARK    4  A    between atoms: C_13  and  C_14
REMARK    5  A    between atoms: C_20  and  C_21
REMARK    6  A    between atoms: C_21  and  N_22
REMARK    7  A    between atoms: C_23  and  O_25
REMARK    8  A    between atoms: O_25  and  C_26
REMARK    9  A    between atoms: C_26  and  C_27
REMARK   10  A    between atoms: C_26  and  C_28
REMARK   11  A    between atoms: C_26  and  C_29
REMARK                            x       y       z     vdW  Elec       q    Type
REMARK                         _______ _______ _______ _____ _____    ______ ____
ROOT
ATOM      1  C   UNL     1       8.855  14.575  18.491  0.00  0.00    +0.000 C 
ATOM      2  O   UNL     1       9.363  15.502  17.852  0.00  0.00    +0.000 OA
ATOM      3  N   UNL     1       9.617  13.507  18.954  0.00  0.00    +0.000 N 
ATOM      4  C   UNL     1      11.073  13.552  18.838  0.00  0.00    +0.000 C 
ATOM      5  C   UNL     1      11.568  12.500  17.851  0.00  0.00    +0.000 C 
ATOM      6  C   UNL     1      11.024  11.109  18.201  0.00  0.00    +0.000 C 
ATOM      7  C   UNL     1       9.488  11.126  18.337  0.00  0.00    +0.000 C 
ATOM      8  C   UNL     1       9.093  12.205  19.356  0.00  0.00    +0.000 C 
ENDROOT
BRANCH   1  15
ATOM      9  N   UNL     1       7.011  15.661  19.883  0.00  0.00    +0.000 N 
ATOM     10  C   UNL     1       5.890  16.471  19.825  0.00  0.00    +0.000 C 
ATOM     11  O   UNL     1       5.695  17.381  20.636  0.00  0.00    +0.000 OA
ATOM     12  C   UNL     1       4.921  16.293  18.673  0.00  0.00    +0.000 C 
ATOM     13  C   UNL     1       5.083  15.014  17.874  0.00  0.00    +0.000 C 
ATOM     14  C   UNL     1       6.544  14.792  17.560  0.00  0.00    +0.000 C 
ATOM     15  C   UNL     1       7.345  14.651  18.861  0.00  0.00    +0.000 C 
BRANCH   9  16
ATOM     16  C   UNL     1       7.813  15.694  21.110  0.00  0.00    +0.000 C 
BRANCH  16  21
ATOM     17  C   UNL     1       6.819  11.430  24.968  0.00  0.00    +0.000 C 
ATOM     18  C   UNL     1       7.081  12.476  23.925  0.00  0.00    +0.000 A 
ATOM     19  C   UNL     1       8.389  12.842  23.586  0.00  0.00    +0.000 A 
ATOM     20  C   UNL     1       8.626  13.857  22.653  0.00  0.00    +0.000 A 
ATOM     21  C   UNL     1       7.560  14.531  22.044  0.00  0.00    +0.000 A 
ATOM     22  C   UNL     1       6.251  14.136  22.359  0.00  0.00    +0.000 A 
ATOM     23  C   UNL     1       6.014  13.126  23.296  0.00  0.00    +0.000 A 
ENDBRANCH  16  21
ENDBRANCH   9  16
ENDBRANCH   1  15
BRANCH   7  24
ATOM     24  C   UNL     1       8.867   9.794  18.783  0.00  0.00    +0.000 C 
BRANCH  24  25
ATOM     25  N   UNL     1       8.070   9.149  17.770  0.00  0.00    +0.000 N 
ATOM     26  C   UNL     1       7.859   7.803  17.813  0.00  0.00    +0.000 C 
ATOM     27  O   UNL     1       8.332   7.076  18.680  0.00  0.00    +0.000 OA
ATOM     28  H   UNL     1       7.638   9.670  17.019  0.00  0.00    +0.000 HD
BRANCH  26  29
ATOM     29  O   UNL     1       7.102   7.397  16.768  0.00  0.00    +0.000 OA
BRANCH  29  30
ATOM     30  C   UNL     1       6.363   6.151  16.904  0.00  0.00    +0.000 C 
ATOM     31  C   UNL     1       7.171   4.961  16.367  0.00  0.00    +0.000 C 
ATOM     32  C   UNL     1       6.146   5.940  18.412  0.00  0.00    +0.000 C 
ATOM     33  C   UNL     1       4.983   6.265  16.241  0.00  0.00    +0.000 C 
ENDBRANCH  29  30
ENDBRANCH  26  29
ENDBRANCH  24  25
ENDBRANCH   7  24
TORSDOF 7
ENDMDL
MODEL 2
REMARK VINA RESULT:      -7.4      6.198      8.754
REMARK  Name = 
REMARK  11 active torsions:
REMARK  status: ('A' for Active; 'I' for Inactive)
REMARK    1  A    between atoms: C_1  and  C_2
REMARK    2  A    between atoms: C_5  and  C_6
REMARK    3  A    between atoms: C_6  and  N_7
REMARK    4  A    between atoms: C_13  and  C_14
REMARK    5  A    between atoms: C_20  and  C_21
REMARK    6  A    between atoms: C_21  and  N_22
REMARK    7  A    between atoms: C_23  and  O_25
REMARK    8  A    between atoms: O_25  and  C_26
REMARK    9  A    between atoms: C_26  and  C_27
REMARK   10  A    between atoms: C_26  and  C_28
REMARK   11  A    between atoms: C_26  and  C_29
REMARK                            x       y       z     vdW  Elec       q    Type
REMARK                         _______ _______ _______ _____ _____    ______ ____
ROOT
ATOM      1  C   UNL     1       0.702  10.731  20.567  0.00  0.00    +0.000 C 
ATOM      2  O   UNL     1       0.691  11.078  21.753  0.00  0.00    +0.000 OA
ATOM      3  N   UNL     1       0.693   9.388  20.202  0.00  0.00    +0.000 N 
ATOM      4  C   UNL     1       0.497   8.361  21.223  0.00  0.00    +0.000 C 
ATOM      5  C   UNL     1       1.761   7.527  21.399  0.00  0.00    +0.000 C 
ATOM      6  C   UNL     1       2.253   6.971  20.057  0.00  0.00    +0.000 C 
ATOM      7  C   UNL     1       2.417   8.093  19.012  0.00  0.00    +0.000 C 
ATOM      8  C   UNL     1       1.092   8.863  18.900  0.00  0.00    +0.000 C 
ENDROOT
BRANCH   1  15
ATOM      9  N   UNL     1      -0.546  12.706  19.538  0.00  0.00    +0.000 N 
ATOM     10  C   UNL     1      -0.499  14.071  19.316  0.00  0.00    +0.000 C 
ATOM     11  O   UNL     1      -1.479  14.800  19.496  0.00  0.00    +0.000 OA
ATOM     12  C   UNL     1       0.825  14.702  18.931  0.00  0.00    +0.000 C 
ATOM     13  C   UNL     1       1.905  13.735  18.486  0.00  0.00    +0.000 C 
ATOM     14  C   UNL     1       1.972  12.570  19.447  0.00  0.00    +0.000 C 
ATOM     15  C   UNL     1       0.633  11.822  19.460  0.00  0.00    +0.000 C 
BRANCH   9  16
ATOM     16  C   UNL     1      -1.866  12.085  19.689  0.00  0.00    +0.000 C 
BRANCH  16  21
ATOM     17  C   UNL     1      -3.834  10.017  14.600  0.00  0.00    +0.000 C 
ATOM     18  C   UNL     1      -3.365  10.498  15.941  0.00  0.00    +0.000 A 
ATOM     19  C   UNL     1      -4.138  11.385  16.698  0.00  0.00    +0.000 A 
ATOM     20  C   UNL     1      -3.670  11.872  17.923  0.00  0.00    +0.000 A 
ATOM     21  C   UNL     1      -2.416  11.486  18.414  0.00  0.00    +0.000 A 
ATOM     22  C   UNL     1      -1.660  10.567  17.670  0.00  0.00    +0.000 A 
ATOM     23  C   UNL     1      -2.126  10.085  16.443  0.00  0.00    +0.000 A 
ENDBRANCH  16  21
ENDBRANCH   9  16
ENDBRANCH   1  15
BRANCH   7  24
ATOM     24  C   UNL     1       2.813   7.611  17.607  0.00  0.00    +0.000 C 
BRANCH  24  25
ATOM     25  N   UNL     1       3.779   6.542  17.603  0.00  0.00    +0.000 N 
ATOM     26  C   UNL     1       4.758   6.502  16.656  0.00  0.00    +0.000 C 
ATOM     27  O   UNL     1       4.865   7.338  15.765  0.00  0.00    +0.000 OA
ATOM     28  H   UNL     1       3.770   5.811  18.302  0.00  0.00    +0.000 HD
BRANCH  26  29
ATOM     29  O   UNL     1       5.548   5.416  16.820  0.00  0.00    +0.000 OA
BRANCH  29  30
ATOM     30  C   UNL     1       6.699   5.536  17.701  0.00  0.00    +0.000 C 
ATOM     31  C   UNL     1       7.316   6.940  17.628  0.00  0.00    +0.000 C 
ATOM     32  C   UNL     1       6.172   5.320  19.130  0.00  0.00    +0.000 C 
ATOM     33  C   UNL     1       7.725   4.432  17.405  0.00  0.00    +0.000 C 
ENDBRANCH  29  30
ENDBRANCH  26  29
ENDBRANCH  24  25
ENDBRANCH   7  24
TORSDOF 7
ENDMDL
MODEL 3
REMARK VINA RESULT:      -7.3      8.925     11.012
REMARK  Name = 
REMARK  11 active torsions:
REMARK  status: ('A' for Active; 'I' for Inactive)
REMARK    1  A    between atoms: C_1  and  C_2
REMARK    2  A    between atoms: C_5  and  C_6
REMARK    3  A    between atoms: C_6  and  N_7
REMARK    4  A    between atoms: C_13  and  C_14
REMARK    5  A    between atoms: C_20  and  C_21
REMARK    6  A    between atoms: C_21  and  N_22
REMARK    7  A    between atoms: C_23  and  O_25
REMARK    8  A    between atoms: O_25  and  C_26
REMARK    9  A    between atoms: C_26  and  C_27
REMARK   10  A    between atoms: C_26  and  C_28
REMARK   11  A    between atoms: C_26  and  C_29
REMARK                            x       y       z     vdW  Elec       q    Type
REMARK                         _______ _______ _______ _____ _____    ______ ____
ROOT
ATOM      1  C   UNL     1       0.297  13.051  19.760  0.00  0.00    +0.000 C 
ATOM      2  O   UNL     1       1.529  12.988  19.829  0.00  0.00    +0.000 OA
ATOM      3  N   UNL     1      -0.479  11.915  19.550  0.00  0.00    +0.000 N 
ATOM      4  C   UNL     1       0.146  10.595  19.578  0.00  0.00    +0.000 C 
ATOM      5  C   UNL     1       0.115   9.953  18.196  0.00  0.00    +0.000 C 
ATOM      6  C   UNL     1      -1.305   9.945  17.617  0.00  0.00    +0.000 C 
ATOM      7  C   UNL     1      -1.926  11.357  17.636  0.00  0.00    +0.000 C 
ATOM      8  C   UNL     1      -1.857  11.909  19.068  0.00  0.00    +0.000 C 
ENDROOT
BRANCH   1  15
ATOM      9  N   UNL     1       0.022  15.121  21.229  0.00  0.00    +0.000 N 
ATOM     10  C   UNL     1       0.238  16.487  21.295  0.00  0.00    +0.000 C 
ATOM     11  O   UNL     1       0.701  17.030  22.303  0.00  0.00    +0.000 OA
ATOM     12  C   UNL     1      -0.013  17.326  20.057  0.00  0.00    +0.000 C 
ATOM     13  C   UNL     1      -0.808  16.648  18.958  0.00  0.00    +0.000 C 
ATOM     14  C   UNL     1      -0.268  15.256  18.725  0.00  0.00    +0.000 C 
ATOM     15  C   UNL     1      -0.404  14.419  20.003  0.00  0.00    +0.000 C 
BRANCH   9  16
ATOM     16  C   UNL     1       0.055  14.364  22.483  0.00  0.00    +0.000 C 
BRANCH  16  21
ATOM     17  C   UNL     1      -5.048  12.453  24.572  0.00  0.00    +0.000 C 
ATOM     18  C   UNL     1      -3.764  12.942  23.969  0.00  0.00    +0.000 A 
ATOM     19  C   UNL     1      -2.814  12.043  23.471  0.00  0.00    +0.000 A 
ATOM     20  C   UNL     1      -1.596  12.503  22.961  0.00  0.00    +0.000 A 
ATOM     21  C   UNL     1      -1.299  13.872  22.943  0.00  0.00    +0.000 A 
ATOM     22  C   UNL     1      -2.269  14.773  23.408  0.00  0.00    +0.000 A 
ATOM     23  C   UNL     1      -3.485  14.312  23.924  0.00  0.00    +0.000 A 
ENDBRANCH  16  21
ENDBRANCH   9  16
ENDBRANCH   1  15
BRANCH   7  24
ATOM     24  C   UNL     1      -3.386  11.424  17.164  0.00  0.00    +0.000 C 
BRANCH  24  25
ATOM     25  N   UNL     1      -4.353  11.229  18.216  0.00  0.00    +0.000 N 
ATOM     26  C   UNL     1      -5.553  11.873  18.176  0.00  0.00    +0.000 C 
ATOM     27  O   UNL     1      -5.871  12.647  17.280  0.00  0.00    +0.000 OA
ATOM     28  H   UNL     1      -4.177  10.607  18.993  0.00  0.00    +0.000 HD
BRANCH  26  29
ATOM     29  O   UNL     1      -6.304  11.567  19.259  0.00  0.00    +0.000 OA
BRANCH  29  30
ATOM     30  C   UNL     1      -6.522  12.605  20.254  0.00  0.00    +0.000 C 
ATOM     31  C   UNL     1      -5.234  13.394  20.529  0.00  0.00    +0.000 C 
ATOM     32  C   UNL     1      -7.556  13.570  19.652  0.00  0.00    +0.000 C 
ATOM     33  C   UNL     1      -7.124  12.008  21.535  0.00  0.00    +0.000 C 
ENDBRANCH  29  30
ENDBRANCH  26  29
ENDBRANCH  24  25
ENDBRANCH   7  24
TORSDOF 7
ENDMDL
MODEL 4
REMARK VINA RESULT:      -7.3      8.725     11.836
REMARK  Name = 
REMARK  11 active torsions:
REMARK  status: ('A' for Active; 'I' for Inactive)
REMARK    1  A    between atoms: C_1  and  C_2
REMARK    2  A    between atoms: C_5  and  C_6
REMARK    3  A    between atoms: C_6  and  N_7
REMARK    4  A    between atoms: C_13  and  C_14
REMARK    5  A    between atoms: C_20  and  C_21
REMARK    6  A    between atoms: C_21  and  N_22
REMARK    7  A    between atoms: C_23  and  O_25
REMARK    8  A    between atoms: O_25  and  C_26
REMARK    9  A    between atoms: C_26  and  C_27
REMARK   10  A    between atoms: C_26  and  C_28
REMARK   11  A    between atoms: C_26  and  C_29
REMARK                            x       y       z     vdW  Elec       q    Type
REMARK                         _______ _______ _______ _____ _____    ______ ____
ROOT
ATOM      1  C   UNL     1      -1.710  12.257  18.315  0.00  0.00    +0.000 C 
ATOM      2  O   UNL     1      -1.037  12.202  17.281  0.00  0.00    +0.000 OA
ATOM      3  N   UNL     1      -2.939  11.612  18.419  0.00  0.00    +0.000 N 
ATOM      4  C   UNL     1      -3.376  10.711  17.354  0.00  0.00    +0.000 C 
ATOM      5  C   UNL     1      -4.587  11.283  16.626  0.00  0.00    +0.000 C 
ATOM      6  C   UNL     1      -5.703  11.656  17.610  0.00  0.00    +0.000 C 
ATOM      7  C   UNL     1      -5.181  12.585  18.724  0.00  0.00    +0.000 C 
ATOM      8  C   UNL     1      -3.974  11.917  19.401  0.00  0.00    +0.000 C 
ENDROOT
BRANCH   1  15
ATOM      9  N   UNL     1      -0.075  12.244  20.276  0.00  0.00    +0.000 N 
ATOM     10  C   UNL     1       1.070  12.831  20.787  0.00  0.00    +0.000 C 
ATOM     11  O   UNL     1       1.982  12.165  21.285  0.00  0.00    +0.000 OA
ATOM     12  C   UNL     1       1.247  14.330  20.644  0.00  0.00    +0.000 C 
ATOM     13  C   UNL     1      -0.001  15.102  20.261  0.00  0.00    +0.000 C 
ATOM     14  C   UNL     1      -0.706  14.399  19.124  0.00  0.00    +0.000 C 
ATOM     15  C   UNL     1      -1.127  12.990  19.558  0.00  0.00    +0.000 C 
BRANCH   9  16
ATOM     16  C   UNL     1      -0.333  10.842  20.617  0.00  0.00    +0.000 C 
BRANCH  16  21
ATOM     17  C   UNL     1       3.082   6.898  18.003  0.00  0.00    +0.000 C 
ATOM     18  C   UNL     1       2.263   7.943  18.701  0.00  0.00    +0.000 A 
ATOM     19  C   UNL     1       1.890   7.788  20.041  0.00  0.00    +0.000 A 
ATOM     20  C   UNL     1       1.080   8.740  20.670  0.00  0.00    +0.000 A 
ATOM     21  C   UNL     1       0.622   9.864  19.970  0.00  0.00    +0.000 A 
ATOM     22  C   UNL     1       1.029  10.034  18.638  0.00  0.00    +0.000 A 
ATOM     23  C   UNL     1       1.833   9.079  18.008  0.00  0.00    +0.000 A 
ENDBRANCH  16  21
ENDBRANCH   9  16
ENDBRANCH   1  15
BRANCH   7  24
ATOM     24  C   UNL     1      -6.211  12.929  19.811  0.00  0.00    +0.000 C 
BRANCH  24  25
ATOM     25  N   UNL     1      -5.656  13.613  20.952  0.00  0.00    +0.000 N 
ATOM     26  C   UNL     1      -5.803  13.096  22.204  0.00  0.00    +0.000 C 
ATOM     27  O   UNL     1      -6.412  12.057  22.434  0.00  0.00    +0.000 OA
ATOM     28  H   UNL     1      -5.135  14.475  20.856  0.00  0.00    +0.000 HD
BRANCH  26  29
ATOM     29  O   UNL     1      -5.224  13.894  23.130  0.00  0.00    +0.000 OA
BRANCH  29  30
ATOM     30  C   UNL     1      -4.053  13.390  23.830  0.00  0.00    +0.000 C 
ATOM     31  C   UNL     1      -3.036  12.785  22.852  0.00  0.00    +0.000 C 
ATOM     32  C   UNL     1      -3.399  14.607  24.507  0.00  0.00    +0.000 C 
ATOM     33  C   UNL     1      -4.463  12.402  24.930  0.00  0.00    +0.000 C 
ENDBRANCH  29  30
ENDBRANCH  26  29
ENDBRANCH  24  25
ENDBRANCH   7  24
TORSDOF 7
ENDMDL
MODEL 5
REMARK VINA RESULT:      -7.2      9.562     11.396
REMARK  Name = 
REMARK  11 active torsions:
REMARK  status: ('A' for Active; 'I' for Inactive)
REMARK    1  A    between atoms: C_1  and  C_2
REMARK    2  A    between atoms: C_5  and  C_6
REMARK    3  A    between atoms: C_6  and  N_7
REMARK    4  A    between atoms: C_13  and  C_14
REMARK    5  A    between atoms: C_20  and  C_21
REMARK    6  A    between atoms: C_21  and  N_22
REMARK    7  A    between atoms: C_23  and  O_25
REMARK    8  A    between atoms: O_25  and  C_26
REMARK    9  A    between atoms: C_26  and  C_27
REMARK   10  A    between atoms: C_26  and  C_28
REMARK   11  A    between atoms: C_26  and  C_29
REMARK                            x       y       z     vdW  Elec       q    Type
REMARK                         _______ _______ _______ _____ _____    ______ ____
ROOT
ATOM      1  C   UNL     1      -0.050  13.191  21.081  0.00  0.00    +0.000 C 
ATOM      2  O   UNL     1       1.096  13.252  21.540  0.00  0.00    +0.000 OA
ATOM      3  N   UNL     1      -0.581  11.993  20.611  0.00  0.00    +0.000 N 
ATOM      4  C   UNL     1       0.152  10.746  20.814  0.00  0.00    +0.000 C 
ATOM      5  C   UNL     1       0.635  10.181  19.482  0.00  0.00    +0.000 C 
ATOM      6  C   UNL     1      -0.518  10.058  18.479  0.00  0.00    +0.000 C 
ATOM      7  C   UNL     1      -1.273  11.394  18.324  0.00  0.00    +0.000 C 
ATOM      8  C   UNL     1      -1.726  11.870  19.713  0.00  0.00    +0.000 C 
ENDROOT
BRANCH   1  15
ATOM      9  N   UNL     1      -1.132  15.052  22.452  0.00  0.00    +0.000 N 
ATOM     10  C   UNL     1      -1.124  16.415  22.698  0.00  0.00    +0.000 C 
ATOM     11  O   UNL     1      -1.172  16.874  23.843  0.00  0.00    +0.000 OA
ATOM     12  C   UNL     1      -0.955  17.366  21.531  0.00  0.00    +0.000 C 
ATOM     13  C   UNL     1      -1.157  16.757  20.156  0.00  0.00    +0.000 C 
ATOM     14  C   UNL     1      -0.408  15.447  20.066  0.00  0.00    +0.000 C 
ATOM     15  C   UNL     1      -0.945  14.462  21.112  0.00  0.00    +0.000 C 
BRANCH   9  16
ATOM     16  C   UNL     1      -1.516  14.162  23.551  0.00  0.00    +0.000 C 
BRANCH  16  21
ATOM     17  C   UNL     1      -7.227  13.082  24.069  0.00  0.00    +0.000 C 
ATOM     18  C   UNL     1      -5.760  13.328  23.871  0.00  0.00    +0.000 A 
ATOM     19  C   UNL     1      -4.815  12.350  24.204  0.00  0.00    +0.000 A 
ATOM     20  C   UNL     1      -3.447  12.607  24.069  0.00  0.00    +0.000 A 
ATOM     21  C   UNL     1      -2.994  13.849  23.604  0.00  0.00    +0.000 A 
ATOM     22  C   UNL     1      -3.945  14.812  23.237  0.00  0.00    +0.000 A 
ATOM     23  C   UNL     1      -5.313  14.558  23.377  0.00  0.00    +0.000 A 
ENDBRANCH  16  21
ENDBRANCH   9  16
ENDBRANCH   1  15
BRANCH   7  24
ATOM     24  C   UNL     1      -2.507  11.334  17.411  0.00  0.00    +0.000 C 
BRANCH  24  25
ATOM     25  N   UNL     1      -3.702  10.868  18.068  0.00  0.00    +0.000 N 
ATOM     26  C   UNL     1      -4.920  11.373  17.722  0.00  0.00    +0.000 C 
ATOM     27  O   UNL     1      -5.069  12.240  16.868  0.00  0.00    +0.000 OA
ATOM     28  H   UNL     1      -3.674  10.153  18.782  0.00  0.00    +0.000 HD
BRANCH  26  29
ATOM     29  O   UNL     1      -5.904  10.816  18.463  0.00  0.00    +0.000 OA
BRANCH  29  30
ATOM     30  C   UNL     1      -6.553  11.643  19.469  0.00  0.00    +0.000 C 
ATOM     31  C   UNL     1      -7.573  12.599  18.833  0.00  0.00    +0.000 C 
ATOM     32  C   UNL     1      -7.313  10.679  20.395  0.00  0.00    +0.000 C 
ATOM     33  C   UNL     1      -5.508  12.385  20.315  0.00  0.00    +0.000 C 
ENDBRANCH  29  30
ENDBRANCH  26  29
ENDBRANCH  24  25
ENDBRANCH   7  24
TORSDOF 7
ENDMDL
MODEL 6
REMARK VINA RESULT:      -7.2      6.614      8.961
REMARK  Name = 
REMARK  11 active torsions:
REMARK  status: ('A' for Active; 'I' for Inactive)
REMARK    1  A    between atoms: C_1  and  C_2
REMARK    2  A    between atoms: C_5  and  C_6
REMARK    3  A    between atoms: C_6  and  N_7
REMARK    4  A    between atoms: C_13  and  C_14
REMARK    5  A    between atoms: C_20  and  C_21
REMARK    6  A    between atoms: C_21  and  N_22
REMARK    7  A    between atoms: C_23  and  O_25
REMARK    8  A    between atoms: O_25  and  C_26
REMARK    9  A    between atoms: C_26  and  C_27
REMARK   10  A    between atoms: C_26  and  C_28
REMARK   11  A    between atoms: C_26  and  C_29
REMARK                            x       y       z     vdW  Elec       q    Type
REMARK                         _______ _______ _______ _____ _____    ______ ____
ROOT
ATOM      1  C   UNL     1       0.312  11.318  20.928  0.00  0.00    +0.000 C 
ATOM      2  O   UNL     1       0.230  11.638  22.118  0.00  0.00    +0.000 OA
ATOM      3  N   UNL     1       0.271   9.986  20.528  0.00  0.00    +0.000 N 
ATOM      4  C   UNL     1      -0.044   8.945  21.504  0.00  0.00    +0.000 C 
ATOM      5  C   UNL     1       1.165   8.051  21.750  0.00  0.00    +0.000 C 
ATOM      6  C   UNL     1       1.730   7.504  20.433  0.00  0.00    +0.000 C 
ATOM      7  C   UNL     1       2.020   8.640  19.432  0.00  0.00    +0.000 C 
ATOM      8  C   UNL     1       0.742   9.472  19.245  0.00  0.00    +0.000 C 
ENDROOT
BRANCH   1  15
ATOM      9  N   UNL     1      -0.729  13.415  19.911  0.00  0.00    +0.000 N 
ATOM     10  C   UNL     1      -0.558  14.777  19.726  0.00  0.00    +0.000 C 
ATOM     11  O   UNL     1      -1.479  15.582  19.893  0.00  0.00    +0.000 OA
ATOM     12  C   UNL     1       0.826  15.300  19.400  0.00  0.00    +0.000 C 
ATOM     13  C   UNL     1       1.835  14.255  18.964  0.00  0.00    +0.000 C 
ATOM     14  C   UNL     1       1.771  13.067  19.896  0.00  0.00    +0.000 C 
ATOM     15  C   UNL     1       0.373  12.436  19.848  0.00  0.00    +0.000 C 
BRANCH   9  16
ATOM     16  C   UNL     1      -2.100  12.906  20.004  0.00  0.00    +0.000 C 
BRANCH  16  21
ATOM     17  C   UNL     1      -3.904  10.198  15.161  0.00  0.00    +0.000 C 
ATOM     18  C   UNL     1      -3.434  10.830  16.437  0.00  0.00    +0.000 A 
ATOM     19  C   UNL     1      -4.333  11.119  17.471  0.00  0.00    +0.000 A 
ATOM     20  C   UNL     1      -3.897  11.759  18.636  0.00  0.00    +0.000 A 
ATOM     21  C   UNL     1      -2.554  12.128  18.790  0.00  0.00    +0.000 A 
ATOM     22  C   UNL     1      -1.650  11.804  17.767  0.00  0.00    +0.000 A 
ATOM     23  C   UNL     1      -2.087  11.169  16.600  0.00  0.00    +0.000 A 
ENDBRANCH  16  21
ENDBRANCH   9  16
ENDBRANCH   1  15
BRANCH   7  24
ATOM     24  C   UNL     1       2.496   8.173  18.048  0.00  0.00    +0.000 C 
BRANCH  24  25
ATOM     25  N   UNL     1       2.282   6.770  17.796  0.00  0.00    +0.000 N 
ATOM     26  C   UNL     1       3.340   5.914  17.730  0.00  0.00    +0.000 C 
ATOM     27  O   UNL     1       4.505   6.273  17.862  0.00  0.00    +0.000 OA
ATOM     28  H   UNL     1       1.355   6.384  17.678  0.00  0.00    +0.000 HD
BRANCH  26  29
ATOM     29  O   UNL     1       2.927   4.652  17.471  0.00  0.00    +0.000 OA
BRANCH  29  30
ATOM     30  C   UNL     1       2.783   3.737  18.593  0.00  0.00    +0.000 C 
ATOM     31  C   UNL     1       3.226   4.392  19.909  0.00  0.00    +0.000 C 
ATOM     32  C   UNL     1       1.282   3.418  18.699  0.00  0.00    +0.000 C 
ATOM     33  C   UNL     1       3.526   2.422  18.318  0.00  0.00    +0.000 C 
ENDBRANCH  29  30
ENDBRANCH  26  29
ENDBRANCH  24  25
ENDBRANCH   7  24
TORSDOF 7
ENDMDL
MODEL 7
REMARK VINA RESULT:      -7.2      6.380      8.771
REMARK  Name = 
REMARK  11 active torsions:
REMARK  status: ('A' for Active; 'I' for Inactive)
REMARK    1  A    between atoms: C_1  and  C_2
REMARK    2  A    between atoms: C_5  and  C_6
REMARK    3  A    between atoms: C_6  and  N_7
REMARK    4  A    between atoms: C_13  and  C_14
REMARK    5  A    between atoms: C_20  and  C_21
REMARK    6  A    between atoms: C_21  and  N_22
REMARK    7  A    between atoms: C_23  and  O_25
REMARK    8  A    between atoms: O_25  and  C_26
REMARK    9  A    between atoms: C_26  and  C_27
REMARK   10  A    between atoms: C_26  and  C_28
REMARK   11  A    between atoms: C_26  and  C_29
REMARK                            x       y       z     vdW  Elec       q    Type
REMARK                         _______ _______ _______ _____ _____    ______ ____
ROOT
ATOM      1  C   UNL     1       0.292  11.158  20.848  0.00  0.00    +0.000 C 
ATOM      2  O   UNL     1       0.188  11.467  22.040  0.00  0.00    +0.000 OA
ATOM      3  N   UNL     1       0.255   9.829  20.436  0.00  0.00    +0.000 N 
ATOM      4  C   UNL     1      -0.082   8.781  21.397  0.00  0.00    +0.000 C 
ATOM      5  C   UNL     1       1.120   7.881  21.658  0.00  0.00    +0.000 C 
ATOM      6  C   UNL     1       1.709   7.344  20.347  0.00  0.00    +0.000 C 
ATOM      7  C   UNL     1       2.021   8.488  19.362  0.00  0.00    +0.000 C 
ATOM      8  C   UNL     1       0.749   9.326  19.157  0.00  0.00    +0.000 C 
ENDROOT
BRANCH   1  15
ATOM      9  N   UNL     1      -0.712  13.279  19.844  0.00  0.00    +0.000 N 
ATOM     10  C   UNL     1      -0.521  14.640  19.674  0.00  0.00    +0.000 C 
ATOM     11  O   UNL     1      -1.432  15.456  19.843  0.00  0.00    +0.000 OA
ATOM     12  C   UNL     1       0.873  15.147  19.363  0.00  0.00    +0.000 C 
ATOM     13  C   UNL     1       1.871  14.092  18.925  0.00  0.00    +0.000 C 
ATOM     14  C   UNL     1       1.783  12.896  19.845  0.00  0.00    +0.000 C 
ATOM     15  C   UNL     1       0.377  12.285  19.780  0.00  0.00    +0.000 C 
BRANCH   9  16
ATOM     16  C   UNL     1      -2.091  12.788  19.922  0.00  0.00    +0.000 C 
BRANCH  16  21
ATOM     17  C   UNL     1      -3.934   9.915  15.189  0.00  0.00    +0.000 C 
ATOM     18  C   UNL     1      -3.469  10.715  16.370  0.00  0.00    +0.000 A 
ATOM     19  C   UNL     1      -2.129  11.103  16.494  0.00  0.00    +0.000 A 
ATOM     20  C   UNL     1      -1.691  11.801  17.624  0.00  0.00    +0.000 A 
ATOM     21  C   UNL     1      -2.582  12.121  18.657  0.00  0.00    +0.000 A 
ATOM     22  C   UNL     1      -3.931  11.764  18.512  0.00  0.00    +0.000 A 
ATOM     23  C   UNL     1      -4.368  11.060  17.385  0.00  0.00    +0.000 A 
ENDBRANCH  16  21
ENDBRANCH   9  16
ENDBRANCH   1  15
BRANCH   7  24
ATOM     24  C   UNL     1       2.522   8.033  17.983  0.00  0.00    +0.000 C 
BRANCH  24  25
ATOM     25  N   UNL     1       3.799   7.365  18.014  0.00  0.00    +0.000 N 
ATOM     26  C   UNL     1       3.877   6.019  17.818  0.00  0.00    +0.000 C 
ATOM     27  O   UNL     1       2.895   5.309  17.626  0.00  0.00    +0.000 OA
ATOM     28  H   UNL     1       4.662   7.870  18.163  0.00  0.00    +0.000 HD
BRANCH  26  29
ATOM     29  O   UNL     1       5.158   5.590  17.900  0.00  0.00    +0.000 OA
BRANCH  29  30
ATOM     30  C   UNL     1       6.028   5.815  16.757  0.00  0.00    +0.000 C 
ATOM     31  C   UNL     1       7.146   6.812  17.094  0.00  0.00    +0.000 C 
ATOM     32  C   UNL     1       6.679   4.458  16.437  0.00  0.00    +0.000 C 
ATOM     33  C   UNL     1       5.211   6.246  15.531  0.00  0.00    +0.000 C 
ENDBRANCH  29  30
ENDBRANCH  26  29
ENDBRANCH  24  25
ENDBRANCH   7  24
TORSDOF 7
ENDMDL
MODEL 8
REMARK VINA RESULT:      -7.2      6.842      9.105
REMARK  Name = 
REMARK  11 active torsions:
REMARK  status: ('A' for Active; 'I' for Inactive)
REMARK    1  A    between atoms: C_1  and  C_2
REMARK    2  A    between atoms: C_5  and  C_6
REMARK    3  A    between atoms: C_6  and  N_7
REMARK    4  A    between atoms: C_13  and  C_14
REMARK    5  A    between atoms: C_20  and  C_21
REMARK    6  A    between atoms: C_21  and  N_22
REMARK    7  A    between atoms: C_23  and  O_25
REMARK    8  A    between atoms: O_25  and  C_26
REMARK    9  A    between atoms: C_26  and  C_27
REMARK   10  A    between atoms: C_26  and  C_28
REMARK   11  A    between atoms: C_26  and  C_29
REMARK                            x       y       z     vdW  Elec       q    Type
REMARK                         _______ _______ _______ _____ _____    ______ ____
ROOT
ATOM      1  C   UNL     1      -0.071  11.349  21.400  0.00  0.00    +0.000 C 
ATOM      2  O   UNL     1      -0.125  11.540  22.619  0.00  0.00    +0.000 OA
ATOM      3  N   UNL     1      -0.043  10.065  20.865  0.00  0.00    +0.000 N 
ATOM      4  C   UNL     1      -0.251   8.911  21.738  0.00  0.00    +0.000 C 
ATOM      5  C   UNL     1       1.022   8.081  21.848  0.00  0.00    +0.000 C 
ATOM      6  C   UNL     1       1.566   7.710  20.463  0.00  0.00    +0.000 C 
ATOM      7  C   UNL     1       1.741   8.959  19.576  0.00  0.00    +0.000 C 
ATOM      8  C   UNL     1       0.406   9.717  19.520  0.00  0.00    +0.000 C 
ENDROOT
BRANCH   1  15
ATOM      9  N   UNL     1      -1.409  13.303  20.446  0.00  0.00    +0.000 N 
ATOM     10  C   UNL     1      -1.506  14.684  20.407  0.00  0.00    +0.000 C 
ATOM     11  O   UNL     1      -2.587  15.269  20.524  0.00  0.00    +0.000 OA
ATOM     12  C   UNL     1      -0.233  15.502  20.311  0.00  0.00    +0.000 C 
ATOM     13  C   UNL     1       1.013  14.731  19.920  0.00  0.00    +0.000 C 
ATOM     14  C   UNL     1       1.095  13.455  20.726  0.00  0.00    +0.000 C 
ATOM     15  C   UNL     1      -0.126  12.573  20.441  0.00  0.00    +0.000 C 
BRANCH   9  16
ATOM     16  C   UNL     1      -2.646  12.529  20.314  0.00  0.00    +0.000 C 
BRANCH  16  21
ATOM     17  C   UNL     1      -3.675  10.310  15.017  0.00  0.00    +0.000 C 
ATOM     18  C   UNL     1      -3.413  10.946  16.350  0.00  0.00    +0.000 A 
ATOM     19  C   UNL     1      -2.114  11.291  16.739  0.00  0.00    +0.000 A 
ATOM     20  C   UNL     1      -1.870  11.833  18.005  0.00  0.00    +0.000 A 
ATOM     21  C   UNL     1      -2.919  12.036  18.911  0.00  0.00    +0.000 A 
ATOM     22  C   UNL     1      -4.225  11.722  18.504  0.00  0.00    +0.000 A 
ATOM     23  C   UNL     1      -4.468  11.175  17.240  0.00  0.00    +0.000 A 
ENDBRANCH  16  21
ENDBRANCH   9  16
ENDBRANCH   1  15
BRANCH   7  24
ATOM     24  C   UNL     1       2.189   8.669  18.136  0.00  0.00    +0.000 C 
BRANCH  24  25
ATOM     25  N   UNL     1       2.311   7.266  17.830  0.00  0.00    +0.000 N 
ATOM     26  C   UNL     1       3.537   6.714  17.604  0.00  0.00    +0.000 C 
ATOM     27  O   UNL     1       4.579   7.360  17.628  0.00  0.00    +0.000 OA
ATOM     28  H   UNL     1       1.506   6.655  17.791  0.00  0.00    +0.000 HD
BRANCH  26  29
ATOM     29  O   UNL     1       3.432   5.396  17.321  0.00  0.00    +0.000 OA
BRANCH  29  30
ATOM     30  C   UNL     1       3.367   4.462  18.434  0.00  0.00    +0.000 C 
ATOM     31  C   UNL     1       4.061   3.135  18.092  0.00  0.00    +0.000 C 
ATOM     32  C   UNL     1       4.135   5.118  19.593  0.00  0.00    +0.000 C 
ATOM     33  C   UNL     1       1.914   4.259  18.887  0.00  0.00    +0.000 C 
ENDBRANCH  29  30
ENDBRANCH  26  29
ENDBRANCH  24  25
ENDBRANCH   7  24
TORSDOF 7
ENDMDL
MODEL 9
REMARK VINA RESULT:      -7.0      8.999     10.896
REMARK  Name = 
REMARK  11 active torsions:
REMARK  status: ('A' for Active; 'I' for Inactive)
REMARK    1  A    between atoms: C_1  and  C_2
REMARK    2  A    between atoms: C_5  and  C_6
REMARK    3  A    between atoms: C_6  and  N_7
REMARK    4  A    between atoms: C_13  and  C_14
REMARK    5  A    between atoms: C_20  and  C_21
REMARK    6  A    between atoms: C_21  and  N_22
REMARK    7  A    between atoms: C_23  and  O_25
REMARK    8  A    between atoms: O_25  and  C_26
REMARK    9  A    between atoms: C_26  and  C_27
REMARK   10  A    between atoms: C_26  and  C_28
REMARK   11  A    between atoms: C_26  and  C_29
REMARK                            x       y       z     vdW  Elec       q    Type
REMARK                         _______ _______ _______ _____ _____    ______ ____
ROOT
ATOM      1  C   UNL     1       0.281  13.325  20.846  0.00  0.00    +0.000 C 
ATOM      2  O   UNL     1       1.423  13.410  21.311  0.00  0.00    +0.000 OA
ATOM      3  N   UNL     1      -0.258  12.101  20.461  0.00  0.00    +0.000 N 
ATOM      4  C   UNL     1       0.461  10.865  20.762  0.00  0.00    +0.000 C 
ATOM      5  C   UNL     1       0.951  10.200  19.481  0.00  0.00    +0.000 C 
ATOM      6  C   UNL     1      -0.194  10.013  18.478  0.00  0.00    +0.000 C 
ATOM      7  C   UNL     1      -0.933  11.341  18.217  0.00  0.00    +0.000 C 
ATOM      8  C   UNL     1      -1.394  11.923  19.562  0.00  0.00    +0.000 C 
ENDROOT
BRANCH   1  15
ATOM      9  N   UNL     1      -0.561  15.450  21.982  0.00  0.00    +0.000 N 
ATOM     10  C   UNL     1      -0.517  16.834  21.949  0.00  0.00    +0.000 C 
ATOM     11  O   UNL     1      -0.372  17.510  22.972  0.00  0.00    +0.000 OA
ATOM     12  C   UNL     1      -0.553  17.532  20.604  0.00  0.00    +0.000 C 
ATOM     13  C   UNL     1      -0.983  16.672  19.432  0.00  0.00    +0.000 C 
ATOM     14  C   UNL     1      -0.255  15.348  19.479  0.00  0.00    +0.000 C 
ATOM     15  C   UNL     1      -0.602  14.604  20.774  0.00  0.00    +0.000 C 
BRANCH   9  16
ATOM     16  C   UNL     1      -0.748  14.805  23.285  0.00  0.00    +0.000 C 
BRANCH  16  21
ATOM     17  C   UNL     1      -6.213  12.851  23.885  0.00  0.00    +0.000 C 
ATOM     18  C   UNL     1      -4.802  13.355  23.802  0.00  0.00    +0.000 A 
ATOM     19  C   UNL     1      -4.521  14.724  23.877  0.00  0.00    +0.000 A 
ATOM     20  C   UNL     1      -3.209  15.190  23.744  0.00  0.00    +0.000 A 
ATOM     21  C   UNL     1      -2.151  14.297  23.527  0.00  0.00    +0.000 A 
ATOM     22  C   UNL     1      -2.433  12.923  23.489  0.00  0.00    +0.000 A 
ATOM     23  C   UNL     1      -3.745  12.457  23.617  0.00  0.00    +0.000 A 
ENDBRANCH  16  21
ENDBRANCH   9  16
ENDBRANCH   1  15
BRANCH   7  24
ATOM     24  C   UNL     1      -2.158  11.226  17.298  0.00  0.00    +0.000 C 
BRANCH  24  25
ATOM     25  N   UNL     1      -3.309  11.961  17.759  0.00  0.00    +0.000 N 
ATOM     26  C   UNL     1      -4.532  11.749  17.196  0.00  0.00    +0.000 C 
ATOM     27  O   UNL     1      -4.722  10.956  16.280  0.00  0.00    +0.000 OA
ATOM     28  H   UNL     1      -3.247  12.633  18.512  0.00  0.00    +0.000 HD
BRANCH  26  29
ATOM     29  O   UNL     1      -5.470  12.545  17.759  0.00  0.00    +0.000 OA
BRANCH  29  30
ATOM     30  C   UNL     1      -6.199  12.034  18.910  0.00  0.00    +0.000 C 
ATOM     31  C   UNL     1      -5.484  12.384  20.223  0.00  0.00    +0.000 C 
ATOM     32  C   UNL     1      -7.564  12.742  18.905  0.00  0.00    +0.000 C 
ATOM     33  C   UNL     1      -6.449  10.526  18.766  0.00  0.00    +0.000 C 
ENDBRANCH  29  30
ENDBRANCH  26  29
ENDBRANCH  24  25
ENDBRANCH   7  24
TORSDOF 7
ENDMDL
