MODEL 1
REMARK VINA RESULT:      -6.9      0.000      0.000
REMARK  Name = 
REMARK  2 active torsions:
REMARK  status: ('A' for Active; 'I' for Inactive)
REMARK    1  A    between atoms: C_1  and  C_2
REMARK    2  A    between atoms: C_11  and  C_12
REMARK                            x       y       z     vdW  Elec       q    Type
REMARK                         _______ _______ _______ _____ _____    ______ ____
ROOT
ATOM      1  C   UNL     1       4.973   4.523  17.747  0.00  0.00    +0.000 C 
ATOM      2  C   UNL     1       3.988   5.417  18.387  0.00  0.00    +0.000 A 
ATOM      3  C   UNL     1       3.295   6.532  17.990  0.00  0.00    +0.000 A 
ATOM      4  C   UNL     1       2.577   6.960  19.143  0.00  0.00    +0.000 A 
ATOM      5  N   UNL     1       1.857   8.141  19.287  0.00  0.00    +0.000 N 
ATOM      6  C   UNL     1       1.294   8.550  20.481  0.00  0.00    +0.000 C 
ATOM      7  O   UNL     1       0.992   7.907  21.463  0.00  0.00    +0.000 OA
ATOM      8  C   UNL     1       1.050  10.050  20.396  0.00  0.00    +0.000 C 
ATOM      9  C   UNL     1      -0.422  10.530  20.603  0.00  0.00    +0.000 C 
ATOM     10  C   UNL     1      -0.651  12.067  20.548  0.00  0.00    +0.000 C 
ATOM     11  C   UNL     1       0.078  12.486  19.252  0.00  0.00    +0.000 C 
ATOM     12  C   UNL     1       0.095  11.081  18.496  0.00  0.00    +0.000 C 
ATOM     13  C   UNL     1      -0.990  10.233  19.223  0.00  0.00    +0.000 C 
ATOM     14  C   UNL     1       1.366  10.363  18.933  0.00  0.00    +0.000 C 
ATOM     15  C   UNL     1       1.686   9.048  18.275  0.00  0.00    +0.000 C 
ATOM     16  O   UNL     1       1.802   8.893  17.065  0.00  0.00    +0.000 OA
ATOM     17  N   UNL     1       2.801   6.095  20.151  0.00  0.00    +0.000 NA
ATOM     18  O   UNL     1       3.672   5.144  19.676  0.00  0.00    +0.000 OA
ENDROOT
BRANCH  11  19
ATOM     19  C   UNL     1       1.447  13.130  19.562  0.00  0.00    +0.000 A 
ATOM     20  C   UNL     1       2.345  13.495  18.531  0.00  0.00    +0.000 A 
ATOM     21  C   UNL     1       3.482  14.265  18.756  0.00  0.00    +0.000 A 
ATOM     22  C   UNL     1       3.794  14.647  20.047  0.00  0.00    +0.000 A 
ATOM     23  C   UNL     1       2.979  14.234  21.101  0.00  0.00    +0.000 A 
ATOM     24  C   UNL     1       1.811  13.485  20.867  0.00  0.00    +0.000 A 
ENDBRANCH  11  19
TORSDOF 1
ENDMDL
MODEL 2
REMARK VINA RESULT:      -6.8      2.085      4.317
REMARK  Name = 
REMARK  2 active torsions:
REMARK  status: ('A' for Active; 'I' for Inactive)
REMARK    1  A    between atoms: C_1  and  C_2
REMARK    2  A    between atoms: C_11  and  C_12
REMARK                            x       y       z     vdW  Elec       q    Type
REMARK                         _______ _______ _______ _____ _____    ______ ____
ROOT
ATOM      1  C   UNL     1       2.001   3.823  20.997  0.00  0.00    +0.000 C 
ATOM      2  C   UNL     1       2.037   5.211  20.494  0.00  0.00    +0.000 A 
ATOM      3  C   UNL     1       1.438   6.388  20.863  0.00  0.00    +0.000 A 
ATOM      4  C   UNL     1       1.839   7.339  19.881  0.00  0.00    +0.000 A 
ATOM      5  N   UNL     1       1.360   8.636  19.731  0.00  0.00    +0.000 N 
ATOM      6  C   UNL     1       1.702   9.457  18.674  0.00  0.00    +0.000 C 
ATOM      7  O   UNL     1       2.656   9.415  17.929  0.00  0.00    +0.000 OA
ATOM      8  C   UNL     1       0.643  10.545  18.564  0.00  0.00    +0.000 C 
ATOM      9  C   UNL     1       1.147  12.020  18.669  0.00  0.00    +0.000 C 
ATOM     10  C   UNL     1       0.060  13.123  18.520  0.00  0.00    +0.000 C 
ATOM     11  C   UNL     1      -1.048  12.659  19.491  0.00  0.00    +0.000 C 
ATOM     12  C   UNL     1      -0.183  11.715  20.443  0.00  0.00    +0.000 C 
ATOM     13  C   UNL     1       1.291  12.140  20.179  0.00  0.00    +0.000 C 
ATOM     14  C   UNL     1      -0.202  10.326  19.818  0.00  0.00    +0.000 C 
ATOM     15  C   UNL     1       0.453   9.208  20.583  0.00  0.00    +0.000 C 
ATOM     16  O   UNL     1       0.157   8.891  21.730  0.00  0.00    +0.000 OA
ATOM     17  N   UNL     1       2.682   6.750  19.012  0.00  0.00    +0.000 NA
ATOM     18  O   UNL     1       2.801   5.435  19.398  0.00  0.00    +0.000 OA
ENDROOT
BRANCH  11  19
ATOM     19  C   UNL     1      -2.219  11.999  18.730  0.00  0.00    +0.000 A 
ATOM     20  C   UNL     1      -3.513  11.906  19.297  0.00  0.00    +0.000 A 
ATOM     21  C   UNL     1      -4.632  11.518  18.566  0.00  0.00    +0.000 A 
ATOM     22  C   UNL     1      -4.480  11.145  17.245  0.00  0.00    +0.000 A 
ATOM     23  C   UNL     1      -3.207  11.142  16.674  0.00  0.00    +0.000 A 
ATOM     24  C   UNL     1      -2.082  11.569  17.405  0.00  0.00    +0.000 A 
ENDBRANCH  11  19
TORSDOF 1
ENDMDL
MODEL 3
REMARK VINA RESULT:      -6.7      0.416      1.063
REMARK  Name = 
REMARK  2 active torsions:
REMARK  status: ('A' for Active; 'I' for Inactive)
REMARK    1  A    between atoms: C_1  and  C_2
REMARK    2  A    between atoms: C_11  and  C_12
REMARK                            x       y       z     vdW  Elec       q    Type
REMARK                         _______ _______ _______ _____ _____    ______ ____
ROOT
ATOM      1  C   UNL     1       4.882   4.964  17.859  0.00  0.00    +0.000 C 
ATOM      2  C   UNL     1       3.867   5.837  18.480  0.00  0.00    +0.000 A 
ATOM      3  C   UNL     1       3.154   6.934  18.070  0.00  0.00    +0.000 A 
ATOM      4  C   UNL     1       2.408   7.348  19.211  0.00  0.00    +0.000 A 
ATOM      5  N   UNL     1       1.658   8.511  19.340  0.00  0.00    +0.000 N 
ATOM      6  C   UNL     1       1.068   8.910  20.524  0.00  0.00    +0.000 C 
ATOM      7  O   UNL     1       0.765   8.263  21.503  0.00  0.00    +0.000 OA
ATOM      8  C   UNL     1       0.790  10.404  20.431  0.00  0.00    +0.000 C 
ATOM      9  C   UNL     1      -0.695  10.849  20.614  0.00  0.00    +0.000 C 
ATOM     10  C   UNL     1      -0.960  12.381  20.552  0.00  0.00    +0.000 C 
ATOM     11  C   UNL     1      -0.221  12.814  19.266  0.00  0.00    +0.000 C 
ATOM     12  C   UNL     1      -0.159  11.408  18.515  0.00  0.00    +0.000 C 
ATOM     13  C   UNL     1      -1.235  10.537  19.226  0.00  0.00    +0.000 C 
ATOM     14  C   UNL     1       1.122  10.721  18.973  0.00  0.00    +0.000 C 
ATOM     15  C   UNL     1       1.483   9.412  18.324  0.00  0.00    +0.000 C 
ATOM     16  O   UNL     1       1.621   9.257  17.115  0.00  0.00    +0.000 OA
ATOM     17  N   UNL     1       2.636   6.491  20.224  0.00  0.00    +0.000 NA
ATOM     18  O   UNL     1       3.538   5.559  19.765  0.00  0.00    +0.000 OA
ENDROOT
BRANCH  11  19
ATOM     19  C   UNL     1       1.128  13.490  19.596  0.00  0.00    +0.000 A 
ATOM     20  C   UNL     1       1.496  13.800  20.928  0.00  0.00    +0.000 A 
ATOM     21  C   UNL     1       2.778  14.207  21.282  0.00  0.00    +0.000 A 
ATOM     22  C   UNL     1       3.729  14.379  20.295  0.00  0.00    +0.000 A 
ATOM     23  C   UNL     1       3.381  14.166  18.961  0.00  0.00    +0.000 A 
ATOM     24  C   UNL     1       2.093  13.720  18.609  0.00  0.00    +0.000 A 
ENDBRANCH  11  19
TORSDOF 1
ENDMDL
MODEL 4
REMARK VINA RESULT:      -6.7      5.121      7.852
REMARK  Name = 
REMARK  2 active torsions:
REMARK  status: ('A' for Active; 'I' for Inactive)
REMARK    1  A    between atoms: C_1  and  C_2
REMARK    2  A    between atoms: C_11  and  C_12
REMARK                            x       y       z     vdW  Elec       q    Type
REMARK                         _______ _______ _______ _____ _____    ______ ____
ROOT
ATOM      1  C   UNL     1       8.859  11.058  18.129  0.00  0.00    +0.000 C 
ATOM      2  C   UNL     1       8.452   9.639  18.120  0.00  0.00    +0.000 A 
ATOM      3  C   UNL     1       7.453   8.925  17.512  0.00  0.00    +0.000 A 
ATOM      4  C   UNL     1       7.578   7.598  18.014  0.00  0.00    +0.000 A 
ATOM      5  N   UNL     1       6.692   6.544  17.817  0.00  0.00    +0.000 N 
ATOM      6  C   UNL     1       6.813   5.319  18.444  0.00  0.00    +0.000 C 
ATOM      7  O   UNL     1       7.781   4.791  18.948  0.00  0.00    +0.000 OA
ATOM      8  C   UNL     1       5.456   4.632  18.400  0.00  0.00    +0.000 C 
ATOM      9  C   UNL     1       5.405   3.234  17.706  0.00  0.00    +0.000 C 
ATOM     10  C   UNL     1       4.018   2.528  17.699  0.00  0.00    +0.000 C 
ATOM     11  C   UNL     1       3.064   3.630  17.189  0.00  0.00    +0.000 C 
ATOM     12  C   UNL     1       4.122   4.570  16.450  0.00  0.00    +0.000 C 
ATOM     13  C   UNL     1       5.373   3.666  16.248  0.00  0.00    +0.000 C 
ATOM     14  C   UNL     1       4.639   5.553  17.493  0.00  0.00    +0.000 C 
ATOM     15  C   UNL     1       5.576   6.635  17.029  0.00  0.00    +0.000 C 
ATOM     16  O   UNL     1       5.315   7.439  16.140  0.00  0.00    +0.000 OA
ATOM     17  N   UNL     1       8.642   7.534  18.837  0.00  0.00    +0.000 NA
ATOM     18  O   UNL     1       9.178   8.799  18.897  0.00  0.00    +0.000 OA
ENDROOT
BRANCH  11  19
ATOM     19  C   UNL     1       2.263   4.258  18.350  0.00  0.00    +0.000 A 
ATOM     20  C   UNL     1       1.653   3.459  19.347  0.00  0.00    +0.000 A 
ATOM     21  C   UNL     1       1.112   3.990  20.514  0.00  0.00    +0.000 A 
ATOM     22  C   UNL     1       1.107   5.360  20.695  0.00  0.00    +0.000 A 
ATOM     23  C   UNL     1       1.622   6.186  19.695  0.00  0.00    +0.000 A 
ATOM     24  C   UNL     1       2.201   5.645  18.532  0.00  0.00    +0.000 A 
ENDBRANCH  11  19
TORSDOF 1
ENDMDL
MODEL 5
REMARK VINA RESULT:      -6.6      2.020      4.199
REMARK  Name = 
REMARK  2 active torsions:
REMARK  status: ('A' for Active; 'I' for Inactive)
REMARK    1  A    between atoms: C_1  and  C_2
REMARK    2  A    between atoms: C_11  and  C_12
REMARK                            x       y       z     vdW  Elec       q    Type
REMARK                         _______ _______ _______ _____ _____    ______ ____
ROOT
ATOM      1  C   UNL     1       1.960   3.809  21.027  0.00  0.00    +0.000 C 
ATOM      2  C   UNL     1       2.030   5.200  20.539  0.00  0.00    +0.000 A 
ATOM      3  C   UNL     1       1.381   6.367  20.849  0.00  0.00    +0.000 A 
ATOM      4  C   UNL     1       1.868   7.330  19.919  0.00  0.00    +0.000 A 
ATOM      5  N   UNL     1       1.391   8.622  19.728  0.00  0.00    +0.000 N 
ATOM      6  C   UNL     1       1.829   9.454  18.717  0.00  0.00    +0.000 C 
ATOM      7  O   UNL     1       2.855   9.429  18.074  0.00  0.00    +0.000 OA
ATOM      8  C   UNL     1       0.773  10.530  18.503  0.00  0.00    +0.000 C 
ATOM      9  C   UNL     1       1.244  12.010  18.668  0.00  0.00    +0.000 C 
ATOM     10  C   UNL     1       0.164  13.100  18.413  0.00  0.00    +0.000 C 
ATOM     11  C   UNL     1      -1.033  12.616  19.262  0.00  0.00    +0.000 C 
ATOM     12  C   UNL     1      -0.258  11.676  20.293  0.00  0.00    +0.000 C 
ATOM     13  C   UNL     1       1.229  12.121  20.186  0.00  0.00    +0.000 C 
ATOM     14  C   UNL     1      -0.194  10.291  19.663  0.00  0.00    +0.000 C 
ATOM     15  C   UNL     1       0.393   9.176  20.485  0.00  0.00    +0.000 C 
ATOM     16  O   UNL     1      -0.015   8.848  21.594  0.00  0.00    +0.000 OA
ATOM     17  N   UNL     1       2.804   6.757  19.139  0.00  0.00    +0.000 NA
ATOM     18  O   UNL     1       2.900   5.442  19.528  0.00  0.00    +0.000 OA
ENDROOT
BRANCH  11  19
ATOM     19  C   UNL     1      -2.110  11.947  18.381  0.00  0.00    +0.000 A 
ATOM     20  C   UNL     1      -1.847  11.580  17.039  0.00  0.00    +0.000 A 
ATOM     21  C   UNL     1      -2.711  10.789  16.289  0.00  0.00    +0.000 A 
ATOM     22  C   UNL     1      -3.911  10.387  16.842  0.00  0.00    +0.000 A 
ATOM     23  C   UNL     1      -4.245  10.799  18.133  0.00  0.00    +0.000 A 
ATOM     24  C   UNL     1      -3.353  11.570  18.902  0.00  0.00    +0.000 A 
ENDBRANCH  11  19
TORSDOF 1
ENDMDL
MODEL 6
REMARK VINA RESULT:      -6.3      3.467      7.032
REMARK  Name = 
REMARK  2 active torsions:
REMARK  status: ('A' for Active; 'I' for Inactive)
REMARK    1  A    between atoms: C_1  and  C_2
REMARK    2  A    between atoms: C_11  and  C_12
REMARK                            x       y       z     vdW  Elec       q    Type
REMARK                         _______ _______ _______ _____ _____    ______ ____
ROOT
ATOM      1  C   UNL     1       0.031   9.795  23.307  0.00  0.00    +0.000 C 
ATOM      2  C   UNL     1       0.487   9.181  22.045  0.00  0.00    +0.000 A 
ATOM      3  C   UNL     1       1.164   8.034  21.717  0.00  0.00    +0.000 A 
ATOM      4  C   UNL     1       1.361   8.102  20.308  0.00  0.00    +0.000 A 
ATOM      5  N   UNL     1       2.139   7.248  19.533  0.00  0.00    +0.000 N 
ATOM      6  C   UNL     1       2.388   7.454  18.190  0.00  0.00    +0.000 C 
ATOM      7  O   UNL     1       1.777   8.108  17.373  0.00  0.00    +0.000 OA
ATOM      8  C   UNL     1       3.631   6.659  17.816  0.00  0.00    +0.000 C 
ATOM      9  C   UNL     1       3.466   5.604  16.677  0.00  0.00    +0.000 C 
ATOM     10  C   UNL     1       4.753   4.823  16.280  0.00  0.00    +0.000 C 
ATOM     11  C   UNL     1       5.310   4.348  17.641  0.00  0.00    +0.000 C 
ATOM     12  C   UNL     1       3.975   4.428  18.512  0.00  0.00    +0.000 C 
ATOM     13  C   UNL     1       2.826   4.469  17.463  0.00  0.00    +0.000 C 
ATOM     14  C   UNL     1       3.903   5.841  19.077  0.00  0.00    +0.000 C 
ATOM     15  C   UNL     1       2.787   6.153  20.037  0.00  0.00    +0.000 C 
ATOM     16  O   UNL     1       2.577   5.535  21.075  0.00  0.00    +0.000 OA
ATOM     17  N   UNL     1       0.773   9.215  19.831  0.00  0.00    +0.000 NA
ATOM     18  O   UNL     1       0.234   9.876  20.910  0.00  0.00    +0.000 OA
ENDROOT
BRANCH  11  19
ATOM     19  C   UNL     1       6.495   5.227  18.097  0.00  0.00    +0.000 A 
ATOM     20  C   UNL     1       6.937   6.332  17.331  0.00  0.00    +0.000 A 
ATOM     21  C   UNL     1       7.851   7.266  17.809  0.00  0.00    +0.000 A 
ATOM     22  C   UNL     1       8.407   7.087  19.061  0.00  0.00    +0.000 A 
ATOM     23  C   UNL     1       8.061   5.964  19.812  0.00  0.00    +0.000 A 
ATOM     24  C   UNL     1       7.109   5.040  19.341  0.00  0.00    +0.000 A 
ENDBRANCH  11  19
TORSDOF 1
ENDMDL
MODEL 7
REMARK VINA RESULT:      -6.3      5.995      9.070
REMARK  Name = 
REMARK  2 active torsions:
REMARK  status: ('A' for Active; 'I' for Inactive)
REMARK    1  A    between atoms: C_1  and  C_2
REMARK    2  A    between atoms: C_11  and  C_12
REMARK                            x       y       z     vdW  Elec       q    Type
REMARK                         _______ _______ _______ _____ _____    ______ ____
ROOT
ATOM      1  C   UNL     1       1.080  13.118  20.834  0.00  0.00    +0.000 C 
ATOM      2  C   UNL     1       2.358  13.856  20.851  0.00  0.00    +0.000 A 
ATOM      3  C   UNL     1       3.333  14.121  19.925  0.00  0.00    +0.000 A 
ATOM      4  C   UNL     1       4.354  14.812  20.638  0.00  0.00    +0.000 A 
ATOM      5  N   UNL     1       5.618  15.150  20.167  0.00  0.00    +0.000 N 
ATOM      6  C   UNL     1       6.604  15.706  20.960  0.00  0.00    +0.000 C 
ATOM      7  O   UNL     1       6.515  16.311  22.007  0.00  0.00    +0.000 OA
ATOM      8  C   UNL     1       7.944  15.468  20.280  0.00  0.00    +0.000 C 
ATOM      9  C   UNL     1       8.790  16.737  19.944  0.00  0.00    +0.000 C 
ATOM     10  C   UNL     1      10.173  16.478  19.281  0.00  0.00    +0.000 C 
ATOM     11  C   UNL     1       9.836  15.500  18.133  0.00  0.00    +0.000 C 
ATOM     12  C   UNL     1       8.281  15.818  17.968  0.00  0.00    +0.000 C 
ATOM     13  C   UNL     1       8.086  17.191  18.673  0.00  0.00    +0.000 C 
ATOM     14  C   UNL     1       7.540  14.892  18.924  0.00  0.00    +0.000 C 
ATOM     15  C   UNL     1       6.035  14.908  18.885  0.00  0.00    +0.000 C 
ATOM     16  O   UNL     1       5.369  14.694  17.878  0.00  0.00    +0.000 OA
ATOM     17  N   UNL     1       3.961  14.991  21.913  0.00  0.00    +0.000 NA
ATOM     18  O   UNL     1       2.726  14.399  22.037  0.00  0.00    +0.000 OA
ENDROOT
BRANCH  11  19
ATOM     19  C   UNL     1      10.218  14.050  18.503  0.00  0.00    +0.000 A 
ATOM     20  C   UNL     1       9.943  12.967  17.634  0.00  0.00    +0.000 A 
ATOM     21  C   UNL     1      10.458  11.690  17.833  0.00  0.00    +0.000 A 
ATOM     22  C   UNL     1      11.224  11.437  18.955  0.00  0.00    +0.000 A 
ATOM     23  C   UNL     1      11.446  12.458  19.879  0.00  0.00    +0.000 A 
ATOM     24  C   UNL     1      10.953  13.758  19.658  0.00  0.00    +0.000 A 
ENDBRANCH  11  19
TORSDOF 1
ENDMDL
MODEL 8
REMARK VINA RESULT:      -6.3      3.644      6.269
REMARK  Name = 
REMARK  2 active torsions:
REMARK  status: ('A' for Active; 'I' for Inactive)
REMARK    1  A    between atoms: C_1  and  C_2
REMARK    2  A    between atoms: C_11  and  C_12
REMARK                            x       y       z     vdW  Elec       q    Type
REMARK                         _______ _______ _______ _____ _____    ______ ____
ROOT
ATOM      1  C   UNL     1       7.490   4.956  12.740  0.00  0.00    +0.000 C 
ATOM      2  C   UNL     1       7.056   4.757  14.137  0.00  0.00    +0.000 A 
ATOM      3  C   UNL     1       5.845   4.588  14.757  0.00  0.00    +0.000 A 
ATOM      4  C   UNL     1       6.138   4.547  16.151  0.00  0.00    +0.000 A 
ATOM      5  N   UNL     1       5.221   4.551  17.196  0.00  0.00    +0.000 N 
ATOM      6  C   UNL     1       5.582   4.641  18.527  0.00  0.00    +0.000 C 
ATOM      7  O   UNL     1       6.635   4.387  19.069  0.00  0.00    +0.000 OA
ATOM      8  C   UNL     1       4.369   5.121  19.312  0.00  0.00    +0.000 C 
ATOM      9  C   UNL     1       3.874   4.192  20.465  0.00  0.00    +0.000 C 
ATOM     10  C   UNL     1       2.656   4.711  21.282  0.00  0.00    +0.000 C 
ATOM     11  C   UNL     1       1.645   5.117  20.186  0.00  0.00    +0.000 C 
ATOM     12  C   UNL     1       2.203   4.239  18.977  0.00  0.00    +0.000 C 
ATOM     13  C   UNL     1       3.098   3.162  19.656  0.00  0.00    +0.000 C 
ATOM     14  C   UNL     1       3.254   5.085  18.268  0.00  0.00    +0.000 C 
ATOM     15  C   UNL     1       3.864   4.530  17.010  0.00  0.00    +0.000 C 
ATOM     16  O   UNL     1       3.221   4.185  16.025  0.00  0.00    +0.000 OA
ATOM     17  N   UNL     1       7.470   4.630  16.327  0.00  0.00    +0.000 NA
ATOM     18  O   UNL     1       8.031   4.759  15.078  0.00  0.00    +0.000 OA
ENDROOT
BRANCH  11  19
ATOM     19  C   UNL     1       1.622   6.648  19.986  0.00  0.00    +0.000 A 
ATOM     20  C   UNL     1       1.854   7.233  18.718  0.00  0.00    +0.000 A 
ATOM     21  C   UNL     1       1.632   8.581  18.456  0.00  0.00    +0.000 A 
ATOM     22  C   UNL     1       1.224   9.411  19.482  0.00  0.00    +0.000 A 
ATOM     23  C   UNL     1       1.066   8.888  20.766  0.00  0.00    +0.000 A 
ATOM     24  C   UNL     1       1.258   7.517  21.021  0.00  0.00    +0.000 A 
ENDBRANCH  11  19
TORSDOF 1
ENDMDL
MODEL 9
REMARK VINA RESULT:      -6.2      3.828      6.529
REMARK  Name = 
REMARK  2 active torsions:
REMARK  status: ('A' for Active; 'I' for Inactive)
REMARK    1  A    between atoms: C_1  and  C_2
REMARK    2  A    between atoms: C_11  and  C_12
REMARK                            x       y       z     vdW  Elec       q    Type
REMARK                         _______ _______ _______ _____ _____    ______ ____
ROOT
ATOM      1  C   UNL     1       7.436   4.927  12.686  0.00  0.00    +0.000 C 
ATOM      2  C   UNL     1       7.026   4.720  14.088  0.00  0.00    +0.000 A 
ATOM      3  C   UNL     1       5.835   4.468  14.720  0.00  0.00    +0.000 A 
ATOM      4  C   UNL     1       6.138   4.474  16.112  0.00  0.00    +0.000 A 
ATOM      5  N   UNL     1       5.229   4.425  17.163  0.00  0.00    +0.000 N 
ATOM      6  C   UNL     1       5.589   4.568  18.490  0.00  0.00    +0.000 C 
ATOM      7  O   UNL     1       6.662   4.407  19.029  0.00  0.00    +0.000 OA
ATOM      8  C   UNL     1       4.347   4.965  19.274  0.00  0.00    +0.000 C 
ATOM      9  C   UNL     1       3.932   4.021  20.447  0.00  0.00    +0.000 C 
ATOM     10  C   UNL     1       2.681   4.457  21.263  0.00  0.00    +0.000 C 
ATOM     11  C   UNL     1       1.635   4.762  20.167  0.00  0.00    +0.000 C 
ATOM     12  C   UNL     1       2.255   3.909  18.969  0.00  0.00    +0.000 C 
ATOM     13  C   UNL     1       3.236   2.919  19.662  0.00  0.00    +0.000 C 
ATOM     14  C   UNL     1       3.231   4.823  18.239  0.00  0.00    +0.000 C 
ATOM     15  C   UNL     1       3.877   4.295  16.986  0.00  0.00    +0.000 C 
ATOM     16  O   UNL     1       3.257   3.882  16.012  0.00  0.00    +0.000 OA
ATOM     17  N   UNL     1       7.460   4.666  16.277  0.00  0.00    +0.000 NA
ATOM     18  O   UNL     1       8.003   4.815  15.023  0.00  0.00    +0.000 OA
ENDROOT
BRANCH  11  19
ATOM     19  C   UNL     1       1.491   6.283  19.940  0.00  0.00    +0.000 A 
ATOM     20  C   UNL     1       1.124   7.158  20.991  0.00  0.00    +0.000 A 
ATOM     21  C   UNL     1       1.193   8.543  20.879  0.00  0.00    +0.000 A 
ATOM     22  C   UNL     1       1.576   9.106  19.677  0.00  0.00    +0.000 A 
ATOM     23  C   UNL     1       1.864   8.278  18.592  0.00  0.00    +0.000 A 
ATOM     24  C   UNL     1       1.828   6.877  18.717  0.00  0.00    +0.000 A 
ENDBRANCH  11  19
TORSDOF 1
ENDMDL
