MODEL 1
REMARK VINA RESULT:      -8.6      0.000      0.000
REMARK  Name = 
REMARK  7 active torsions:
REMARK  status: ('A' for Active; 'I' for Inactive)
REMARK    1  A    between atoms: C_2  and  O_3
REMARK    2  A    between atoms: C_2  and  C_4
REMARK    3  A    between atoms: C_4  and  C_5
REMARK    4  A    between atoms: C_8  and  C_9
REMARK    5  A    between atoms: C_12  and  C_13
REMARK    6  A    between atoms: C_19  and  C_20
REMARK    7  A    between atoms: C_20  and  C_21
REMARK                            x       y       z     vdW  Elec       q    Type
REMARK                         _______ _______ _______ _____ _____    ______ ____
ROOT
ATOM      1  C   UNL     1       2.600   7.236  18.480  0.00  0.00    +0.000 A 
ATOM      2  C   UNL     1       2.081   8.466  18.063  0.00  0.00    +0.000 A 
ATOM      3  C   UNL     1       1.339   9.259  18.938  0.00  0.00    +0.000 A 
ATOM      4  C   UNL     1       1.099   8.839  20.253  0.00  0.00    +0.000 A 
ATOM      5  C   UNL     1       1.591   7.604  20.679  0.00  0.00    +0.000 A 
ATOM      6  C   UNL     1       2.330   6.804  19.793  0.00  0.00    +0.000 A 
ENDROOT
BRANCH   4   7
ATOM      7  C   UNL     1       0.275   9.726  21.118  0.00  0.00    +0.000 C 
ATOM      8  O   UNL     1       0.270   9.484  22.320  0.00  0.00    +0.000 OA
ATOM      9  N   UNL     1      -0.454  10.703  20.474  0.00  0.00    +0.000 N 
ATOM     10  C   UNL     1      -1.286  11.612  21.094  0.00  0.00    +0.000 A 
ATOM     11  N   UNL     1      -2.121  12.383  20.431  0.00  0.00    +0.000 NA
ATOM     12  N   UNL     1      -2.829  13.231  21.266  0.00  0.00    +0.000 NA
ATOM     13  C   UNL     1      -2.474  13.091  22.528  0.00  0.00    +0.000 A 
ATOM     14  S   UNL     1      -1.274  11.890  22.778  0.00  0.00    +0.000 S 
ATOM     15  H   UNL     1      -0.522  10.705  19.466  0.00  0.00    +0.000 HD
BRANCH  13  16
ATOM     16  C   UNL     1      -2.988  13.917  23.669  0.00  0.00    +0.000 C 
BRANCH  16  17
ATOM     17  C   UNL     1      -4.497  13.973  23.764  0.00  0.00    +0.000 A 
ATOM     18  C   UNL     1      -5.239  12.820  24.070  0.00  0.00    +0.000 A 
ATOM     19  C   UNL     1      -6.633  12.868  24.150  0.00  0.00    +0.000 A 
ATOM     20  C   UNL     1      -7.305  14.069  23.923  0.00  0.00    +0.000 A 
ATOM     21  C   UNL     1      -6.579  15.215  23.608  0.00  0.00    +0.000 A 
ATOM     22 CL   UNL     1      -7.408  16.695  23.313  0.00  0.00    +0.000 Cl
ATOM     23  C   UNL     1      -5.186  15.173  23.525  0.00  0.00    +0.000 A 
ENDBRANCH  16  17
ENDBRANCH  13  16
ENDBRANCH   4   7
BRANCH   1  27
ATOM     24  C   UNL     1       5.895   4.835  16.872  0.00  0.00    +0.000 C 
ATOM     25  C   UNL     1       5.745   6.294  16.414  0.00  0.00    +0.000 C 
ATOM     26  C   UNL     1       4.846   7.083  17.360  0.00  0.00    +0.000 C 
ATOM     27  C   UNL     1       3.466   6.429  17.523  0.00  0.00    +0.000 C 
ATOM     28  C   UNL     1       3.585   4.947  17.920  0.00  0.00    +0.000 C 
ATOM     29  C   UNL     1       4.509   4.179  16.968  0.00  0.00    +0.000 C 
BRANCH  24  30
ATOM     30  C   UNL     1       6.811   4.042  15.925  0.00  0.00    +0.000 C 
BRANCH  30  32
ATOM     31  O   UNL     1       7.685   5.456  14.155  0.00  0.00    +0.000 OA
ATOM     32  C   UNL     1       6.860   4.641  14.535  0.00  0.00    +0.000 C 
BRANCH  32  33
ATOM     33  O   UNL     1       5.901   4.152  13.716  0.00  0.00    +0.000 OA
ATOM     34  H   UNL     1       6.168   3.366  13.206  0.00  0.00    +0.000 HD
ENDBRANCH  32  33
ENDBRANCH  30  32
ENDBRANCH  24  30
ENDBRANCH   1  27
TORSDOF 7
ENDMDL
MODEL 2
REMARK VINA RESULT:      -8.6      2.217      2.608
REMARK  Name = 
REMARK  7 active torsions:
REMARK  status: ('A' for Active; 'I' for Inactive)
REMARK    1  A    between atoms: C_2  and  O_3
REMARK    2  A    between atoms: C_2  and  C_4
REMARK    3  A    between atoms: C_4  and  C_5
REMARK    4  A    between atoms: C_8  and  C_9
REMARK    5  A    between atoms: C_12  and  C_13
REMARK    6  A    between atoms: C_19  and  C_20
REMARK    7  A    between atoms: C_20  and  C_21
REMARK                            x       y       z     vdW  Elec       q    Type
REMARK                         _______ _______ _______ _____ _____    ______ ____
ROOT
ATOM      1  C   UNL     1       2.620   7.550  18.723  0.00  0.00    +0.000 A 
ATOM      2  C   UNL     1       2.194   8.552  17.846  0.00  0.00    +0.000 A 
ATOM      3  C   UNL     1       1.303   9.538  18.269  0.00  0.00    +0.000 A 
ATOM      4  C   UNL     1       0.816   9.544  19.583  0.00  0.00    +0.000 A 
ATOM      5  C   UNL     1       1.214   8.538  20.466  0.00  0.00    +0.000 A 
ATOM      6  C   UNL     1       2.104   7.543  20.034  0.00  0.00    +0.000 A 
ENDROOT
BRANCH   4   7
ATOM      7  C   UNL     1      -0.153  10.611  19.952  0.00  0.00    +0.000 C 
ATOM      8  O   UNL     1      -0.435  11.432  19.086  0.00  0.00    +0.000 OA
ATOM      9  N   UNL     1      -0.597  10.608  21.257  0.00  0.00    +0.000 N 
ATOM     10  C   UNL     1      -1.482  11.518  21.797  0.00  0.00    +0.000 A 
ATOM     11  N   UNL     1      -1.714  11.609  23.089  0.00  0.00    +0.000 NA
ATOM     12  N   UNL     1      -2.661  12.575  23.386  0.00  0.00    +0.000 NA
ATOM     13  C   UNL     1      -3.134  13.153  22.300  0.00  0.00    +0.000 A 
ATOM     14  S   UNL     1      -2.429  12.575  20.848  0.00  0.00    +0.000 S 
ATOM     15  H   UNL     1      -0.167   9.999  21.940  0.00  0.00    +0.000 HD
BRANCH  13  16
ATOM     16  C   UNL     1      -4.229  14.177  22.273  0.00  0.00    +0.000 C 
BRANCH  16  17
ATOM     17  C   UNL     1      -5.422  13.790  21.426  0.00  0.00    +0.000 A 
ATOM     18  C   UNL     1      -5.954  14.688  20.487  0.00  0.00    +0.000 A 
ATOM     19  C   UNL     1      -7.061  14.334  19.710  0.00  0.00    +0.000 A 
ATOM     20  C   UNL     1      -7.652  13.081  19.864  0.00  0.00    +0.000 A 
ATOM     21  C   UNL     1      -7.138  12.189  20.801  0.00  0.00    +0.000 A 
ATOM     22 CL   UNL     1      -7.875  10.646  21.003  0.00  0.00    +0.000 Cl
ATOM     23  C   UNL     1      -6.033  12.535  21.581  0.00  0.00    +0.000 A 
ENDBRANCH  16  17
ENDBRANCH  13  16
ENDBRANCH   4   7
BRANCH   1  27
ATOM     24  C   UNL     1       4.897   4.824  16.156  0.00  0.00    +0.000 C 
ATOM     25  C   UNL     1       3.953   4.234  17.215  0.00  0.00    +0.000 C 
ATOM     26  C   UNL     1       2.952   5.274  17.708  0.00  0.00    +0.000 C 
ATOM     27  C   UNL     1       3.648   6.532  18.251  0.00  0.00    +0.000 C 
ATOM     28  C   UNL     1       4.647   7.109  17.235  0.00  0.00    +0.000 C 
ATOM     29  C   UNL     1       5.630   6.043  16.739  0.00  0.00    +0.000 C 
BRANCH  24  30
ATOM     30  C   UNL     1       5.899   3.773  15.650  0.00  0.00    +0.000 C 
BRANCH  30  32
ATOM     31  O   UNL     1       6.113   3.789  13.231  0.00  0.00    +0.000 OA
ATOM     32  C   UNL     1       6.517   4.158  14.322  0.00  0.00    +0.000 C 
BRANCH  32  33
ATOM     33  O   UNL     1       7.566   5.002  14.452  0.00  0.00    +0.000 OA
ATOM     34  H   UNL     1       7.546   5.548  15.259  0.00  0.00    +0.000 HD
ENDBRANCH  32  33
ENDBRANCH  30  32
ENDBRANCH  24  30
ENDBRANCH   1  27
TORSDOF 7
ENDMDL
MODEL 3
REMARK VINA RESULT:      -8.5      4.908     12.668
REMARK  Name = 
REMARK  7 active torsions:
REMARK  status: ('A' for Active; 'I' for Inactive)
REMARK    1  A    between atoms: C_2  and  O_3
REMARK    2  A    between atoms: C_2  and  C_4
REMARK    3  A    between atoms: C_4  and  C_5
REMARK    4  A    between atoms: C_8  and  C_9
REMARK    5  A    between atoms: C_12  and  C_13
REMARK    6  A    between atoms: C_19  and  C_20
REMARK    7  A    between atoms: C_20  and  C_21
REMARK                            x       y       z     vdW  Elec       q    Type
REMARK                         _______ _______ _______ _____ _____    ______ ____
ROOT
ATOM      1  C   UNL     1      -0.704  11.242  22.472  0.00  0.00    +0.000 A 
ATOM      2  C   UNL     1      -0.179  11.381  21.183  0.00  0.00    +0.000 A 
ATOM      3  C   UNL     1       0.498  10.326  20.571  0.00  0.00    +0.000 A 
ATOM      4  C   UNL     1       0.665   9.104  21.236  0.00  0.00    +0.000 A 
ATOM      5  C   UNL     1       0.166   8.955  22.532  0.00  0.00    +0.000 A 
ATOM      6  C   UNL     1      -0.507  10.022  23.148  0.00  0.00    +0.000 A 
ENDROOT
BRANCH   4   7
ATOM      7  C   UNL     1       1.422   8.035  20.531  0.00  0.00    +0.000 C 
ATOM      8  O   UNL     1       1.948   8.336  19.464  0.00  0.00    +0.000 OA
ATOM      9  N   UNL     1       1.410   6.788  21.118  0.00  0.00    +0.000 N 
ATOM     10  C   UNL     1       2.037   5.667  20.615  0.00  0.00    +0.000 A 
ATOM     11  N   UNL     1       1.825   4.458  21.088  0.00  0.00    +0.000 NA
ATOM     12  N   UNL     1       2.589   3.500  20.442  0.00  0.00    +0.000 NA
ATOM     13  C   UNL     1       3.376   4.030  19.527  0.00  0.00    +0.000 A 
ATOM     14  S   UNL     1       3.209   5.731  19.375  0.00  0.00    +0.000 S 
ATOM     15  H   UNL     1       0.799   6.600  21.900  0.00  0.00    +0.000 HD
BRANCH  13  16
ATOM     16  C   UNL     1       4.384   3.278  18.711  0.00  0.00    +0.000 C 
BRANCH  16  17
ATOM     17  C   UNL     1       5.075   4.111  17.654  0.00  0.00    +0.000 A 
ATOM     18  C   UNL     1       4.835   3.878  16.290  0.00  0.00    +0.000 A 
ATOM     19  C   UNL     1       5.479   4.641  15.312  0.00  0.00    +0.000 A 
ATOM     20  C   UNL     1       6.373   5.644  15.684  0.00  0.00    +0.000 A 
ATOM     21  C   UNL     1       6.626   5.874  17.034  0.00  0.00    +0.000 A 
ATOM     22 CL   UNL     1       7.739   7.104  17.496  0.00  0.00    +0.000 Cl
ATOM     23  C   UNL     1       5.986   5.115  18.016  0.00  0.00    +0.000 A 
ENDBRANCH  16  17
ENDBRANCH  13  16
ENDBRANCH   4   7
BRANCH   1  27
ATOM     24  C   UNL     1      -3.605  14.489  22.968  0.00  0.00    +0.000 C 
ATOM     25  C   UNL     1      -2.115  14.837  22.828  0.00  0.00    +0.000 C 
ATOM     26  C   UNL     1      -1.323  13.668  22.251  0.00  0.00    +0.000 C 
ATOM     27  C   UNL     1      -1.498  12.387  23.081  0.00  0.00    +0.000 C 
ATOM     28  C   UNL     1      -2.984  12.048  23.291  0.00  0.00    +0.000 C 
ATOM     29  C   UNL     1      -3.764  13.243  23.853  0.00  0.00    +0.000 C 
BRANCH  24  30
ATOM     30  C   UNL     1      -4.406  15.671  23.539  0.00  0.00    +0.000 C 
BRANCH  30  32
ATOM     31  O   UNL     1      -6.437  15.759  22.209  0.00  0.00    +0.000 OA
ATOM     32  C   UNL     1      -5.893  15.538  23.280  0.00  0.00    +0.000 C 
BRANCH  32  33
ATOM     33  O   UNL     1      -6.581  15.107  24.361  0.00  0.00    +0.000 OA
ATOM     34  H   UNL     1      -7.440  14.696  24.154  0.00  0.00    +0.000 HD
ENDBRANCH  32  33
ENDBRANCH  30  32
ENDBRANCH  24  30
ENDBRANCH   1  27
TORSDOF 7
ENDMDL
MODEL 4
REMARK VINA RESULT:      -8.4      0.734      1.126
REMARK  Name = 
REMARK  7 active torsions:
REMARK  status: ('A' for Active; 'I' for Inactive)
REMARK    1  A    between atoms: C_2  and  O_3
REMARK    2  A    between atoms: C_2  and  C_4
REMARK    3  A    between atoms: C_4  and  C_5
REMARK    4  A    between atoms: C_8  and  C_9
REMARK    5  A    between atoms: C_12  and  C_13
REMARK    6  A    between atoms: C_19  and  C_20
REMARK    7  A    between atoms: C_20  and  C_21
REMARK                            x       y       z     vdW  Elec       q    Type
REMARK                         _______ _______ _______ _____ _____    ______ ____
ROOT
ATOM      1  C   UNL     1       2.360   7.480  19.055  0.00  0.00    +0.000 A 
ATOM      2  C   UNL     1       1.984   7.183  20.370  0.00  0.00    +0.000 A 
ATOM      3  C   UNL     1       1.143   8.039  21.081  0.00  0.00    +0.000 A 
ATOM      4  C   UNL     1       0.657   9.214  20.492  0.00  0.00    +0.000 A 
ATOM      5  C   UNL     1       1.040   9.536  19.188  0.00  0.00    +0.000 A 
ATOM      6  C   UNL     1       1.893   8.678  18.479  0.00  0.00    +0.000 A 
ENDROOT
BRANCH   4   7
ATOM      7  C   UNL     1      -0.212  10.091  21.323  0.00  0.00    +0.000 C 
ATOM      8  O   UNL     1      -0.509   9.683  22.441  0.00  0.00    +0.000 OA
ATOM      9  N   UNL     1      -0.651  11.255  20.730  0.00  0.00    +0.000 N 
ATOM     10  C   UNL     1      -1.473  12.189  21.326  0.00  0.00    +0.000 A 
ATOM     11  N   UNL     1      -2.037  13.172  20.658  0.00  0.00    +0.000 NA
ATOM     12  N   UNL     1      -2.793  13.996  21.476  0.00  0.00    +0.000 NA
ATOM     13  C   UNL     1      -2.741  13.621  22.739  0.00  0.00    +0.000 A 
ATOM     14  S   UNL     1      -1.790  12.218  23.003  0.00  0.00    +0.000 S 
ATOM     15  H   UNL     1      -0.499  11.412  19.743  0.00  0.00    +0.000 HD
BRANCH  13  16
ATOM     16  C   UNL     1      -3.378  14.348  23.884  0.00  0.00    +0.000 C 
BRANCH  16  17
ATOM     17  C   UNL     1      -4.891  14.321  23.873  0.00  0.00    +0.000 A 
ATOM     18  C   UNL     1      -5.586  13.118  24.084  0.00  0.00    +0.000 A 
ATOM     19  C   UNL     1      -6.983  13.090  24.066  0.00  0.00    +0.000 A 
ATOM     20  C   UNL     1      -7.704  14.261  23.833  0.00  0.00    +0.000 A 
ATOM     21  C   UNL     1      -7.023  15.455  23.611  0.00  0.00    +0.000 A 
ATOM     22 CL   UNL     1      -7.910  16.900  23.311  0.00  0.00    +0.000 Cl
ATOM     23  C   UNL     1      -5.627  15.491  23.627  0.00  0.00    +0.000 A 
ENDBRANCH  16  17
ENDBRANCH  13  16
ENDBRANCH   4   7
BRANCH   1  27
ATOM     24  C   UNL     1       5.852   5.358  17.471  0.00  0.00    +0.000 C 
ATOM     25  C   UNL     1       5.044   6.267  16.532  0.00  0.00    +0.000 C 
ATOM     26  C   UNL     1       4.158   7.229  17.316  0.00  0.00    +0.000 C 
ATOM     27  C   UNL     1       3.220   6.490  18.284  0.00  0.00    +0.000 C 
ATOM     28  C   UNL     1       3.995   5.524  19.196  0.00  0.00    +0.000 C 
ATOM     29  C   UNL     1       4.893   4.580  18.388  0.00  0.00    +0.000 C 
BRANCH  24  30
ATOM     30  C   UNL     1       6.754   4.396  16.681  0.00  0.00    +0.000 C 
BRANCH  30  32
ATOM     31  O   UNL     1       7.589   5.426  14.646  0.00  0.00    +0.000 OA
ATOM     32  C   UNL     1       6.771   4.708  15.199  0.00  0.00    +0.000 C 
BRANCH  32  33
ATOM     33  O   UNL     1       5.791   4.074  14.514  0.00  0.00    +0.000 OA
ATOM     34  H   UNL     1       5.521   4.521  13.691  0.00  0.00    +0.000 HD
ENDBRANCH  32  33
ENDBRANCH  30  32
ENDBRANCH  24  30
ENDBRANCH   1  27
TORSDOF 7
ENDMDL
MODEL 5
REMARK VINA RESULT:      -8.3      1.131      1.540
REMARK  Name = 
REMARK  7 active torsions:
REMARK  status: ('A' for Active; 'I' for Inactive)
REMARK    1  A    between atoms: C_2  and  O_3
REMARK    2  A    between atoms: C_2  and  C_4
REMARK    3  A    between atoms: C_4  and  C_5
REMARK    4  A    between atoms: C_8  and  C_9
REMARK    5  A    between atoms: C_12  and  C_13
REMARK    6  A    between atoms: C_19  and  C_20
REMARK    7  A    between atoms: C_20  and  C_21
REMARK                            x       y       z     vdW  Elec       q    Type
REMARK                         _______ _______ _______ _____ _____    ______ ____
ROOT
ATOM      1  C   UNL     1       2.553   7.245  18.565  0.00  0.00    +0.000 A 
ATOM      2  C   UNL     1       2.052   8.467  18.104  0.00  0.00    +0.000 A 
ATOM      3  C   UNL     1       1.305   9.293  18.943  0.00  0.00    +0.000 A 
ATOM      4  C   UNL     1       1.042   8.917  20.267  0.00  0.00    +0.000 A 
ATOM      5  C   UNL     1       1.517   7.691  20.738  0.00  0.00    +0.000 A 
ATOM      6  C   UNL     1       2.261   6.857  19.888  0.00  0.00    +0.000 A 
ENDROOT
BRANCH   4   7
ATOM      7  C   UNL     1       0.215   9.838  21.092  0.00  0.00    +0.000 C 
ATOM      8  O   UNL     1      -0.581   9.324  21.872  0.00  0.00    +0.000 OA
ATOM      9  N   UNL     1       0.381  11.185  20.857  0.00  0.00    +0.000 N 
ATOM     10  C   UNL     1      -0.300  12.195  21.505  0.00  0.00    +0.000 A 
ATOM     11  N   UNL     1      -0.268  13.448  21.106  0.00  0.00    +0.000 NA
ATOM     12  N   UNL     1      -1.005  14.281  21.931  0.00  0.00    +0.000 NA
ATOM     13  C   UNL     1      -1.537  13.627  22.945  0.00  0.00    +0.000 A 
ATOM     14  S   UNL     1      -1.197  11.946  22.936  0.00  0.00    +0.000 S 
ATOM     15  H   UNL     1       0.929  11.501  20.069  0.00  0.00    +0.000 HD
BRANCH  13  16
ATOM     16  C   UNL     1      -2.321  14.250  24.061  0.00  0.00    +0.000 C 
BRANCH  16  17
ATOM     17  C   UNL     1      -3.788  14.453  23.753  0.00  0.00    +0.000 A 
ATOM     18  C   UNL     1      -4.259  15.696  23.299  0.00  0.00    +0.000 A 
ATOM     19  C   UNL     1      -5.615  15.887  23.022  0.00  0.00    +0.000 A 
ATOM     20  C   UNL     1      -6.520  14.840  23.200  0.00  0.00    +0.000 A 
ATOM     21  C   UNL     1      -6.063  13.608  23.661  0.00  0.00    +0.000 A 
ATOM     22 CL   UNL     1      -7.180  12.318  23.894  0.00  0.00    +0.000 Cl
ATOM     23  C   UNL     1      -4.710  13.410  23.940  0.00  0.00    +0.000 A 
ENDBRANCH  16  17
ENDBRANCH  13  16
ENDBRANCH   4   7
BRANCH   1  27
ATOM     24  C   UNL     1       5.984   5.050  16.948  0.00  0.00    +0.000 C 
ATOM     25  C   UNL     1       5.566   6.371  16.284  0.00  0.00    +0.000 C 
ATOM     26  C   UNL     1       4.663   7.192  17.200  0.00  0.00    +0.000 C 
ATOM     27  C   UNL     1       3.424   6.401  17.647  0.00  0.00    +0.000 C 
ATOM     28  C   UNL     1       3.809   5.043  18.259  0.00  0.00    +0.000 C 
ATOM     29  C   UNL     1       4.732   4.245  17.330  0.00  0.00    +0.000 C 
BRANCH  24  30
ATOM     30  C   UNL     1       6.904   4.228  16.030  0.00  0.00    +0.000 C 
BRANCH  30  32
ATOM     31  O   UNL     1       5.795   4.205  13.869  0.00  0.00    +0.000 OA
ATOM     32  C   UNL     1       6.723   4.581  14.568  0.00  0.00    +0.000 C 
BRANCH  32  33
ATOM     33  O   UNL     1       7.690   5.403  14.099  0.00  0.00    +0.000 OA
ATOM     34  H   UNL     1       7.414   5.964  13.353  0.00  0.00    +0.000 HD
ENDBRANCH  32  33
ENDBRANCH  30  32
ENDBRANCH  24  30
ENDBRANCH   1  27
TORSDOF 7
ENDMDL
MODEL 6
REMARK VINA RESULT:      -8.3      5.393     13.273
REMARK  Name = 
REMARK  7 active torsions:
REMARK  status: ('A' for Active; 'I' for Inactive)
REMARK    1  A    between atoms: C_2  and  O_3
REMARK    2  A    between atoms: C_2  and  C_4
REMARK    3  A    between atoms: C_4  and  C_5
REMARK    4  A    between atoms: C_8  and  C_9
REMARK    5  A    between atoms: C_12  and  C_13
REMARK    6  A    between atoms: C_19  and  C_20
REMARK    7  A    between atoms: C_20  and  C_21
REMARK                            x       y       z     vdW  Elec       q    Type
REMARK                         _______ _______ _______ _____ _____    ______ ____
ROOT
ATOM      1  C   UNL     1       0.194  10.257  20.706  0.00  0.00    +0.000 A 
ATOM      2  C   UNL     1       0.539   9.060  21.342  0.00  0.00    +0.000 A 
ATOM      3  C   UNL     1       1.335   8.114  20.697  0.00  0.00    +0.000 A 
ATOM      4  C   UNL     1       1.806   8.344  19.397  0.00  0.00    +0.000 A 
ATOM      5  C   UNL     1       1.453   9.524  18.739  0.00  0.00    +0.000 A 
ATOM      6  C   UNL     1       0.644  10.470  19.389  0.00  0.00    +0.000 A 
ENDROOT
BRANCH   4   7
ATOM      7  C   UNL     1       2.626   7.277  18.764  0.00  0.00    +0.000 C 
ATOM      8  O   UNL     1       2.493   6.138  19.201  0.00  0.00    +0.000 OA
ATOM      9  N   UNL     1       3.506   7.682  17.783  0.00  0.00    +0.000 N 
ATOM     10  C   UNL     1       4.360   6.851  17.089  0.00  0.00    +0.000 A 
ATOM     11  N   UNL     1       5.326   7.303  16.319  0.00  0.00    +0.000 NA
ATOM     12  N   UNL     1       6.031   6.280  15.706  0.00  0.00    +0.000 NA
ATOM     13  C   UNL     1       5.545   5.094  16.011  0.00  0.00    +0.000 A 
ATOM     14  S   UNL     1       4.215   5.151  17.092  0.00  0.00    +0.000 S 
ATOM     15  H   UNL     1       3.670   8.666  17.622  0.00  0.00    +0.000 HD
BRANCH  13  16
ATOM     16  C   UNL     1       6.026   3.790  15.448  0.00  0.00    +0.000 C 
BRANCH  16  17
ATOM     17  C   UNL     1       6.066   3.742  13.936  0.00  0.00    +0.000 A 
ATOM     18  C   UNL     1       7.251   4.035  13.241  0.00  0.00    +0.000 A 
ATOM     19  C   UNL     1       7.287   3.999  11.845  0.00  0.00    +0.000 A 
ATOM     20  C   UNL     1       6.138   3.675  11.124  0.00  0.00    +0.000 A 
ATOM     21  C   UNL     1       4.955   3.395  11.804  0.00  0.00    +0.000 A 
ATOM     22 CL   UNL     1       3.532   3.007  10.916  0.00  0.00    +0.000 Cl
ATOM     23  C   UNL     1       4.912   3.430  13.199  0.00  0.00    +0.000 A 
ENDBRANCH  16  17
ENDBRANCH  13  16
ENDBRANCH   4   7
BRANCH   1  27
ATOM     24  C   UNL     1      -3.138  12.291  22.697  0.00  0.00    +0.000 C 
ATOM     25  C   UNL     1      -2.639  12.828  21.346  0.00  0.00    +0.000 C 
ATOM     26  C   UNL     1      -1.797  11.789  20.613  0.00  0.00    +0.000 C 
ATOM     27  C   UNL     1      -0.616  11.298  21.465  0.00  0.00    +0.000 C 
ATOM     28  C   UNL     1      -1.080  10.813  22.849  0.00  0.00    +0.000 C 
ATOM     29  C   UNL     1      -1.939  11.865  23.559  0.00  0.00    +0.000 C 
BRANCH  24  30
ATOM     30  C   UNL     1      -3.997  13.334  23.432  0.00  0.00    +0.000 C 
BRANCH  30  32
ATOM     31  O   UNL     1      -6.048  12.250  24.150  0.00  0.00    +0.000 OA
ATOM     32  C   UNL     1      -4.947  12.701  24.426  0.00  0.00    +0.000 C 
BRANCH  32  33
ATOM     33  O   UNL     1      -4.441  12.644  25.679  0.00  0.00    +0.000 OA
ATOM     34  H   UNL     1      -4.140  11.759  25.952  0.00  0.00    +0.000 HD
ENDBRANCH  32  33
ENDBRANCH  30  32
ENDBRANCH  24  30
ENDBRANCH   1  27
TORSDOF 7
ENDMDL
MODEL 7
REMARK VINA RESULT:      -8.2      2.353      3.278
REMARK  Name = 
REMARK  7 active torsions:
REMARK  status: ('A' for Active; 'I' for Inactive)
REMARK    1  A    between atoms: C_2  and  O_3
REMARK    2  A    between atoms: C_2  and  C_4
REMARK    3  A    between atoms: C_4  and  C_5
REMARK    4  A    between atoms: C_8  and  C_9
REMARK    5  A    between atoms: C_12  and  C_13
REMARK    6  A    between atoms: C_19  and  C_20
REMARK    7  A    between atoms: C_20  and  C_21
REMARK                            x       y       z     vdW  Elec       q    Type
REMARK                         _______ _______ _______ _____ _____    ______ ____
ROOT
ATOM      1  C   UNL     1       2.065   7.985  18.663  0.00  0.00    +0.000 A 
ATOM      2  C   UNL     1       1.937   7.715  20.030  0.00  0.00    +0.000 A 
ATOM      3  C   UNL     1       1.244   8.590  20.867  0.00  0.00    +0.000 A 
ATOM      4  C   UNL     1       0.663   9.758  20.355  0.00  0.00    +0.000 A 
ATOM      5  C   UNL     1       0.801  10.054  18.998  0.00  0.00    +0.000 A 
ATOM      6  C   UNL     1       1.505   9.176  18.160  0.00  0.00    +0.000 A 
ENDROOT
BRANCH   4   7
ATOM      7  C   UNL     1      -0.034  10.656  21.315  0.00  0.00    +0.000 C 
ATOM      8  O   UNL     1       0.324  10.605  22.487  0.00  0.00    +0.000 OA
ATOM      9  N   UNL     1      -1.061  11.419  20.802  0.00  0.00    +0.000 N 
ATOM     10  C   UNL     1      -1.836  12.299  21.529  0.00  0.00    +0.000 A 
ATOM     11  N   UNL     1      -2.935  12.844  21.052  0.00  0.00    +0.000 NA
ATOM     12  N   UNL     1      -3.524  13.714  21.954  0.00  0.00    +0.000 NA
ATOM     13  C   UNL     1      -2.825  13.819  23.067  0.00  0.00    +0.000 A 
ATOM     14  S   UNL     1      -1.420  12.836  23.095  0.00  0.00    +0.000 S 
ATOM     15  H   UNL     1      -1.397  11.256  19.863  0.00  0.00    +0.000 HD
BRANCH  13  16
ATOM     16  C   UNL     1      -3.146  14.739  24.206  0.00  0.00    +0.000 C 
BRANCH  16  17
ATOM     17  C   UNL     1      -1.989  15.610  24.647  0.00  0.00    +0.000 A 
ATOM     18  C   UNL     1      -1.514  15.555  25.967  0.00  0.00    +0.000 A 
ATOM     19  C   UNL     1      -0.451  16.365  26.377  0.00  0.00    +0.000 A 
ATOM     20  C   UNL     1       0.148  17.242  25.474  0.00  0.00    +0.000 A 
ATOM     21  C   UNL     1      -0.324  17.312  24.166  0.00  0.00    +0.000 A 
ATOM     22 CL   UNL     1       0.406  18.404  23.054  0.00  0.00    +0.000 Cl
ATOM     23  C   UNL     1      -1.386  16.506  23.750  0.00  0.00    +0.000 A 
ENDBRANCH  16  17
ENDBRANCH  13  16
ENDBRANCH   4   7
BRANCH   1  27
ATOM     24  C   UNL     1       4.969   5.067  17.161  0.00  0.00    +0.000 C 
ATOM     25  C   UNL     1       4.915   6.462  16.519  0.00  0.00    +0.000 C 
ATOM     26  C   UNL     1       4.180   7.457  17.411  0.00  0.00    +0.000 C 
ATOM     27  C   UNL     1       2.764   6.975  17.766  0.00  0.00    +0.000 C 
ATOM     28  C   UNL     1       2.780   5.554  18.353  0.00  0.00    +0.000 C 
ATOM     29  C   UNL     1       3.541   4.577  17.450  0.00  0.00    +0.000 C 
BRANCH  24  30
ATOM     30  C   UNL     1       5.721   4.067  16.267  0.00  0.00    +0.000 C 
BRANCH  30  32
ATOM     31  O   UNL     1       7.263   5.114  14.710  0.00  0.00    +0.000 OA
ATOM     32  C   UNL     1       7.058   4.604  15.800  0.00  0.00    +0.000 C 
BRANCH  32  33
ATOM     33  O   UNL     1       8.027   4.499  16.738  0.00  0.00    +0.000 OA
ATOM     34  H   UNL     1       8.735   5.163  16.662  0.00  0.00    +0.000 HD
ENDBRANCH  32  33
ENDBRANCH  30  32
ENDBRANCH  24  30
ENDBRANCH   1  27
TORSDOF 7
ENDMDL
MODEL 8
REMARK VINA RESULT:      -8.2      1.249      1.487
REMARK  Name = 
REMARK  7 active torsions:
REMARK  status: ('A' for Active; 'I' for Inactive)
REMARK    1  A    between atoms: C_2  and  O_3
REMARK    2  A    between atoms: C_2  and  C_4
REMARK    3  A    between atoms: C_4  and  C_5
REMARK    4  A    between atoms: C_8  and  C_9
REMARK    5  A    between atoms: C_12  and  C_13
REMARK    6  A    between atoms: C_19  and  C_20
REMARK    7  A    between atoms: C_20  and  C_21
REMARK                            x       y       z     vdW  Elec       q    Type
REMARK                         _______ _______ _______ _____ _____    ______ ____
ROOT
ATOM      1  C   UNL     1       2.472   7.375  18.797  0.00  0.00    +0.000 A 
ATOM      2  C   UNL     1       2.102   8.555  18.144  0.00  0.00    +0.000 A 
ATOM      3  C   UNL     1       1.368   9.537  18.808  0.00  0.00    +0.000 A 
ATOM      4  C   UNL     1       0.986   9.361  20.145  0.00  0.00    +0.000 A 
ATOM      5  C   UNL     1       1.328   8.180  20.806  0.00  0.00    +0.000 A 
ATOM      6  C   UNL     1       2.059   7.190  20.131  0.00  0.00    +0.000 A 
ENDROOT
BRANCH   4   7
ATOM      7  C   UNL     1       0.180  10.440  20.777  0.00  0.00    +0.000 C 
ATOM      8  O   UNL     1       0.461  10.742  21.932  0.00  0.00    +0.000 OA
ATOM      9  N   UNL     1      -0.849  10.958  20.020  0.00  0.00    +0.000 N 
ATOM     10  C   UNL     1      -1.716  11.950  20.430  0.00  0.00    +0.000 A 
ATOM     11  N   UNL     1      -2.808  12.263  19.766  0.00  0.00    +0.000 NA
ATOM     12  N   UNL     1      -3.500  13.307  20.357  0.00  0.00    +0.000 NA
ATOM     13  C   UNL     1      -2.883  13.766  21.428  0.00  0.00    +0.000 A 
ATOM     14  S   UNL     1      -1.433  12.928  21.800  0.00  0.00    +0.000 S 
ATOM     15  H   UNL     1      -1.113  10.517  19.150  0.00  0.00    +0.000 HD
BRANCH  13  16
ATOM     16  C   UNL     1      -3.326  14.942  22.244  0.00  0.00    +0.000 C 
BRANCH  16  17
ATOM     17  C   UNL     1      -4.714  14.804  22.833  0.00  0.00    +0.000 A 
ATOM     18  C   UNL     1      -5.363  15.912  23.402  0.00  0.00    +0.000 A 
ATOM     19  C   UNL     1      -6.641  15.784  23.953  0.00  0.00    +0.000 A 
ATOM     20  C   UNL     1      -7.285  14.547  23.946  0.00  0.00    +0.000 A 
ATOM     21  C   UNL     1      -6.643  13.441  23.395  0.00  0.00    +0.000 A 
ATOM     22 CL   UNL     1      -7.431  11.909  23.397  0.00  0.00    +0.000 Cl
ATOM     23  C   UNL     1      -5.366  13.561  22.843  0.00  0.00    +0.000 A 
ENDBRANCH  16  17
ENDBRANCH  13  16
ENDBRANCH   4   7
BRANCH   1  27
ATOM     24  C   UNL     1       5.967   5.234  17.247  0.00  0.00    +0.000 C 
ATOM     25  C   UNL     1       5.107   6.057  16.275  0.00  0.00    +0.000 C 
ATOM     26  C   UNL     1       4.221   7.049  17.021  0.00  0.00    +0.000 C 
ATOM     27  C   UNL     1       3.333   6.356  18.066  0.00  0.00    +0.000 C 
ATOM     28  C   UNL     1       4.161   5.472  19.016  0.00  0.00    +0.000 C 
ATOM     29  C   UNL     1       5.058   4.498  18.244  0.00  0.00    +0.000 C 
BRANCH  24  30
ATOM     30  C   UNL     1       6.870   4.242  16.494  0.00  0.00    +0.000 C 
BRANCH  30  32
ATOM     31  O   UNL     1       7.528   5.517  14.535  0.00  0.00    +0.000 OA
ATOM     32  C   UNL     1       6.956   4.551  15.014  0.00  0.00    +0.000 C 
BRANCH  32  33
ATOM     33  O   UNL     1       6.355   3.616  14.243  0.00  0.00    +0.000 OA
ATOM     34  H   UNL     1       5.745   3.028  14.724  0.00  0.00    +0.000 HD
ENDBRANCH  32  33
ENDBRANCH  30  32
ENDBRANCH  24  30
ENDBRANCH   1  27
TORSDOF 7
ENDMDL
MODEL 9
REMARK VINA RESULT:      -8.1      5.379     13.226
REMARK  Name = 
REMARK  7 active torsions:
REMARK  status: ('A' for Active; 'I' for Inactive)
REMARK    1  A    between atoms: C_2  and  O_3
REMARK    2  A    between atoms: C_2  and  C_4
REMARK    3  A    between atoms: C_4  and  C_5
REMARK    4  A    between atoms: C_8  and  C_9
REMARK    5  A    between atoms: C_12  and  C_13
REMARK    6  A    between atoms: C_19  and  C_20
REMARK    7  A    between atoms: C_20  and  C_21
REMARK                            x       y       z     vdW  Elec       q    Type
REMARK                         _______ _______ _______ _____ _____    ______ ____
ROOT
ATOM      1  C   UNL     1      -0.155  10.563  21.264  0.00  0.00    +0.000 A 
ATOM      2  C   UNL     1       0.224  10.615  19.918  0.00  0.00    +0.000 A 
ATOM      3  C   UNL     1       0.980   9.589  19.351  0.00  0.00    +0.000 A 
ATOM      4  C   UNL     1       1.376   8.486  20.119  0.00  0.00    +0.000 A 
ATOM      5  C   UNL     1       1.025   8.429  21.469  0.00  0.00    +0.000 A 
ATOM      6  C   UNL     1       0.272   9.467  22.039  0.00  0.00    +0.000 A 
ENDROOT
BRANCH   4   7
ATOM      7  C   UNL     1       2.205   7.446  19.451  0.00  0.00    +0.000 C 
ATOM      8  O   UNL     1       2.240   6.339  19.978  0.00  0.00    +0.000 OA
ATOM      9  N   UNL     1       2.904   7.846  18.333  0.00  0.00    +0.000 N 
ATOM     10  C   UNL     1       3.736   7.039  17.585  0.00  0.00    +0.000 A 
ATOM     11  N   UNL     1       4.544   7.510  16.660  0.00  0.00    +0.000 NA
ATOM     12  N   UNL     1       5.257   6.506  16.025  0.00  0.00    +0.000 NA
ATOM     13  C   UNL     1       4.932   5.310  16.474  0.00  0.00    +0.000 A 
ATOM     14  S   UNL     1       3.756   5.338  17.723  0.00  0.00    +0.000 S 
ATOM     15  H   UNL     1       2.950   8.825  18.085  0.00  0.00    +0.000 HD
BRANCH  13  16
ATOM     16  C   UNL     1       5.458   4.012  15.939  0.00  0.00    +0.000 C 
BRANCH  16  17
ATOM     17  C   UNL     1       6.037   4.104  14.544  0.00  0.00    +0.000 A 
ATOM     18  C   UNL     1       5.491   3.351  13.492  0.00  0.00    +0.000 A 
ATOM     19  C   UNL     1       6.030   3.428  12.205  0.00  0.00    +0.000 A 
ATOM     20  C   UNL     1       7.124   4.256  11.953  0.00  0.00    +0.000 A 
ATOM     21  C   UNL     1       7.679   4.997  12.993  0.00  0.00    +0.000 A 
ATOM     22 CL   UNL     1       9.038   6.010  12.687  0.00  0.00    +0.000 Cl
ATOM     23  C   UNL     1       7.146   4.924  14.281  0.00  0.00    +0.000 A 
ENDBRANCH  16  17
ENDBRANCH  13  16
ENDBRANCH   4   7
BRANCH   1  27
ATOM     24  C   UNL     1      -3.694  12.795  22.565  0.00  0.00    +0.000 C 
ATOM     25  C   UNL     1      -2.942  13.260  21.308  0.00  0.00    +0.000 C 
ATOM     26  C   UNL     1      -2.030  12.162  20.769  0.00  0.00    +0.000 C 
ATOM     27  C   UNL     1      -1.040  11.663  21.832  0.00  0.00    +0.000 C 
ATOM     28  C   UNL     1      -1.760  11.250  23.127  0.00  0.00    +0.000 C 
ATOM     29  C   UNL     1      -2.685  12.360  23.640  0.00  0.00    +0.000 C 
BRANCH  24  30
ATOM     30  C   UNL     1      -4.622  13.898  23.103  0.00  0.00    +0.000 C 
BRANCH  30  32
ATOM     31  O   UNL     1      -6.867  13.960  24.029  0.00  0.00    +0.000 OA
ATOM     32  C   UNL     1      -6.034  13.400  23.334  0.00  0.00    +0.000 C 
BRANCH  32  33
ATOM     33  O   UNL     1      -6.312  12.264  22.653  0.00  0.00    +0.000 OA
ATOM     34  H   UNL     1      -6.047  12.281  21.716  0.00  0.00    +0.000 HD
ENDBRANCH  32  33
ENDBRANCH  30  32
ENDBRANCH  24  30
ENDBRANCH   1  27
TORSDOF 7
ENDMDL
