MODEL 1
REMARK VINA RESULT:      -7.3      0.000      0.000
REMARK  Name = 
REMARK  3 active torsions:
REMARK  status: ('A' for Active; 'I' for Inactive)
REMARK    1  A    between atoms: C_2  and  C_4
REMARK    2  A    between atoms: C_7  and  N_8
REMARK    3  A    between atoms: N_14  and  C_15
REMARK                            x       y       z     vdW  Elec       q    Type
REMARK                         _______ _______ _______ _____ _____    ______ ____
ROOT
ATOM      1  N   UNL     1       1.765   6.861  20.838  0.00  0.00    +0.000 N 
ATOM      2  C   UNL     1       1.614   8.037  20.147  0.00  0.00    +0.000 C 
ATOM      3  O   UNL     1       1.903   8.170  18.959  0.00  0.00    +0.000 OA
ATOM      4  N   UNL     1       1.048   9.083  20.849  0.00  0.00    +0.000 N 
ATOM      5  C   UNL     1       0.732  10.308  20.105  0.00  0.00    +0.000 C 
ATOM      6  C   UNL     1      -0.641  10.864  20.507  0.00  0.00    +0.000 C 
ATOM      7  N   UNL     1      -0.677  11.062  21.962  0.00  0.00    +0.000 N 
ATOM      8  C   UNL     1      -0.363   9.862  22.758  0.00  0.00    +0.000 C 
ATOM      9  C   UNL     1       0.982   9.248  22.312  0.00  0.00    +0.000 C 
ATOM     10  H   UNL     1       1.167   6.723  21.640  0.00  0.00    +0.000 HD
ENDROOT
BRANCH   1  14
ATOM     11  C   UNL     1       3.301   3.274  19.194  0.00  0.00    +0.000 A 
ATOM     12  C   UNL     1       4.125   4.400  19.278  0.00  0.00    +0.000 A 
ATOM     13  C   UNL     1       3.643   5.584  19.842  0.00  0.00    +0.000 A 
ATOM     14  C   UNL     1       2.329   5.673  20.305  0.00  0.00    +0.000 A 
ATOM     15  C   UNL     1       1.519   4.532  20.225  0.00  0.00    +0.000 A 
ATOM     16  F   UNL     1       0.255   4.586  20.672  0.00  0.00    +0.000 F 
ATOM     17  C   UNL     1       1.987   3.343  19.668  0.00  0.00    +0.000 A 
BRANCH  11  19
ATOM     18  N   UNL     1       4.640   1.243  19.331  0.00  0.00    +0.000 N 
ATOM     19  C   UNL     1       3.778   2.005  18.590  0.00  0.00    +0.000 C 
ATOM     20  O   UNL     1       3.394   1.637  17.489  0.00  0.00    +0.000 OA
ATOM     21  H   UNL     1       4.890   0.341  18.946  0.00  0.00    +0.000 HD
ATOM     22  H   UNL     1       4.806   1.395  20.314  0.00  0.00    +0.000 HD
ENDBRANCH  11  19
ENDBRANCH   1  14
BRANCH   7  23
ATOM     23  C   UNL     1      -1.177  12.207  22.511  0.00  0.00    +0.000 A 
ATOM     24  C   UNL     1      -0.538  13.431  22.638  0.00  0.00    +0.000 A 
ATOM     25  C   UNL     1      -1.304  14.409  23.335  0.00  0.00    +0.000 A 
ATOM     26  C   UNL     1      -2.520  13.911  23.733  0.00  0.00    +0.000 A 
ATOM     27  S   UNL     1      -2.741  12.294  23.240  0.00  0.00    +0.000 S 
ENDBRANCH   7  23
TORSDOF 3
ENDMDL
MODEL 2
REMARK VINA RESULT:      -7.2      1.199      1.353
REMARK  Name = 
REMARK  3 active torsions:
REMARK  status: ('A' for Active; 'I' for Inactive)
REMARK    1  A    between atoms: C_2  and  C_4
REMARK    2  A    between atoms: C_7  and  N_8
REMARK    3  A    between atoms: N_14  and  C_15
REMARK                            x       y       z     vdW  Elec       q    Type
REMARK                         _______ _______ _______ _____ _____    ______ ____
ROOT
ATOM      1  N   UNL     1       1.738   7.446  20.446  0.00  0.00    +0.000 N 
ATOM      2  C   UNL     1       1.404   8.658  19.895  0.00  0.00    +0.000 C 
ATOM      3  O   UNL     1       1.586   8.939  18.712  0.00  0.00    +0.000 OA
ATOM      4  N   UNL     1       0.779   9.555  20.738  0.00  0.00    +0.000 N 
ATOM      5  C   UNL     1       0.273  10.801  20.149  0.00  0.00    +0.000 C 
ATOM      6  C   UNL     1      -1.119  11.147  20.695  0.00  0.00    +0.000 C 
ATOM      7  N   UNL     1      -1.067  11.197  22.162  0.00  0.00    +0.000 N 
ATOM      8  C   UNL     1      -0.561   9.971  22.804  0.00  0.00    +0.000 C 
ATOM      9  C   UNL     1       0.807   9.567  22.211  0.00  0.00    +0.000 C 
ATOM     10  H   UNL     1       1.221   7.161  21.266  0.00  0.00    +0.000 HD
ENDROOT
BRANCH   1  14
ATOM     11  C   UNL     1       3.540   4.218  18.382  0.00  0.00    +0.000 A 
ATOM     12  C   UNL     1       4.035   5.513  18.199  0.00  0.00    +0.000 A 
ATOM     13  C   UNL     1       3.469   6.587  18.893  0.00  0.00    +0.000 A 
ATOM     14  C   UNL     1       2.389   6.391  19.756  0.00  0.00    +0.000 A 
ATOM     15  C   UNL     1       1.913   5.085  19.938  0.00  0.00    +0.000 A 
ATOM     16  F   UNL     1       0.882   4.868  20.769  0.00  0.00    +0.000 F 
ATOM     17  C   UNL     1       2.469   4.005  19.255  0.00  0.00    +0.000 A 
BRANCH  11  19
ATOM     18  N   UNL     1       5.207   3.289  16.867  0.00  0.00    +0.000 N 
ATOM     19  C   UNL     1       4.111   3.059  17.652  0.00  0.00    +0.000 C 
ATOM     20  O   UNL     1       3.642   1.935  17.771  0.00  0.00    +0.000 OA
ATOM     21  H   UNL     1       5.638   2.478  16.444  0.00  0.00    +0.000 HD
ATOM     22  H   UNL     1       5.750   4.138  16.912  0.00  0.00    +0.000 HD
ENDBRANCH  11  19
ENDBRANCH   1  14
BRANCH   7  23
ATOM     23  C   UNL     1      -1.649  12.215  22.859  0.00  0.00    +0.000 A 
ATOM     24  C   UNL     1      -2.899  12.218  23.460  0.00  0.00    +0.000 A 
ATOM     25  C   UNL     1      -3.253  13.469  24.042  0.00  0.00    +0.000 A 
ATOM     26  C   UNL     1      -2.265  14.406  23.871  0.00  0.00    +0.000 A 
ATOM     27  S   UNL     1      -0.915  13.767  23.047  0.00  0.00    +0.000 S 
ENDBRANCH   7  23
TORSDOF 3
ENDMDL
MODEL 3
REMARK VINA RESULT:      -7.2      1.136      1.177
REMARK  Name = 
REMARK  3 active torsions:
REMARK  status: ('A' for Active; 'I' for Inactive)
REMARK    1  A    between atoms: C_2  and  C_4
REMARK    2  A    between atoms: C_7  and  N_8
REMARK    3  A    between atoms: N_14  and  C_15
REMARK                            x       y       z     vdW  Elec       q    Type
REMARK                         _______ _______ _______ _____ _____    ______ ____
ROOT
ATOM      1  N   UNL     1       1.894   6.963  20.424  0.00  0.00    +0.000 N 
ATOM      2  C   UNL     1       1.767   8.015  19.551  0.00  0.00    +0.000 C 
ATOM      3  O   UNL     1       2.122   7.969  18.375  0.00  0.00    +0.000 OA
ATOM      4  N   UNL     1       1.146   9.143  20.049  0.00  0.00    +0.000 N 
ATOM      5  C   UNL     1       0.856  10.231  19.107  0.00  0.00    +0.000 C 
ATOM      6  C   UNL     1      -0.546  10.810  19.342  0.00  0.00    +0.000 C 
ATOM      7  N   UNL     1      -0.668  11.231  20.743  0.00  0.00    +0.000 N 
ATOM      8  C   UNL     1      -0.384  10.176  21.732  0.00  0.00    +0.000 C 
ATOM      9  C   UNL     1       0.993   9.531  21.463  0.00  0.00    +0.000 C 
ATOM     10  H   UNL     1       1.253   6.938  21.203  0.00  0.00    +0.000 HD
ENDROOT
BRANCH   1  14
ATOM     11  C   UNL     1       3.571   3.198  19.455  0.00  0.00    +0.000 A 
ATOM     12  C   UNL     1       4.352   4.351  19.332  0.00  0.00    +0.000 A 
ATOM     13  C   UNL     1       3.824   5.599  19.673  0.00  0.00    +0.000 A 
ATOM     14  C   UNL     1       2.504   5.720  20.114  0.00  0.00    +0.000 A 
ATOM     15  C   UNL     1       1.738   4.554  20.243  0.00  0.00    +0.000 A 
ATOM     16  F   UNL     1       0.470   4.642  20.674  0.00  0.00    +0.000 F 
ATOM     17  C   UNL     1       2.253   3.303  19.910  0.00  0.00    +0.000 A 
BRANCH  11  19
ATOM     18  N   UNL     1       5.085   1.338  19.881  0.00  0.00    +0.000 N 
ATOM     19  C   UNL     1       4.099   1.860  19.091  0.00  0.00    +0.000 C 
ATOM     20  O   UNL     1       3.650   1.233  18.141  0.00  0.00    +0.000 OA
ATOM     21  H   UNL     1       5.376   0.390  19.675  0.00  0.00    +0.000 HD
ATOM     22  H   UNL     1       5.326   1.715  20.785  0.00  0.00    +0.000 HD
ENDBRANCH  11  19
ENDBRANCH   1  14
BRANCH   7  23
ATOM     23  C   UNL     1      -1.216  12.435  21.079  0.00  0.00    +0.000 A 
ATOM     24  C   UNL     1      -1.895  13.313  20.247  0.00  0.00    +0.000 A 
ATOM     25  C   UNL     1      -2.273  14.530  20.884  0.00  0.00    +0.000 A 
ATOM     26  C   UNL     1      -1.870  14.563  22.196  0.00  0.00    +0.000 A 
ATOM     27  S   UNL     1      -1.076  13.125  22.656  0.00  0.00    +0.000 S 
ENDBRANCH   7  23
TORSDOF 3
ENDMDL
MODEL 4
REMARK VINA RESULT:      -6.9      2.383      2.591
REMARK  Name = 
REMARK  3 active torsions:
REMARK  status: ('A' for Active; 'I' for Inactive)
REMARK    1  A    between atoms: C_2  and  C_4
REMARK    2  A    between atoms: C_7  and  N_8
REMARK    3  A    between atoms: N_14  and  C_15
REMARK                            x       y       z     vdW  Elec       q    Type
REMARK                         _______ _______ _______ _____ _____    ______ ____
ROOT
ATOM      1  N   UNL     1       2.279   7.921  18.876  0.00  0.00    +0.000 N 
ATOM      2  C   UNL     1       1.818   9.144  18.457  0.00  0.00    +0.000 C 
ATOM      3  O   UNL     1       2.017   9.596  17.331  0.00  0.00    +0.000 OA
ATOM      4  N   UNL     1       1.043   9.841  19.363  0.00  0.00    +0.000 N 
ATOM      5  C   UNL     1       0.408  11.081  18.901  0.00  0.00    +0.000 C 
ATOM      6  C   UNL     1      -1.042  11.180  19.396  0.00  0.00    +0.000 C 
ATOM      7  N   UNL     1      -1.065  11.046  20.859  0.00  0.00    +0.000 N 
ATOM      8  C   UNL     1      -0.436   9.818  21.377  0.00  0.00    +0.000 C 
ATOM      9  C   UNL     1       0.999   9.665  20.826  0.00  0.00    +0.000 C 
ATOM     10  H   UNL     1       1.766   7.471  19.620  0.00  0.00    +0.000 HD
ENDROOT
BRANCH   1  14
ATOM     11  C   UNL     1       4.580   5.232  16.552  0.00  0.00    +0.000 A 
ATOM     12  C   UNL     1       4.895   6.593  16.540  0.00  0.00    +0.000 A 
ATOM     13  C   UNL     1       4.163   7.492  17.322  0.00  0.00    +0.000 A 
ATOM     14  C   UNL     1       3.093   7.052  18.103  0.00  0.00    +0.000 A 
ATOM     15  C   UNL     1       2.797   5.682  18.113  0.00  0.00    +0.000 A 
ATOM     16  F   UNL     1       1.780   5.232  18.864  0.00  0.00    +0.000 F 
ATOM     17  C   UNL     1       3.520   4.775  17.341  0.00  0.00    +0.000 A 
BRANCH  11  19
ATOM     18  N   UNL     1       5.649   3.057  16.303  0.00  0.00    +0.000 N 
ATOM     19  C   UNL     1       5.330   4.254  15.724  0.00  0.00    +0.000 C 
ATOM     20  O   UNL     1       5.625   4.494  14.561  0.00  0.00    +0.000 OA
ATOM     21  H   UNL     1       6.083   2.367  15.703  0.00  0.00    +0.000 HD
ATOM     22  H   UNL     1       5.241   2.735  17.168  0.00  0.00    +0.000 HD
ENDBRANCH  11  19
ENDBRANCH   1  14
BRANCH   7  23
ATOM     23  C   UNL     1      -1.806  11.886  21.638  0.00  0.00    +0.000 A 
ATOM     24  C   UNL     1      -1.830  11.950  23.023  0.00  0.00    +0.000 A 
ATOM     25  C   UNL     1      -2.777  12.880  23.538  0.00  0.00    +0.000 A 
ATOM     26  C   UNL     1      -3.467  13.512  22.533  0.00  0.00    +0.000 A 
ATOM     27  S   UNL     1      -2.949  13.006  20.989  0.00  0.00    +0.000 S 
ENDBRANCH   7  23
TORSDOF 3
ENDMDL
MODEL 5
REMARK VINA RESULT:      -6.9      2.589      3.101
REMARK  Name = 
REMARK  3 active torsions:
REMARK  status: ('A' for Active; 'I' for Inactive)
REMARK    1  A    between atoms: C_2  and  C_4
REMARK    2  A    between atoms: C_7  and  N_8
REMARK    3  A    between atoms: N_14  and  C_15
REMARK                            x       y       z     vdW  Elec       q    Type
REMARK                         _______ _______ _______ _____ _____    ______ ____
ROOT
ATOM      1  N   UNL     1       2.224   7.561  19.249  0.00  0.00    +0.000 N 
ATOM      2  C   UNL     1       1.481   8.225  20.192  0.00  0.00    +0.000 C 
ATOM      3  O   UNL     1       1.170   7.739  21.278  0.00  0.00    +0.000 OA
ATOM      4  N   UNL     1       1.138   9.527  19.886  0.00  0.00    +0.000 N 
ATOM      5  C   UNL     1       0.475  10.318  20.930  0.00  0.00    +0.000 C 
ATOM      6  C   UNL     1       1.043  11.743  20.992  0.00  0.00    +0.000 C 
ATOM      7  N   UNL     1       0.943  12.363  19.665  0.00  0.00    +0.000 N 
ATOM      8  C   UNL     1       1.591  11.607  18.578  0.00  0.00    +0.000 C 
ATOM      9  C   UNL     1       1.084  10.148  18.551  0.00  0.00    +0.000 C 
ATOM     10  H   UNL     1       2.750   8.129  18.601  0.00  0.00    +0.000 HD
ENDROOT
BRANCH   1  14
ATOM     11  C   UNL     1       3.714   3.611  19.576  0.00  0.00    +0.000 A 
ATOM     12  C   UNL     1       2.546   3.964  20.258  0.00  0.00    +0.000 A 
ATOM     13  C   UNL     1       2.025   5.256  20.141  0.00  0.00    +0.000 A 
ATOM     14  C   UNL     1       2.673   6.220  19.365  0.00  0.00    +0.000 A 
ATOM     15  C   UNL     1       3.835   5.846  18.678  0.00  0.00    +0.000 A 
ATOM     16  F   UNL     1       4.472   6.751  17.917  0.00  0.00    +0.000 F 
ATOM     17  C   UNL     1       4.364   4.561  18.784  0.00  0.00    +0.000 A 
BRANCH  11  19
ATOM     18  N   UNL     1       4.057   1.377  18.665  0.00  0.00    +0.000 N 
ATOM     19  C   UNL     1       4.298   2.251  19.689  0.00  0.00    +0.000 C 
ATOM     20  O   UNL     1       4.994   1.932  20.643  0.00  0.00    +0.000 OA
ATOM     21  H   UNL     1       4.532   0.484  18.712  0.00  0.00    +0.000 HD
ATOM     22  H   UNL     1       3.682   1.662  17.773  0.00  0.00    +0.000 HD
ENDBRANCH  11  19
ENDBRANCH   1  14
BRANCH   7  23
ATOM     23  C   UNL     1       0.482  13.638  19.509  0.00  0.00    +0.000 A 
ATOM     24  C   UNL     1       1.080  14.670  18.802  0.00  0.00    +0.000 A 
ATOM     25  C   UNL     1       0.387  15.911  18.901  0.00  0.00    +0.000 A 
ATOM     26  C   UNL     1      -0.732  15.805  19.690  0.00  0.00    +0.000 A 
ATOM     27  S   UNL     1      -0.954  14.218  20.273  0.00  0.00    +0.000 S 
ENDBRANCH   7  23
TORSDOF 3
ENDMDL
MODEL 6
REMARK VINA RESULT:      -6.9      1.725      1.823
REMARK  Name = 
REMARK  3 active torsions:
REMARK  status: ('A' for Active; 'I' for Inactive)
REMARK    1  A    between atoms: C_2  and  C_4
REMARK    2  A    between atoms: C_7  and  N_8
REMARK    3  A    between atoms: N_14  and  C_15
REMARK                            x       y       z     vdW  Elec       q    Type
REMARK                         _______ _______ _______ _____ _____    ______ ____
ROOT
ATOM      1  N   UNL     1       1.873   8.093  19.654  0.00  0.00    +0.000 N 
ATOM      2  C   UNL     1       1.332   9.181  19.017  0.00  0.00    +0.000 C 
ATOM      3  O   UNL     1       1.345   9.330  17.796  0.00  0.00    +0.000 OA
ATOM      4  N   UNL     1       0.696  10.102  19.825  0.00  0.00    +0.000 N 
ATOM      5  C   UNL     1      -0.024  11.199  19.168  0.00  0.00    +0.000 C 
ATOM      6  C   UNL     1      -1.381  11.455  19.841  0.00  0.00    +0.000 C 
ATOM      7  N   UNL     1      -1.173  11.695  21.275  0.00  0.00    +0.000 N 
ATOM      8  C   UNL     1      -0.450  10.623  21.983  0.00  0.00    +0.000 C 
ATOM      9  C   UNL     1       0.883  10.303  21.273  0.00  0.00    +0.000 C 
ATOM     10  H   UNL     1       1.490   7.857  20.558  0.00  0.00    +0.000 HD
ENDROOT
BRANCH   1  14
ATOM     11  C   UNL     1       3.831   4.850  17.764  0.00  0.00    +0.000 A 
ATOM     12  C   UNL     1       4.085   6.154  17.329  0.00  0.00    +0.000 A 
ATOM     13  C   UNL     1       3.468   7.238  17.959  0.00  0.00    +0.000 A 
ATOM     14  C   UNL     1       2.571   7.038  19.010  0.00  0.00    +0.000 A 
ATOM     15  C   UNL     1       2.336   5.726  19.442  0.00  0.00    +0.000 A 
ATOM     16  F   UNL     1       1.486   5.507  20.457  0.00  0.00    +0.000 F 
ATOM     17  C   UNL     1       2.946   4.636  18.825  0.00  0.00    +0.000 A 
BRANCH  11  19
ATOM     18  N   UNL     1       4.205   2.445  17.646  0.00  0.00    +0.000 N 
ATOM     19  C   UNL     1       4.461   3.676  17.108  0.00  0.00    +0.000 C 
ATOM     20  O   UNL     1       5.156   3.799  16.109  0.00  0.00    +0.000 OA
ATOM     21  H   UNL     1       4.569   1.647  17.141  0.00  0.00    +0.000 HD
ATOM     22  H   UNL     1       3.475   2.278  18.322  0.00  0.00    +0.000 HD
ENDBRANCH  11  19
ENDBRANCH   1  14
BRANCH   7  23
ATOM     23  C   UNL     1      -1.799  12.721  21.922  0.00  0.00    +0.000 A 
ATOM     24  C   UNL     1      -1.495  13.240  23.171  0.00  0.00    +0.000 A 
ATOM     25  C   UNL     1      -2.392  14.258  23.603  0.00  0.00    +0.000 A 
ATOM     26  C   UNL     1      -3.373  14.498  22.674  0.00  0.00    +0.000 A 
ATOM     27  S   UNL     1      -3.187  13.526  21.285  0.00  0.00    +0.000 S 
ENDBRANCH   7  23
TORSDOF 3
ENDMDL
MODEL 7
REMARK VINA RESULT:      -6.9      2.753      3.213
REMARK  Name = 
REMARK  3 active torsions:
REMARK  status: ('A' for Active; 'I' for Inactive)
REMARK    1  A    between atoms: C_2  and  C_4
REMARK    2  A    between atoms: C_7  and  N_8
REMARK    3  A    between atoms: N_14  and  C_15
REMARK                            x       y       z     vdW  Elec       q    Type
REMARK                         _______ _______ _______ _____ _____    ______ ____
ROOT
ATOM      1  N   UNL     1       2.894   7.779  18.331  0.00  0.00    +0.000 N 
ATOM      2  C   UNL     1       2.301   7.544  19.546  0.00  0.00    +0.000 C 
ATOM      3  O   UNL     1       2.608   6.607  20.281  0.00  0.00    +0.000 OA
ATOM      4  N   UNL     1       1.358   8.468  19.949  0.00  0.00    +0.000 N 
ATOM      5  C   UNL     1       0.812   8.334  21.305  0.00  0.00    +0.000 C 
ATOM      6  C   UNL     1       0.707   9.700  21.998  0.00  0.00    +0.000 C 
ATOM      7  N   UNL     1      -0.083  10.610  21.159  0.00  0.00    +0.000 N 
ATOM      8  C   UNL     1       0.420  10.778  19.785  0.00  0.00    +0.000 C 
ATOM      9  C   UNL     1       0.603   9.406  19.099  0.00  0.00    +0.000 C 
ATOM     10  H   UNL     1       2.880   8.731  17.994  0.00  0.00    +0.000 HD
ENDROOT
BRANCH   1  14
ATOM     11  C   UNL     1       5.718   5.234  16.467  0.00  0.00    +0.000 A 
ATOM     12  C   UNL     1       6.098   6.526  16.839  0.00  0.00    +0.000 A 
ATOM     13  C   UNL     1       5.187   7.371  17.480  0.00  0.00    +0.000 A 
ATOM     14  C   UNL     1       3.880   6.951  17.734  0.00  0.00    +0.000 A 
ATOM     15  C   UNL     1       3.518   5.649  17.365  0.00  0.00    +0.000 A 
ATOM     16  F   UNL     1       2.271   5.217  17.607  0.00  0.00    +0.000 F 
ATOM     17  C   UNL     1       4.417   4.795  16.729  0.00  0.00    +0.000 A 
BRANCH  11  19
ATOM     18  N   UNL     1       6.150   3.536  14.774  0.00  0.00    +0.000 N 
ATOM     19  C   UNL     1       6.658   4.317  15.775  0.00  0.00    +0.000 C 
ATOM     20  O   UNL     1       7.846   4.281  16.066  0.00  0.00    +0.000 OA
ATOM     21  H   UNL     1       6.816   2.979  14.253  0.00  0.00    +0.000 HD
ATOM     22  H   UNL     1       5.243   3.689  14.361  0.00  0.00    +0.000 HD
ENDBRANCH  11  19
ENDBRANCH   1  14
BRANCH   7  23
ATOM     23  C   UNL     1      -1.064  11.395  21.691  0.00  0.00    +0.000 A 
ATOM     24  C   UNL     1      -1.534  11.389  22.996  0.00  0.00    +0.000 A 
ATOM     25  C   UNL     1      -2.627  12.275  23.216  0.00  0.00    +0.000 A 
ATOM     26  C   UNL     1      -2.978  12.944  22.070  0.00  0.00    +0.000 A 
ATOM     27  S   UNL     1      -1.974  12.526  20.756  0.00  0.00    +0.000 S 
ENDBRANCH   7  23
TORSDOF 3
ENDMDL
MODEL 8
REMARK VINA RESULT:      -6.9      1.231      1.638
REMARK  Name = 
REMARK  3 active torsions:
REMARK  status: ('A' for Active; 'I' for Inactive)
REMARK    1  A    between atoms: C_2  and  C_4
REMARK    2  A    between atoms: C_7  and  N_8
REMARK    3  A    between atoms: N_14  and  C_15
REMARK                            x       y       z     vdW  Elec       q    Type
REMARK                         _______ _______ _______ _____ _____    ______ ____
ROOT
ATOM      1  N   UNL     1       1.790   6.712  20.882  0.00  0.00    +0.000 N 
ATOM      2  C   UNL     1       1.620   7.837  20.114  0.00  0.00    +0.000 C 
ATOM      3  O   UNL     1       1.809   7.865  18.899  0.00  0.00    +0.000 OA
ATOM      4  N   UNL     1       1.154   8.957  20.774  0.00  0.00    +0.000 N 
ATOM      5  C   UNL     1       0.817  10.132  19.962  0.00  0.00    +0.000 C 
ATOM      6  C   UNL     1      -0.496  10.774  20.433  0.00  0.00    +0.000 C 
ATOM      7  N   UNL     1      -0.398  11.086  21.864  0.00  0.00    +0.000 N 
ATOM      8  C   UNL     1      -0.058   9.939  22.725  0.00  0.00    +0.000 C 
ATOM      9  C   UNL     1       1.222   9.237  22.219  0.00  0.00    +0.000 C 
ATOM     10  H   UNL     1       1.260   6.663  21.740  0.00  0.00    +0.000 HD
ENDROOT
BRANCH   1  14
ATOM     11  C   UNL     1       3.353   3.036  19.481  0.00  0.00    +0.000 A 
ATOM     12  C   UNL     1       2.076   3.068  20.049  0.00  0.00    +0.000 A 
ATOM     13  C   UNL     1       1.533   4.277  20.492  0.00  0.00    +0.000 A 
ATOM     14  C   UNL     1       2.264   5.464  20.402  0.00  0.00    +0.000 A 
ATOM     15  C   UNL     1       3.537   5.417  19.820  0.00  0.00    +0.000 A 
ATOM     16  F   UNL     1       4.256   6.545  19.712  0.00  0.00    +0.000 F 
ATOM     17  C   UNL     1       4.090   4.219  19.371  0.00  0.00    +0.000 A 
BRANCH  11  19
ATOM     18  N   UNL     1       4.965   1.232  19.773  0.00  0.00    +0.000 N 
ATOM     19  C   UNL     1       3.962   1.766  19.011  0.00  0.00    +0.000 C 
ATOM     20  O   UNL     1       3.564   1.202  18.002  0.00  0.00    +0.000 OA
ATOM     21  H   UNL     1       5.313   0.324  19.490  0.00  0.00    +0.000 HD
ATOM     22  H   UNL     1       5.170   1.540  20.711  0.00  0.00    +0.000 HD
ENDBRANCH  11  19
ENDBRANCH   1  14
BRANCH   7  23
ATOM     23  C   UNL     1      -0.809  12.289  22.359  0.00  0.00    +0.000 A 
ATOM     24  C   UNL     1      -1.887  12.532  23.198  0.00  0.00    +0.000 A 
ATOM     25  C   UNL     1      -2.104  13.914  23.468  0.00  0.00    +0.000 A 
ATOM     26  C   UNL     1      -1.186  14.707  22.825  0.00  0.00    +0.000 A 
ATOM     27  S   UNL     1      -0.060  13.786  21.934  0.00  0.00    +0.000 S 
ENDBRANCH   7  23
TORSDOF 3
ENDMDL
MODEL 9
REMARK VINA RESULT:      -6.9      2.504      2.983
REMARK  Name = 
REMARK  3 active torsions:
REMARK  status: ('A' for Active; 'I' for Inactive)
REMARK    1  A    between atoms: C_2  and  C_4
REMARK    2  A    between atoms: C_7  and  N_8
REMARK    3  A    between atoms: N_14  and  C_15
REMARK                            x       y       z     vdW  Elec       q    Type
REMARK                         _______ _______ _______ _____ _____    ______ ____
ROOT
ATOM      1  N   UNL     1       2.549   7.366  18.775  0.00  0.00    +0.000 N 
ATOM      2  C   UNL     1       1.753   8.008  19.690  0.00  0.00    +0.000 C 
ATOM      3  O   UNL     1       1.362   7.489  20.734  0.00  0.00    +0.000 OA
ATOM      4  N   UNL     1       1.451   9.326  19.411  0.00  0.00    +0.000 N 
ATOM      5  C   UNL     1       0.729  10.090  20.436  0.00  0.00    +0.000 C 
ATOM      6  C   UNL     1       1.312  11.501  20.590  0.00  0.00    +0.000 C 
ATOM      7  N   UNL     1       1.312  12.172  19.283  0.00  0.00    +0.000 N 
ATOM      8  C   UNL     1       2.021  11.444  18.215  0.00  0.00    +0.000 C 
ATOM      9  C   UNL     1       1.496   9.996  18.099  0.00  0.00    +0.000 C 
ATOM     10  H   UNL     1       3.126   7.948  18.185  0.00  0.00    +0.000 HD
ENDROOT
BRANCH   1  14
ATOM     11  C   UNL     1       3.741   3.306  18.915  0.00  0.00    +0.000 A 
ATOM     12  C   UNL     1       4.492   4.267  19.598  0.00  0.00    +0.000 A 
ATOM     13  C   UNL     1       4.099   5.608  19.585  0.00  0.00    +0.000 A 
ATOM     14  C   UNL     1       2.969   6.014  18.871  0.00  0.00    +0.000 A 
ATOM     15  C   UNL     1       2.220   5.037  18.202  0.00  0.00    +0.000 A 
ATOM     16  F   UNL     1       1.124   5.399  17.518  0.00  0.00    +0.000 F 
ATOM     17  C   UNL     1       2.599   3.696  18.209  0.00  0.00    +0.000 A 
BRANCH  11  19
ATOM     18  N   UNL     1       5.052   1.469  19.833  0.00  0.00    +0.000 N 
ATOM     19  C   UNL     1       4.139   1.876  18.900  0.00  0.00    +0.000 C 
ATOM     20  O   UNL     1       3.647   1.084  18.107  0.00  0.00    +0.000 OA
ATOM     21  H   UNL     1       5.250   0.477  19.869  0.00  0.00    +0.000 HD
ATOM     22  H   UNL     1       5.312   2.027  20.632  0.00  0.00    +0.000 HD
ENDBRANCH  11  19
ENDBRANCH   1  14
BRANCH   7  23
ATOM     23  C   UNL     1       0.881  13.459  19.144  0.00  0.00    +0.000 A 
ATOM     24  C   UNL     1       1.625  14.558  18.743  0.00  0.00    +0.000 A 
ATOM     25  C   UNL     1       0.903  15.785  18.780  0.00  0.00    +0.000 A 
ATOM     26  C   UNL     1      -0.386  15.601  19.216  0.00  0.00    +0.000 A 
ATOM     27  S   UNL     1      -0.722  13.961  19.542  0.00  0.00    +0.000 S 
ENDBRANCH   7  23
TORSDOF 3
ENDMDL
