MODEL 1
REMARK VINA RESULT:      -7.2      0.000      0.000
REMARK  Name = 
REMARK  4 active torsions:
REMARK  status: ('A' for Active; 'I' for Inactive)
REMARK    1  A    between atoms: S_2  and  N_4
REMARK    2  A    between atoms: S_2  and  C_19
REMARK    3  A    between atoms: N_8  and  C_9
REMARK    4  A    between atoms: C_9  and  C_10
REMARK                            x       y       z     vdW  Elec       q    Type
REMARK                         _______ _______ _______ _____ _____    ______ ____
ROOT
ATOM      1  N   UNL     1       2.843   2.982  19.647  0.00  0.00    +0.000 N 
ATOM      2  C   UNL     1       2.194   4.129  20.046  0.00  0.00    +0.000 A 
ATOM      3  N   UNL     1       0.837   4.261  20.020  0.00  0.00    +0.000 NA
ATOM      4  C   UNL     1       0.651   5.489  20.450  0.00  0.00    +0.000 A 
ATOM      5  N   UNL     1       1.854   6.063  20.725  0.00  0.00    +0.000 N 
ATOM      6  N   UNL     1       2.852   5.169  20.558  0.00  0.00    +0.000 NA
ATOM      7  H   UNL     1       3.721   2.865  20.145  0.00  0.00    +0.000 HD
ENDROOT
BRANCH   1   9
ATOM      8  O   UNL     1       3.828   1.640  17.653  0.00  0.00    +0.000 OA
ATOM      9  S   UNL     1       3.219   2.901  18.004  0.00  0.00    +0.000 S 
ATOM     10  O   UNL     1       2.033   3.376  17.318  0.00  0.00    +0.000 OA
BRANCH   9  11
ATOM     11  C   UNL     1       4.469   4.153  17.817  0.00  0.00    +0.000 A 
ATOM     12  C   UNL     1       5.409   4.316  18.840  0.00  0.00    +0.000 A 
ATOM     13  C   UNL     1       6.404   5.284  18.712  0.00  0.00    +0.000 A 
ATOM     14  C   UNL     1       6.462   6.072  17.562  0.00  0.00    +0.000 A 
ATOM     15 CL   UNL     1       7.676   7.283  17.421  0.00  0.00    +0.000 Cl
ATOM     16  C   UNL     1       5.541   5.887  16.528  0.00  0.00    +0.000 A 
ATOM     17  C   UNL     1       4.538   4.923  16.652  0.00  0.00    +0.000 A 
ENDBRANCH   9  11
ENDBRANCH   1   9
BRANCH   5  18
ATOM     18  C   UNL     1       2.123   7.465  21.011  0.00  0.00    +0.000 C 
BRANCH  18  19
ATOM     19  C   UNL     1       1.327   8.387  20.118  0.00  0.00    +0.000 A 
ATOM     20  C   UNL     1       1.693   8.595  18.774  0.00  0.00    +0.000 A 
ATOM     21 CL   UNL     1       2.990   7.730  18.024  0.00  0.00    +0.000 Cl
ATOM     22  C   UNL     1       0.997   9.502  17.964  0.00  0.00    +0.000 A 
ATOM     23  C   UNL     1      -0.088  10.208  18.470  0.00  0.00    +0.000 A 
ATOM     24  C   UNL     1      -0.489   9.994  19.785  0.00  0.00    +0.000 A 
ATOM     25  C   UNL     1       0.208   9.097  20.599  0.00  0.00    +0.000 A 
ATOM     26 CL   UNL     1      -0.389   8.890  22.211  0.00  0.00    +0.000 Cl
ENDBRANCH  18  19
ENDBRANCH   5  18
TORSDOF 4
ENDMDL
MODEL 2
REMARK VINA RESULT:      -7.2      3.061      6.572
REMARK  Name = 
REMARK  4 active torsions:
REMARK  status: ('A' for Active; 'I' for Inactive)
REMARK    1  A    between atoms: S_2  and  N_4
REMARK    2  A    between atoms: S_2  and  C_19
REMARK    3  A    between atoms: N_8  and  C_9
REMARK    4  A    between atoms: C_9  and  C_10
REMARK                            x       y       z     vdW  Elec       q    Type
REMARK                         _______ _______ _______ _____ _____    ______ ____
ROOT
ATOM      1  N   UNL     1       3.741   7.988  18.289  0.00  0.00    +0.000 N 
ATOM      2  C   UNL     1       4.074   6.730  17.839  0.00  0.00    +0.000 A 
ATOM      3  N   UNL     1       4.633   6.503  16.616  0.00  0.00    +0.000 NA
ATOM      4  C   UNL     1       4.761   5.196  16.587  0.00  0.00    +0.000 A 
ATOM      5  N   UNL     1       4.300   4.666  17.753  0.00  0.00    +0.000 N 
ATOM      6  N   UNL     1       3.939   5.649  18.606  0.00  0.00    +0.000 NA
ATOM      7  H   UNL     1       3.798   8.042  19.303  0.00  0.00    +0.000 HD
ENDROOT
BRANCH   1   9
ATOM      8  O   UNL     1       2.226   9.761  17.145  0.00  0.00    +0.000 OA
ATOM      9  S   UNL     1       2.192   8.515  17.874  0.00  0.00    +0.000 S 
ATOM     10  O   UNL     1       1.525   7.348  17.331  0.00  0.00    +0.000 OA
BRANCH   9  11
ATOM     11  C   UNL     1       1.449   8.856  19.454  0.00  0.00    +0.000 A 
ATOM     12  C   UNL     1       0.572   9.941  19.560  0.00  0.00    +0.000 A 
ATOM     13  C   UNL     1      -0.029  10.223  20.785  0.00  0.00    +0.000 A 
ATOM     14  C   UNL     1       0.238   9.416  21.891  0.00  0.00    +0.000 A 
ATOM     15 CL   UNL     1      -0.487   9.785  23.407  0.00  0.00    +0.000 Cl
ATOM     16  C   UNL     1       1.090   8.315  21.777  0.00  0.00    +0.000 A 
ATOM     17  C   UNL     1       1.701   8.030  20.553  0.00  0.00    +0.000 A 
ENDBRANCH   9  11
ENDBRANCH   1   9
BRANCH   5  18
ATOM     18  C   UNL     1       4.052   3.264  18.053  0.00  0.00    +0.000 C 
BRANCH  18  19
ATOM     19  C   UNL     1       3.051   3.092  19.170  0.00  0.00    +0.000 A 
ATOM     20  C   UNL     1       1.712   3.502  19.018  0.00  0.00    +0.000 A 
ATOM     21 CL   UNL     1       1.096   4.112  17.521  0.00  0.00    +0.000 Cl
ATOM     22  C   UNL     1       0.799   3.407  20.076  0.00  0.00    +0.000 A 
ATOM     23  C   UNL     1       1.195   2.886  21.302  0.00  0.00    +0.000 A 
ATOM     24  C   UNL     1       2.503   2.444  21.466  0.00  0.00    +0.000 A 
ATOM     25  C   UNL     1       3.420   2.545  20.416  0.00  0.00    +0.000 A 
ATOM     26 CL   UNL     1       5.015   1.944  20.721  0.00  0.00    +0.000 Cl
ENDBRANCH  18  19
ENDBRANCH   5  18
TORSDOF 4
ENDMDL
MODEL 3
REMARK VINA RESULT:      -7.1      0.115      2.073
REMARK  Name = 
REMARK  4 active torsions:
REMARK  status: ('A' for Active; 'I' for Inactive)
REMARK    1  A    between atoms: S_2  and  N_4
REMARK    2  A    between atoms: S_2  and  C_19
REMARK    3  A    between atoms: N_8  and  C_9
REMARK    4  A    between atoms: C_9  and  C_10
REMARK                            x       y       z     vdW  Elec       q    Type
REMARK                         _______ _______ _______ _____ _____    ______ ____
ROOT
ATOM      1  N   UNL     1       2.724   2.999  19.638  0.00  0.00    +0.000 N 
ATOM      2  C   UNL     1       2.103   4.165  20.026  0.00  0.00    +0.000 A 
ATOM      3  N   UNL     1       0.752   4.342  19.965  0.00  0.00    +0.000 NA
ATOM      4  C   UNL     1       0.595   5.573  20.399  0.00  0.00    +0.000 A 
ATOM      5  N   UNL     1       1.809   6.105  20.709  0.00  0.00    +0.000 N 
ATOM      6  N   UNL     1       2.781   5.179  20.562  0.00  0.00    +0.000 NA
ATOM      7  H   UNL     1       3.584   2.850  20.158  0.00  0.00    +0.000 HD
ENDROOT
BRANCH   1   9
ATOM      8  O   UNL     1       3.719   1.636  17.662  0.00  0.00    +0.000 OA
ATOM      9  S   UNL     1       3.140   2.915  18.004  0.00  0.00    +0.000 S 
ATOM     10  O   UNL     1       1.988   3.430  17.290  0.00  0.00    +0.000 OA
BRANCH   9  11
ATOM     11  C   UNL     1       4.433   4.127  17.858  0.00  0.00    +0.000 A 
ATOM     12  C   UNL     1       4.418   4.992  16.759  0.00  0.00    +0.000 A 
ATOM     13  C   UNL     1       5.416   5.956  16.627  0.00  0.00    +0.000 A 
ATOM     14  C   UNL     1       6.413   6.059  17.598  0.00  0.00    +0.000 A 
ATOM     15 CL   UNL     1       7.657   7.235  17.417  0.00  0.00    +0.000 Cl
ATOM     16  C   UNL     1       6.410   5.216  18.711  0.00  0.00    +0.000 A 
ATOM     17  C   UNL     1       5.416   4.243  18.845  0.00  0.00    +0.000 A 
ENDBRANCH   9  11
ENDBRANCH   1   9
BRANCH   5  18
ATOM     18  C   UNL     1       2.117   7.495  21.011  0.00  0.00    +0.000 C 
BRANCH  18  19
ATOM     19  C   UNL     1       1.328   8.449  20.147  0.00  0.00    +0.000 A 
ATOM     20  C   UNL     1       0.221   9.152  20.661  0.00  0.00    +0.000 A 
ATOM     21 CL   UNL     1      -0.236   9.068  22.327  0.00  0.00    +0.000 Cl
ATOM     22  C   UNL     1      -0.553   9.986  19.843  0.00  0.00    +0.000 A 
ATOM     23  C   UNL     1      -0.232  10.150  18.501  0.00  0.00    +0.000 A 
ATOM     24  C   UNL     1       0.876   9.492  17.978  0.00  0.00    +0.000 A 
ATOM     25  C   UNL     1       1.647   8.652  18.788  0.00  0.00    +0.000 A 
ATOM     26 CL   UNL     1       3.017   7.901  18.043  0.00  0.00    +0.000 Cl
ENDBRANCH  18  19
ENDBRANCH   5  18
TORSDOF 4
ENDMDL
MODEL 4
REMARK VINA RESULT:      -7.0      3.421      7.530
REMARK  Name = 
REMARK  4 active torsions:
REMARK  status: ('A' for Active; 'I' for Inactive)
REMARK    1  A    between atoms: S_2  and  N_4
REMARK    2  A    between atoms: S_2  and  C_19
REMARK    3  A    between atoms: N_8  and  C_9
REMARK    4  A    between atoms: C_9  and  C_10
REMARK                            x       y       z     vdW  Elec       q    Type
REMARK                         _______ _______ _______ _____ _____    ______ ____
ROOT
ATOM      1  N   UNL     1       1.382   8.056  17.873  0.00  0.00    +0.000 N 
ATOM      2  C   UNL     1       2.229   7.123  18.427  0.00  0.00    +0.000 A 
ATOM      3  N   UNL     1       1.876   6.333  19.481  0.00  0.00    +0.000 NA
ATOM      4  C   UNL     1       2.962   5.625  19.696  0.00  0.00    +0.000 A 
ATOM      5  N   UNL     1       3.922   5.978  18.799  0.00  0.00    +0.000 N 
ATOM      6  N   UNL     1       3.435   6.876  17.916  0.00  0.00    +0.000 NA
ATOM      7  H   UNL     1       1.581   8.193  16.886  0.00  0.00    +0.000 HD
ENDROOT
BRANCH   1   9
ATOM      8  O   UNL     1       1.682   9.511  20.004  0.00  0.00    +0.000 OA
ATOM      9  S   UNL     1       1.433   9.586  18.583  0.00  0.00    +0.000 S 
ATOM     10  O   UNL     1       2.281  10.381  17.716  0.00  0.00    +0.000 OA
BRANCH   9  11
ATOM     11  C   UNL     1      -0.232  10.179  18.377  0.00  0.00    +0.000 A 
ATOM     12  C   UNL     1      -0.681  11.212  19.206  0.00  0.00    +0.000 A 
ATOM     13  C   UNL     1      -1.978  11.699  19.057  0.00  0.00    +0.000 A 
ATOM     14  C   UNL     1      -2.813  11.162  18.076  0.00  0.00    +0.000 A 
ATOM     15 CL   UNL     1      -4.422  11.749  17.915  0.00  0.00    +0.000 Cl
ATOM     16  C   UNL     1      -2.354  10.151  17.229  0.00  0.00    +0.000 A 
ATOM     17  C   UNL     1      -1.056   9.654  17.377  0.00  0.00    +0.000 A 
ENDBRANCH   9  11
ENDBRANCH   1   9
BRANCH   5  18
ATOM     18  C   UNL     1       5.330   5.609  18.815  0.00  0.00    +0.000 C 
BRANCH  18  19
ATOM     19  C   UNL     1       5.815   5.167  17.455  0.00  0.00    +0.000 A 
ATOM     20  C   UNL     1       6.792   5.902  16.756  0.00  0.00    +0.000 A 
ATOM     21 CL   UNL     1       7.585   7.276  17.444  0.00  0.00    +0.000 Cl
ATOM     22  C   UNL     1       7.193   5.532  15.465  0.00  0.00    +0.000 A 
ATOM     23  C   UNL     1       6.643   4.413  14.851  0.00  0.00    +0.000 A 
ATOM     24  C   UNL     1       5.700   3.653  15.535  0.00  0.00    +0.000 A 
ATOM     25  C   UNL     1       5.290   4.023  16.819  0.00  0.00    +0.000 A 
ATOM     26 CL   UNL     1       4.130   2.994  17.588  0.00  0.00    +0.000 Cl
ENDBRANCH  18  19
ENDBRANCH   5  18
TORSDOF 4
ENDMDL
MODEL 5
REMARK VINA RESULT:      -7.0      3.428      7.602
REMARK  Name = 
REMARK  4 active torsions:
REMARK  status: ('A' for Active; 'I' for Inactive)
REMARK    1  A    between atoms: S_2  and  N_4
REMARK    2  A    between atoms: S_2  and  C_19
REMARK    3  A    between atoms: N_8  and  C_9
REMARK    4  A    between atoms: C_9  and  C_10
REMARK                            x       y       z     vdW  Elec       q    Type
REMARK                         _______ _______ _______ _____ _____    ______ ____
ROOT
ATOM      1  N   UNL     1       1.372   8.047  17.908  0.00  0.00    +0.000 N 
ATOM      2  C   UNL     1       2.225   7.120  18.465  0.00  0.00    +0.000 A 
ATOM      3  N   UNL     1       1.891   6.362  19.548  0.00  0.00    +0.000 NA
ATOM      4  C   UNL     1       2.975   5.648  19.754  0.00  0.00    +0.000 A 
ATOM      5  N   UNL     1       3.916   5.968  18.824  0.00  0.00    +0.000 N 
ATOM      6  N   UNL     1       3.414   6.848  17.931  0.00  0.00    +0.000 NA
ATOM      7  H   UNL     1       1.548   8.157  16.913  0.00  0.00    +0.000 HD
ENDROOT
BRANCH   1   9
ATOM      8  O   UNL     1       1.695   9.553  20.001  0.00  0.00    +0.000 OA
ATOM      9  S   UNL     1       1.457   9.595  18.577  0.00  0.00    +0.000 S 
ATOM     10  O   UNL     1       2.329  10.345  17.693  0.00  0.00    +0.000 OA
BRANCH   9  11
ATOM     11  C   UNL     1      -0.192  10.222  18.344  0.00  0.00    +0.000 A 
ATOM     12  C   UNL     1      -1.011   9.609  17.390  0.00  0.00    +0.000 A 
ATOM     13  C   UNL     1      -2.310  10.077  17.196  0.00  0.00    +0.000 A 
ATOM     14  C   UNL     1      -2.786  11.142  17.961  0.00  0.00    +0.000 A 
ATOM     15 CL   UNL     1      -4.381  11.731  17.699  0.00  0.00    +0.000 Cl
ATOM     16  C   UNL     1      -1.977  11.733  18.935  0.00  0.00    +0.000 A 
ATOM     17  C   UNL     1      -0.673  11.272  19.130  0.00  0.00    +0.000 A 
ENDBRANCH   9  11
ENDBRANCH   1   9
BRANCH   5  18
ATOM     18  C   UNL     1       5.320   5.585  18.814  0.00  0.00    +0.000 C 
BRANCH  18  19
ATOM     19  C   UNL     1       5.792   5.201  17.432  0.00  0.00    +0.000 A 
ATOM     20  C   UNL     1       5.267   4.076  16.769  0.00  0.00    +0.000 A 
ATOM     21 CL   UNL     1       3.976   3.133  17.428  0.00  0.00    +0.000 Cl
ATOM     22  C   UNL     1       5.753   3.679  15.516  0.00  0.00    +0.000 A 
ATOM     23  C   UNL     1       6.759   4.405  14.890  0.00  0.00    +0.000 A 
ATOM     24  C   UNL     1       7.270   5.540  15.510  0.00  0.00    +0.000 A 
ATOM     25  C   UNL     1       6.795   5.934  16.765  0.00  0.00    +0.000 A 
ATOM     26 CL   UNL     1       7.484   7.374  17.436  0.00  0.00    +0.000 Cl
ENDBRANCH  18  19
ENDBRANCH   5  18
TORSDOF 4
ENDMDL
MODEL 6
REMARK VINA RESULT:      -6.8      3.067      6.549
REMARK  Name = 
REMARK  4 active torsions:
REMARK  status: ('A' for Active; 'I' for Inactive)
REMARK    1  A    between atoms: S_2  and  N_4
REMARK    2  A    between atoms: S_2  and  C_19
REMARK    3  A    between atoms: N_8  and  C_9
REMARK    4  A    between atoms: C_9  and  C_10
REMARK                            x       y       z     vdW  Elec       q    Type
REMARK                         _______ _______ _______ _____ _____    ______ ____
ROOT
ATOM      1  N   UNL     1       3.781   7.993  18.269  0.00  0.00    +0.000 N 
ATOM      2  C   UNL     1       4.083   6.729  17.812  0.00  0.00    +0.000 A 
ATOM      3  N   UNL     1       4.631   6.495  16.586  0.00  0.00    +0.000 NA
ATOM      4  C   UNL     1       4.730   5.185  16.551  0.00  0.00    +0.000 A 
ATOM      5  N   UNL     1       4.261   4.662  17.717  0.00  0.00    +0.000 N 
ATOM      6  N   UNL     1       3.927   5.649  18.575  0.00  0.00    +0.000 NA
ATOM      7  H   UNL     1       3.844   8.042  19.282  0.00  0.00    +0.000 HD
ENDROOT
BRANCH   1   9
ATOM      8  O   UNL     1       2.301   9.816  17.157  0.00  0.00    +0.000 OA
ATOM      9  S   UNL     1       2.243   8.557  17.863  0.00  0.00    +0.000 S 
ATOM     10  O   UNL     1       1.554   7.413  17.297  0.00  0.00    +0.000 OA
BRANCH   9  11
ATOM     11  C   UNL     1       1.505   8.883  19.448  0.00  0.00    +0.000 A 
ATOM     12  C   UNL     1       0.709  10.023  19.593  0.00  0.00    +0.000 A 
ATOM     13  C   UNL     1       0.113  10.295  20.824  0.00  0.00    +0.000 A 
ATOM     14  C   UNL     1       0.304   9.422  21.895  0.00  0.00    +0.000 A 
ATOM     15 CL   UNL     1      -0.413   9.776  23.419  0.00  0.00    +0.000 Cl
ATOM     16  C   UNL     1       1.074   8.267  21.741  0.00  0.00    +0.000 A 
ATOM     17  C   UNL     1       1.679   7.992  20.512  0.00  0.00    +0.000 A 
ENDBRANCH   9  11
ENDBRANCH   1   9
BRANCH   5  18
ATOM     18  C   UNL     1       3.983   3.264  18.013  0.00  0.00    +0.000 C 
BRANCH  18  19
ATOM     19  C   UNL     1       3.025   3.110  19.170  0.00  0.00    +0.000 A 
ATOM     20  C   UNL     1       3.446   2.559  20.396  0.00  0.00    +0.000 A 
ATOM     21 CL   UNL     1       5.094   2.135  20.703  0.00  0.00    +0.000 Cl
ATOM     22  C   UNL     1       2.542   2.353  21.447  0.00  0.00    +0.000 A 
ATOM     23  C   UNL     1       1.206   2.707  21.306  0.00  0.00    +0.000 A 
ATOM     24  C   UNL     1       0.774   3.284  20.116  0.00  0.00    +0.000 A 
ATOM     25  C   UNL     1       1.670   3.483  19.061  0.00  0.00    +0.000 A 
ATOM     26 CL   UNL     1       1.032   4.229  17.635  0.00  0.00    +0.000 Cl
ENDBRANCH  18  19
ENDBRANCH   5  18
TORSDOF 4
ENDMDL
MODEL 7
REMARK VINA RESULT:      -6.7      7.481      9.821
REMARK  Name = 
REMARK  4 active torsions:
REMARK  status: ('A' for Active; 'I' for Inactive)
REMARK    1  A    between atoms: S_2  and  N_4
REMARK    2  A    between atoms: S_2  and  C_19
REMARK    3  A    between atoms: N_8  and  C_9
REMARK    4  A    between atoms: C_9  and  C_10
REMARK                            x       y       z     vdW  Elec       q    Type
REMARK                         _______ _______ _______ _____ _____    ______ ____
ROOT
ATOM      1  N   UNL     1      -1.244  12.495  17.483  0.00  0.00    +0.000 N 
ATOM      2  C   UNL     1      -0.466  12.681  18.604  0.00  0.00    +0.000 A 
ATOM      3  N   UNL     1       0.795  12.176  18.724  0.00  0.00    +0.000 NA
ATOM      4  C   UNL     1       1.154  12.561  19.928  0.00  0.00    +0.000 A 
ATOM      5  N   UNL     1       0.144  13.273  20.499  0.00  0.00    +0.000 N 
ATOM      6  N   UNL     1      -0.870  13.437  19.623  0.00  0.00    +0.000 NA
ATOM      7  H   UNL     1      -1.889  13.269  17.350  0.00  0.00    +0.000 HD
ENDROOT
BRANCH   1   9
ATOM      8  O   UNL     1      -2.320  10.535  16.158  0.00  0.00    +0.000 OA
ATOM      9  S   UNL     1      -2.185  11.093  17.484  0.00  0.00    +0.000 S 
ATOM     10  O   UNL     1      -1.678  10.295  18.584  0.00  0.00    +0.000 OA
BRANCH   9  11
ATOM     11  C   UNL     1      -3.791  11.689  17.964  0.00  0.00    +0.000 A 
ATOM     12  C   UNL     1      -3.990  12.080  19.292  0.00  0.00    +0.000 A 
ATOM     13  C   UNL     1      -5.237  12.558  19.689  0.00  0.00    +0.000 A 
ATOM     14  C   UNL     1      -6.272  12.656  18.758  0.00  0.00    +0.000 A 
ATOM     15 CL   UNL     1      -7.816  13.223  19.260  0.00  0.00    +0.000 Cl
ATOM     16  C   UNL     1      -6.063  12.294  17.425  0.00  0.00    +0.000 A 
ATOM     17  C   UNL     1      -4.817  11.808  17.022  0.00  0.00    +0.000 A 
ENDBRANCH   9  11
ENDBRANCH   1   9
BRANCH   5  18
ATOM     18  C   UNL     1       0.031  13.693  21.888  0.00  0.00    +0.000 C 
BRANCH  18  19
ATOM     19  C   UNL     1      -1.366  13.495  22.427  0.00  0.00    +0.000 A 
ATOM     20  C   UNL     1      -2.290  14.556  22.462  0.00  0.00    +0.000 A 
ATOM     21 CL   UNL     1      -1.941  16.111  21.790  0.00  0.00    +0.000 Cl
ATOM     22  C   UNL     1      -3.563  14.391  23.025  0.00  0.00    +0.000 A 
ATOM     23  C   UNL     1      -3.948  13.163  23.548  0.00  0.00    +0.000 A 
ATOM     24  C   UNL     1      -3.064  12.091  23.494  0.00  0.00    +0.000 A 
ATOM     25  C   UNL     1      -1.789  12.252  22.942  0.00  0.00    +0.000 A 
ATOM     26 CL   UNL     1      -0.778  10.848  22.905  0.00  0.00    +0.000 Cl
ENDBRANCH  18  19
ENDBRANCH   5  18
TORSDOF 4
ENDMDL
MODEL 8
REMARK VINA RESULT:      -6.7      2.505      3.429
REMARK  Name = 
REMARK  4 active torsions:
REMARK  status: ('A' for Active; 'I' for Inactive)
REMARK    1  A    between atoms: S_2  and  N_4
REMARK    2  A    between atoms: S_2  and  C_19
REMARK    3  A    between atoms: N_8  and  C_9
REMARK    4  A    between atoms: C_9  and  C_10
REMARK                            x       y       z     vdW  Elec       q    Type
REMARK                         _______ _______ _______ _____ _____    ______ ____
ROOT
ATOM      1  N   UNL     1       3.284   6.408  19.660  0.00  0.00    +0.000 N 
ATOM      2  C   UNL     1       2.385   7.450  19.637  0.00  0.00    +0.000 A 
ATOM      3  N   UNL     1       1.378   7.581  20.547  0.00  0.00    +0.000 NA
ATOM      4  C   UNL     1       0.762   8.673  20.151  0.00  0.00    +0.000 A 
ATOM      5  N   UNL     1       1.383   9.172  19.048  0.00  0.00    +0.000 N 
ATOM      6  N   UNL     1       2.485   8.448  18.760  0.00  0.00    +0.000 NA
ATOM      7  H   UNL     1       4.180   6.687  19.271  0.00  0.00    +0.000 HD
ENDROOT
BRANCH   1   9
ATOM      8  O   UNL     1       2.987   3.827  19.594  0.00  0.00    +0.000 OA
ATOM      9  S   UNL     1       2.810   5.028  18.810  0.00  0.00    +0.000 S 
ATOM     10  O   UNL     1       1.524   5.361  18.230  0.00  0.00    +0.000 OA
BRANCH   9  11
ATOM     11  C   UNL     1       3.985   4.957  17.477  0.00  0.00    +0.000 A 
ATOM     12  C   UNL     1       4.448   6.157  16.928  0.00  0.00    +0.000 A 
ATOM     13  C   UNL     1       5.376   6.126  15.889  0.00  0.00    +0.000 A 
ATOM     14  C   UNL     1       5.844   4.901  15.412  0.00  0.00    +0.000 A 
ATOM     15 CL   UNL     1       6.970   4.869  14.111  0.00  0.00    +0.000 Cl
ATOM     16  C   UNL     1       5.404   3.704  15.981  0.00  0.00    +0.000 A 
ATOM     17  C   UNL     1       4.470   3.728  17.020  0.00  0.00    +0.000 A 
ENDBRANCH   9  11
ENDBRANCH   1   9
BRANCH   5  18
ATOM     18  C   UNL     1       0.910  10.228  18.165  0.00  0.00    +0.000 C 
BRANCH  18  19
ATOM     19  C   UNL     1      -0.237  11.001  18.771  0.00  0.00    +0.000 A 
ATOM     20  C   UNL     1      -0.026  11.910  19.826  0.00  0.00    +0.000 A 
ATOM     21 CL   UNL     1       1.554  12.292  20.416  0.00  0.00    +0.000 Cl
ATOM     22  C   UNL     1      -1.098  12.576  20.435  0.00  0.00    +0.000 A 
ATOM     23  C   UNL     1      -2.400  12.365  19.995  0.00  0.00    +0.000 A 
ATOM     24  C   UNL     1      -2.629  11.497  18.933  0.00  0.00    +0.000 A 
ATOM     25  C   UNL     1      -1.564  10.823  18.328  0.00  0.00    +0.000 A 
ATOM     26 CL   UNL     1      -1.959   9.785  17.000  0.00  0.00    +0.000 Cl
ENDBRANCH  18  19
ENDBRANCH   5  18
TORSDOF 4
ENDMDL
MODEL 9
REMARK VINA RESULT:      -6.7      7.500      9.786
REMARK  Name = 
REMARK  4 active torsions:
REMARK  status: ('A' for Active; 'I' for Inactive)
REMARK    1  A    between atoms: S_2  and  N_4
REMARK    2  A    between atoms: S_2  and  C_19
REMARK    3  A    between atoms: N_8  and  C_9
REMARK    4  A    between atoms: C_9  and  C_10
REMARK                            x       y       z     vdW  Elec       q    Type
REMARK                         _______ _______ _______ _____ _____    ______ ____
ROOT
ATOM      1  N   UNL     1      -1.250  12.530  17.505  0.00  0.00    +0.000 N 
ATOM      2  C   UNL     1      -0.428  12.740  18.589  0.00  0.00    +0.000 A 
ATOM      3  N   UNL     1       0.844  12.253  18.661  0.00  0.00    +0.000 NA
ATOM      4  C   UNL     1       1.249  12.657  19.844  0.00  0.00    +0.000 A 
ATOM      5  N   UNL     1       0.255  13.362  20.450  0.00  0.00    +0.000 N 
ATOM      6  N   UNL     1      -0.798  13.503  19.616  0.00  0.00    +0.000 NA
ATOM      7  H   UNL     1      -1.910  13.294  17.391  0.00  0.00    +0.000 HD
ENDROOT
BRANCH   1   9
ATOM      8  O   UNL     1      -2.296  10.504  16.260  0.00  0.00    +0.000 OA
ATOM      9  S   UNL     1      -2.170  11.116  17.562  0.00  0.00    +0.000 S 
ATOM     10  O   UNL     1      -1.653  10.370  18.693  0.00  0.00    +0.000 OA
BRANCH   9  11
ATOM     11  C   UNL     1      -3.785  11.707  18.018  0.00  0.00    +0.000 A 
ATOM     12  C   UNL     1      -3.988  12.154  19.327  0.00  0.00    +0.000 A 
ATOM     13  C   UNL     1      -5.242  12.631  19.705  0.00  0.00    +0.000 A 
ATOM     14  C   UNL     1      -6.279  12.670  18.773  0.00  0.00    +0.000 A 
ATOM     15 CL   UNL     1      -7.832  13.235  19.252  0.00  0.00    +0.000 Cl
ATOM     16  C   UNL     1      -6.067  12.252  17.457  0.00  0.00    +0.000 A 
ATOM     17  C   UNL     1      -4.814  11.768  17.073  0.00  0.00    +0.000 A 
ENDBRANCH   9  11
ENDBRANCH   1   9
BRANCH   5  18
ATOM     18  C   UNL     1       0.195  13.798  21.838  0.00  0.00    +0.000 C 
BRANCH  18  19
ATOM     19  C   UNL     1      -1.165  13.556  22.448  0.00  0.00    +0.000 A 
ATOM     20  C   UNL     1      -1.575  12.262  22.823  0.00  0.00    +0.000 A 
ATOM     21 CL   UNL     1      -0.524  10.893  22.724  0.00  0.00    +0.000 Cl
ATOM     22  C   UNL     1      -2.862  12.026  23.326  0.00  0.00    +0.000 A 
ATOM     23  C   UNL     1      -3.759  13.075  23.483  0.00  0.00    +0.000 A 
ATOM     24  C   UNL     1      -3.365  14.367  23.151  0.00  0.00    +0.000 A 
ATOM     25  C   UNL     1      -2.086  14.606  22.640  0.00  0.00    +0.000 A 
ATOM     26 CL   UNL     1      -1.691  16.253  22.282  0.00  0.00    +0.000 Cl
ENDBRANCH  18  19
ENDBRANCH   5  18
TORSDOF 4
ENDMDL
