MODEL 1
REMARK VINA RESULT:      -7.9      0.000      0.000
REMARK  Name = 
REMARK  5 active torsions:
REMARK  status: ('A' for Active; 'I' for Inactive)
REMARK    1  A    between atoms: C_2  and  C_3
REMARK    2  A    between atoms: C_6  and  O_7
REMARK    3  A    between atoms: O_7  and  C_8
REMARK    4  A    between atoms: C_8  and  C_9
REMARK    5  A    between atoms: C_9  and  C_10
REMARK                            x       y       z     vdW  Elec       q    Type
REMARK                         _______ _______ _______ _____ _____    ______ ____
ROOT
ATOM      1  C   UNL     1       5.230   5.367  17.942  0.00  0.00    +0.000 A 
ATOM      2  C   UNL     1       6.144   5.108  18.956  0.00  0.00    +0.000 A 
ATOM      3  C   UNL     1       7.302   5.867  19.054  0.00  0.00    +0.000 A 
ATOM      4  C   UNL     1       7.492   6.992  18.246  0.00  0.00    +0.000 A 
ATOM      5  C   UNL     1       6.493   7.345  17.331  0.00  0.00    +0.000 A 
ATOM      6  C   UNL     1       5.365   6.531  17.173  0.00  0.00    +0.000 A 
ENDROOT
BRANCH   1   8
ATOM      7  O   UNL     1       4.359   3.477  16.915  0.00  0.00    +0.000 OA
ATOM      8  C   UNL     1       4.116   4.414  17.666  0.00  0.00    +0.000 C 
ATOM      9  N   UNL     1       2.869   4.612  18.277  0.00  0.00    +0.000 N 
ATOM     10  C   UNL     1       2.533   5.582  19.326  0.00  0.00    +0.000 C 
ATOM     11  C   UNL     1       2.034   4.900  20.591  0.00  0.00    +0.000 C 
ATOM     12  C   UNL     1       0.897   3.931  20.290  0.00  0.00    +0.000 C 
ATOM     13  C   UNL     1       1.292   2.959  19.177  0.00  0.00    +0.000 C 
ATOM     14  C   UNL     1       1.779   3.702  17.933  0.00  0.00    +0.000 C 
ENDBRANCH   1   8
BRANCH   4  15
ATOM     15  O   UNL     1       8.609   7.797  18.289  0.00  0.00    +0.000 OA
BRANCH  15  16
ATOM     16  C   UNL     1       8.345   9.168  17.954  0.00  0.00    +0.000 C 
BRANCH  16  17
ATOM     17  C   UNL     1       8.970  10.137  18.948  0.00  0.00    +0.000 C 
BRANCH  17  18
ATOM     18  C   UNL     1       9.421  11.370  18.239  0.00  0.00    +0.000 A 
ATOM     19  C   UNL     1       8.709  12.503  17.907  0.00  0.00    +0.000 A 
ATOM     20  N   UNL     1       9.616  13.341  17.317  0.00  0.00    +0.000 N 
ATOM     21  C   UNL     1      10.826  12.709  17.323  0.00  0.00    +0.000 A 
ATOM     22  N   UNL     1      10.741  11.520  17.874  0.00  0.00    +0.000 NA
ATOM     23  H   UNL     1       9.433  14.263  16.947  0.00  0.00    +0.000 HD
ENDBRANCH  17  18
ENDBRANCH  16  17
ENDBRANCH  15  16
ENDBRANCH   4  15
TORSDOF 5
ENDMDL
MODEL 2
REMARK VINA RESULT:      -7.7      0.537      1.146
REMARK  Name = 
REMARK  5 active torsions:
REMARK  status: ('A' for Active; 'I' for Inactive)
REMARK    1  A    between atoms: C_2  and  C_3
REMARK    2  A    between atoms: C_6  and  O_7
REMARK    3  A    between atoms: O_7  and  C_8
REMARK    4  A    between atoms: C_8  and  C_9
REMARK    5  A    between atoms: C_9  and  C_10
REMARK                            x       y       z     vdW  Elec       q    Type
REMARK                         _______ _______ _______ _____ _____    ______ ____
ROOT
ATOM      1  C   UNL     1       4.920   5.100  17.471  0.00  0.00    +0.000 A 
ATOM      2  C   UNL     1       5.007   6.337  16.843  0.00  0.00    +0.000 A 
ATOM      3  C   UNL     1       6.079   7.176  17.113  0.00  0.00    +0.000 A 
ATOM      4  C   UNL     1       7.155   6.737  17.890  0.00  0.00    +0.000 A 
ATOM      5  C   UNL     1       7.139   5.432  18.393  0.00  0.00    +0.000 A 
ATOM      6  C   UNL     1       6.020   4.614  18.191  0.00  0.00    +0.000 A 
ENDROOT
BRANCH   1   8
ATOM      7  O   UNL     1       3.654   3.362  16.598  0.00  0.00    +0.000 OA
ATOM      8  C   UNL     1       3.666   4.297  17.390  0.00  0.00    +0.000 C 
ATOM      9  N   UNL     1       2.581   4.622  18.219  0.00  0.00    +0.000 N 
ATOM     10  C   UNL     1       2.561   5.591  19.322  0.00  0.00    +0.000 C 
ATOM     11  C   UNL     1       2.214   4.931  20.649  0.00  0.00    +0.000 C 
ATOM     12  C   UNL     1       0.932   4.116  20.548  0.00  0.00    +0.000 C 
ATOM     13  C   UNL     1       0.999   3.140  19.371  0.00  0.00    +0.000 C 
ATOM     14  C   UNL     1       1.344   3.860  18.068  0.00  0.00    +0.000 C 
ENDBRANCH   1   8
BRANCH   4  15
ATOM     15  O   UNL     1       8.254   7.509  18.196  0.00  0.00    +0.000 OA
BRANCH  15  16
ATOM     16  C   UNL     1       8.046   8.914  17.995  0.00  0.00    +0.000 C 
BRANCH  16  17
ATOM     17  C   UNL     1       8.935   9.766  18.891  0.00  0.00    +0.000 C 
BRANCH  17  18
ATOM     18  C   UNL     1       9.204  11.080  18.237  0.00  0.00    +0.000 A 
ATOM     19  C   UNL     1       8.330  11.950  17.621  0.00  0.00    +0.000 A 
ATOM     20  N   UNL     1       9.092  13.022  17.244  0.00  0.00    +0.000 N 
ATOM     21  C   UNL     1      10.373  12.779  17.647  0.00  0.00    +0.000 A 
ATOM     22  N   UNL     1      10.472  11.618  18.251  0.00  0.00    +0.000 NA
ATOM     23  H   UNL     1       8.771  13.850  16.760  0.00  0.00    +0.000 HD
ENDBRANCH  17  18
ENDBRANCH  16  17
ENDBRANCH  15  16
ENDBRANCH   4  15
TORSDOF 5
ENDMDL
MODEL 3
REMARK VINA RESULT:      -7.4      0.855      1.118
REMARK  Name = 
REMARK  5 active torsions:
REMARK  status: ('A' for Active; 'I' for Inactive)
REMARK    1  A    between atoms: C_2  and  C_3
REMARK    2  A    between atoms: C_6  and  O_7
REMARK    3  A    between atoms: O_7  and  C_8
REMARK    4  A    between atoms: C_8  and  C_9
REMARK    5  A    between atoms: C_9  and  C_10
REMARK                            x       y       z     vdW  Elec       q    Type
REMARK                         _______ _______ _______ _____ _____    ______ ____
ROOT
ATOM      1  C   UNL     1       5.742   5.534  17.729  0.00  0.00    +0.000 A 
ATOM      2  C   UNL     1       6.578   5.279  18.809  0.00  0.00    +0.000 A 
ATOM      3  C   UNL     1       7.660   6.112  19.058  0.00  0.00    +0.000 A 
ATOM      4  C   UNL     1       7.836   7.295  18.333  0.00  0.00    +0.000 A 
ATOM      5  C   UNL     1       6.901   7.631  17.349  0.00  0.00    +0.000 A 
ATOM      6  C   UNL     1       5.857   6.749  17.040  0.00  0.00    +0.000 A 
ENDROOT
BRANCH   1   8
ATOM      7  O   UNL     1       5.125   3.628  16.558  0.00  0.00    +0.000 OA
ATOM      8  C   UNL     1       4.733   4.523  17.298  0.00  0.00    +0.000 C 
ATOM      9  N   UNL     1       3.412   4.623  17.760  0.00  0.00    +0.000 N 
ATOM     10  C   UNL     1       2.893   5.535  18.785  0.00  0.00    +0.000 C 
ATOM     11  C   UNL     1       2.294   4.781  19.964  0.00  0.00    +0.000 C 
ATOM     12  C   UNL     1       1.267   3.754  19.505  0.00  0.00    +0.000 C 
ATOM     13  C   UNL     1       1.853   2.846  18.422  0.00  0.00    +0.000 C 
ATOM     14  C   UNL     1       2.433   3.658  17.265  0.00  0.00    +0.000 C 
ENDBRANCH   1   8
BRANCH   4  15
ATOM     15  O   UNL     1       8.880   8.172  18.525  0.00  0.00    +0.000 OA
BRANCH  15  16
ATOM     16  C   UNL     1       8.529   9.545  18.294  0.00  0.00    +0.000 C 
BRANCH  16  17
ATOM     17  C   UNL     1       9.231  10.492  19.258  0.00  0.00    +0.000 C 
BRANCH  17  18
ATOM     18  C   UNL     1      10.230  11.319  18.518  0.00  0.00    +0.000 A 
ATOM     19  C   UNL     1      11.607  11.270  18.552  0.00  0.00    +0.000 A 
ATOM     20  N   UNL     1      12.025  12.207  17.646  0.00  0.00    +0.000 N 
ATOM     21  C   UNL     1      10.911  12.772  17.094  0.00  0.00    +0.000 A 
ATOM     22  N   UNL     1       9.814  12.255  17.598  0.00  0.00    +0.000 NA
ATOM     23  H   UNL     1      12.981  12.441  17.417  0.00  0.00    +0.000 HD
ENDBRANCH  17  18
ENDBRANCH  16  17
ENDBRANCH  15  16
ENDBRANCH   4  15
TORSDOF 5
ENDMDL
MODEL 4
REMARK VINA RESULT:      -7.4      1.041      1.383
REMARK  Name = 
REMARK  5 active torsions:
REMARK  status: ('A' for Active; 'I' for Inactive)
REMARK    1  A    between atoms: C_2  and  C_3
REMARK    2  A    between atoms: C_6  and  O_7
REMARK    3  A    between atoms: O_7  and  C_8
REMARK    4  A    between atoms: C_8  and  C_9
REMARK    5  A    between atoms: C_9  and  C_10
REMARK                            x       y       z     vdW  Elec       q    Type
REMARK                         _______ _______ _______ _____ _____    ______ ____
ROOT
ATOM      1  C   UNL     1       4.870   4.908  17.777  0.00  0.00    +0.000 A 
ATOM      2  C   UNL     1       6.042   4.868  18.523  0.00  0.00    +0.000 A 
ATOM      3  C   UNL     1       7.060   5.774  18.262  0.00  0.00    +0.000 A 
ATOM      4  C   UNL     1       6.867   6.830  17.365  0.00  0.00    +0.000 A 
ATOM      5  C   UNL     1       5.626   6.963  16.733  0.00  0.00    +0.000 A 
ATOM      6  C   UNL     1       4.629   5.999  16.931  0.00  0.00    +0.000 A 
ENDROOT
BRANCH   1   8
ATOM      7  O   UNL     1       4.143   2.765  17.265  0.00  0.00    +0.000 OA
ATOM      8  C   UNL     1       3.878   3.799  17.867  0.00  0.00    +0.000 C 
ATOM      9  N   UNL     1       2.716   3.970  18.635  0.00  0.00    +0.000 N 
ATOM     10  C   UNL     1       2.400   5.084  19.537  0.00  0.00    +0.000 C 
ATOM     11  C   UNL     1       2.192   4.614  20.969  0.00  0.00    +0.000 C 
ATOM     12  C   UNL     1       1.175   3.482  21.042  0.00  0.00    +0.000 C 
ATOM     13  C   UNL     1       1.541   2.359  20.068  0.00  0.00    +0.000 C 
ATOM     14  C   UNL     1       1.731   2.891  18.648  0.00  0.00    +0.000 C 
ENDBRANCH   1   8
BRANCH   4  15
ATOM     15  O   UNL     1       7.825   7.771  17.060  0.00  0.00    +0.000 OA
BRANCH  15  16
ATOM     16  C   UNL     1       8.165   8.626  18.161  0.00  0.00    +0.000 C 
BRANCH  16  17
ATOM     17  C   UNL     1       8.314  10.082  17.741  0.00  0.00    +0.000 C 
BRANCH  17  18
ATOM     18  C   UNL     1       9.236  10.789  18.677  0.00  0.00    +0.000 A 
ATOM     19  C   UNL     1       9.464  10.569  20.018  0.00  0.00    +0.000 A 
ATOM     20  N   UNL     1      10.440  11.461  20.371  0.00  0.00    +0.000 N 
ATOM     21  C   UNL     1      10.775  12.168  19.252  0.00  0.00    +0.000 A 
ATOM     22  N   UNL     1      10.068  11.785  18.215  0.00  0.00    +0.000 NA
ATOM     23  H   UNL     1      10.849  11.577  21.288  0.00  0.00    +0.000 HD
ENDBRANCH  17  18
ENDBRANCH  16  17
ENDBRANCH  15  16
ENDBRANCH   4  15
TORSDOF 5
ENDMDL
MODEL 5
REMARK VINA RESULT:      -7.4      5.319      7.680
REMARK  Name = 
REMARK  5 active torsions:
REMARK  status: ('A' for Active; 'I' for Inactive)
REMARK    1  A    between atoms: C_2  and  C_3
REMARK    2  A    between atoms: C_6  and  O_7
REMARK    3  A    between atoms: O_7  and  C_8
REMARK    4  A    between atoms: C_8  and  C_9
REMARK    5  A    between atoms: C_9  and  C_10
REMARK                            x       y       z     vdW  Elec       q    Type
REMARK                         _______ _______ _______ _____ _____    ______ ____
ROOT
ATOM      1  C   UNL     1       2.701   6.931  18.781  0.00  0.00    +0.000 A 
ATOM      2  C   UNL     1       2.076   7.059  20.015  0.00  0.00    +0.000 A 
ATOM      3  C   UNL     1       1.462   8.255  20.360  0.00  0.00    +0.000 A 
ATOM      4  C   UNL     1       1.324   9.286  19.424  0.00  0.00    +0.000 A 
ATOM      5  C   UNL     1       1.816   9.094  18.129  0.00  0.00    +0.000 A 
ATOM      6  C   UNL     1       2.510   7.921  17.806  0.00  0.00    +0.000 A 
ENDROOT
BRANCH   1   8
ATOM      7  O   UNL     1       4.765   5.871  18.758  0.00  0.00    +0.000 OA
ATOM      8  C   UNL     1       3.574   5.757  18.492  0.00  0.00    +0.000 C 
ATOM      9  N   UNL     1       3.009   4.589  17.958  0.00  0.00    +0.000 N 
ATOM     10  C   UNL     1       1.583   4.288  17.783  0.00  0.00    +0.000 C 
ATOM     11  C   UNL     1       1.164   3.053  18.567  0.00  0.00    +0.000 C 
ATOM     12  C   UNL     1       2.066   1.865  18.260  0.00  0.00    +0.000 C 
ATOM     13  C   UNL     1       3.539   2.240  18.437  0.00  0.00    +0.000 C 
ATOM     14  C   UNL     1       3.901   3.482  17.623  0.00  0.00    +0.000 C 
ENDBRANCH   1   8
BRANCH   4  15
ATOM     15  O   UNL     1       0.723  10.496  19.690  0.00  0.00    +0.000 OA
BRANCH  15  16
ATOM     16  C   UNL     1      -0.184  10.927  18.664  0.00  0.00    +0.000 C 
BRANCH  16  17
ATOM     17  C   UNL     1      -1.500  10.162  18.696  0.00  0.00    +0.000 C 
BRANCH  17  18
ATOM     18  C   UNL     1      -2.358  10.582  17.550  0.00  0.00    +0.000 A 
ATOM     19  C   UNL     1      -3.356  11.532  17.502  0.00  0.00    +0.000 A 
ATOM     20  N   UNL     1      -3.777  11.550  16.200  0.00  0.00    +0.000 N 
ATOM     21  C   UNL     1      -3.027  10.639  15.512  0.00  0.00    +0.000 A 
ATOM     22  N   UNL     1      -2.162  10.042  16.298  0.00  0.00    +0.000 NA
ATOM     23  H   UNL     1      -4.505  12.132  15.809  0.00  0.00    +0.000 HD
ENDBRANCH  17  18
ENDBRANCH  16  17
ENDBRANCH  15  16
ENDBRANCH   4  15
TORSDOF 5
ENDMDL
MODEL 6
REMARK VINA RESULT:      -7.3      1.189      1.718
REMARK  Name = 
REMARK  5 active torsions:
REMARK  status: ('A' for Active; 'I' for Inactive)
REMARK    1  A    between atoms: C_2  and  C_3
REMARK    2  A    between atoms: C_6  and  O_7
REMARK    3  A    between atoms: O_7  and  C_8
REMARK    4  A    between atoms: C_8  and  C_9
REMARK    5  A    between atoms: C_9  and  C_10
REMARK                            x       y       z     vdW  Elec       q    Type
REMARK                         _______ _______ _______ _____ _____    ______ ____
ROOT
ATOM      1  C   UNL     1       5.029   4.681  17.398  0.00  0.00    +0.000 A 
ATOM      2  C   UNL     1       4.943   5.516  16.291  0.00  0.00    +0.000 A 
ATOM      3  C   UNL     1       5.842   6.562  16.141  0.00  0.00    +0.000 A 
ATOM      4  C   UNL     1       6.933   6.698  17.005  0.00  0.00    +0.000 A 
ATOM      5  C   UNL     1       7.108   5.760  18.028  0.00  0.00    +0.000 A 
ATOM      6  C   UNL     1       6.154   4.755  18.231  0.00  0.00    +0.000 A 
ENDROOT
BRANCH   1   8
ATOM      7  O   UNL     1       4.136   2.539  17.440  0.00  0.00    +0.000 OA
ATOM      8  C   UNL     1       3.933   3.718  17.707  0.00  0.00    +0.000 C 
ATOM      9  N   UNL     1       2.748   4.184  18.296  0.00  0.00    +0.000 N 
ATOM     10  C   UNL     1       2.482   5.528  18.822  0.00  0.00    +0.000 C 
ATOM     11  C   UNL     1       2.144   5.499  20.306  0.00  0.00    +0.000 C 
ATOM     12  C   UNL     1       1.023   4.511  20.603  0.00  0.00    +0.000 C 
ATOM     13  C   UNL     1       1.341   3.136  20.014  0.00  0.00    +0.000 C 
ATOM     14  C   UNL     1       1.667   3.228  18.524  0.00  0.00    +0.000 C 
ENDBRANCH   1   8
BRANCH   4  15
ATOM     15  O   UNL     1       7.870   7.704  16.917  0.00  0.00    +0.000 OA
BRANCH  15  16
ATOM     16  C   UNL     1       7.691   8.746  17.888  0.00  0.00    +0.000 C 
BRANCH  16  17
ATOM     17  C   UNL     1       8.908   8.914  18.788  0.00  0.00    +0.000 C 
BRANCH  17  18
ATOM     18  C   UNL     1       9.170  10.365  19.020  0.00  0.00    +0.000 A 
ATOM     19  C   UNL     1       9.270  11.396  18.110  0.00  0.00    +0.000 A 
ATOM     20  N   UNL     1       9.464  12.523  18.861  0.00  0.00    +0.000 N 
ATOM     21  C   UNL     1       9.463  12.150  20.174  0.00  0.00    +0.000 A 
ATOM     22  N   UNL     1       9.285  10.855  20.302  0.00  0.00    +0.000 NA
ATOM     23  H   UNL     1       9.583  13.465  18.515  0.00  0.00    +0.000 HD
ENDBRANCH  17  18
ENDBRANCH  16  17
ENDBRANCH  15  16
ENDBRANCH   4  15
TORSDOF 5
ENDMDL
MODEL 7
REMARK VINA RESULT:      -7.2      1.425      1.927
REMARK  Name = 
REMARK  5 active torsions:
REMARK  status: ('A' for Active; 'I' for Inactive)
REMARK    1  A    between atoms: C_2  and  C_3
REMARK    2  A    between atoms: C_6  and  O_7
REMARK    3  A    between atoms: O_7  and  C_8
REMARK    4  A    between atoms: C_8  and  C_9
REMARK    5  A    between atoms: C_9  and  C_10
REMARK                            x       y       z     vdW  Elec       q    Type
REMARK                         _______ _______ _______ _____ _____    ______ ____
ROOT
ATOM      1  C   UNL     1       5.640   4.460  18.567  0.00  0.00    +0.000 A 
ATOM      2  C   UNL     1       5.593   4.702  17.200  0.00  0.00    +0.000 A 
ATOM      3  C   UNL     1       6.263   5.794  16.666  0.00  0.00    +0.000 A 
ATOM      4  C   UNL     1       7.115   6.569  17.459  0.00  0.00    +0.000 A 
ATOM      5  C   UNL     1       7.286   6.227  18.804  0.00  0.00    +0.000 A 
ATOM      6  C   UNL     1       6.544   5.178  19.363  0.00  0.00    +0.000 A 
ENDROOT
BRANCH   1   8
ATOM      7  O   UNL     1       5.259   2.460  19.680  0.00  0.00    +0.000 OA
ATOM      8  C   UNL     1       4.734   3.453  19.190  0.00  0.00    +0.000 C 
ATOM      9  N   UNL     1       3.350   3.684  19.207  0.00  0.00    +0.000 N 
ATOM     10  C   UNL     1       2.647   4.913  18.820  0.00  0.00    +0.000 C 
ATOM     11  C   UNL     1       1.847   5.496  19.977  0.00  0.00    +0.000 C 
ATOM     12  C   UNL     1       0.927   4.454  20.600  0.00  0.00    +0.000 C 
ATOM     13  C   UNL     1       1.707   3.188  20.963  0.00  0.00    +0.000 C 
ATOM     14  C   UNL     1       2.484   2.648  19.763  0.00  0.00    +0.000 C 
ENDBRANCH   1   8
BRANCH   4  15
ATOM     15  O   UNL     1       7.817   7.662  17.000  0.00  0.00    +0.000 OA
BRANCH  15  16
ATOM     16  C   UNL     1       8.240   8.554  18.042  0.00  0.00    +0.000 C 
BRANCH  16  17
ATOM     17  C   UNL     1       8.281  10.005  17.581  0.00  0.00    +0.000 C 
BRANCH  17  18
ATOM     18  C   UNL     1       9.156  10.801  18.490  0.00  0.00    +0.000 A 
ATOM     19  C   UNL     1       9.808  11.994  18.260  0.00  0.00    +0.000 A 
ATOM     20  N   UNL     1      10.423  12.305  19.442  0.00  0.00    +0.000 N 
ATOM     21  C   UNL     1      10.120  11.319  20.336  0.00  0.00    +0.000 A 
ATOM     22  N   UNL     1       9.356  10.400  19.793  0.00  0.00    +0.000 NA
ATOM     23  H   UNL     1      10.995  13.117  19.629  0.00  0.00    +0.000 HD
ENDBRANCH  17  18
ENDBRANCH  16  17
ENDBRANCH  15  16
ENDBRANCH   4  15
TORSDOF 5
ENDMDL
MODEL 8
REMARK VINA RESULT:      -7.2      1.169      1.219
REMARK  Name = 
REMARK  5 active torsions:
REMARK  status: ('A' for Active; 'I' for Inactive)
REMARK    1  A    between atoms: C_2  and  C_3
REMARK    2  A    between atoms: C_6  and  O_7
REMARK    3  A    between atoms: O_7  and  C_8
REMARK    4  A    between atoms: C_8  and  C_9
REMARK    5  A    between atoms: C_9  and  C_10
REMARK                            x       y       z     vdW  Elec       q    Type
REMARK                         _______ _______ _______ _____ _____    ______ ____
ROOT
ATOM      1  C   UNL     1       5.596   5.057  18.633  0.00  0.00    +0.000 A 
ATOM      2  C   UNL     1       6.749   5.351  19.350  0.00  0.00    +0.000 A 
ATOM      3  C   UNL     1       7.645   6.294  18.864  0.00  0.00    +0.000 A 
ATOM      4  C   UNL     1       7.333   7.067  17.742  0.00  0.00    +0.000 A 
ATOM      5  C   UNL     1       6.098   6.879  17.112  0.00  0.00    +0.000 A 
ATOM      6  C   UNL     1       5.231   5.870  17.551  0.00  0.00    +0.000 A 
ENDROOT
BRANCH   1   8
ATOM      7  O   UNL     1       5.339   2.829  19.229  0.00  0.00    +0.000 OA
ATOM      8  C   UNL     1       4.755   3.882  19.002  0.00  0.00    +0.000 C 
ATOM      9  N   UNL     1       3.363   4.029  19.091  0.00  0.00    +0.000 N 
ATOM     10  C   UNL     1       2.591   5.276  19.025  0.00  0.00    +0.000 C 
ATOM     11  C   UNL     1       1.793   5.517  20.297  0.00  0.00    +0.000 C 
ATOM     12  C   UNL     1       0.940   4.308  20.659  0.00  0.00    +0.000 C 
ATOM     13  C   UNL     1       1.788   3.035  20.692  0.00  0.00    +0.000 C 
ATOM     14  C   UNL     1       2.561   2.844  19.387  0.00  0.00    +0.000 C 
ENDBRANCH   1   8
BRANCH   4  15
ATOM     15  O   UNL     1       8.166   8.023  17.205  0.00  0.00    +0.000 OA
BRANCH  15  16
ATOM     16  C   UNL     1       8.012   9.321  17.798  0.00  0.00    +0.000 C 
BRANCH  16  17
ATOM     17  C   UNL     1       8.994   9.558  18.937  0.00  0.00    +0.000 C 
BRANCH  17  18
ATOM     18  C   UNL     1       9.536  10.947  18.859  0.00  0.00    +0.000 A 
ATOM     19  C   UNL     1       9.571  11.931  19.824  0.00  0.00    +0.000 A 
ATOM     20  N   UNL     1      10.221  12.985  19.242  0.00  0.00    +0.000 N 
ATOM     21  C   UNL     1      10.564  12.609  17.975  0.00  0.00    +0.000 A 
ATOM     22  N   UNL     1      10.167  11.385  17.716  0.00  0.00    +0.000 NA
ATOM     23  H   UNL     1      10.421  13.880  19.667  0.00  0.00    +0.000 HD
ENDBRANCH  17  18
ENDBRANCH  16  17
ENDBRANCH  15  16
ENDBRANCH   4  15
TORSDOF 5
ENDMDL
MODEL 9
REMARK VINA RESULT:      -7.2      1.215      1.494
REMARK  Name = 
REMARK  5 active torsions:
REMARK  status: ('A' for Active; 'I' for Inactive)
REMARK    1  A    between atoms: C_2  and  C_3
REMARK    2  A    between atoms: C_6  and  O_7
REMARK    3  A    between atoms: O_7  and  C_8
REMARK    4  A    between atoms: C_8  and  C_9
REMARK    5  A    between atoms: C_9  and  C_10
REMARK                            x       y       z     vdW  Elec       q    Type
REMARK                         _______ _______ _______ _____ _____    ______ ____
ROOT
ATOM      1  C   UNL     1       5.416   5.472  17.828  0.00  0.00    +0.000 A 
ATOM      2  C   UNL     1       6.372   5.230  18.807  0.00  0.00    +0.000 A 
ATOM      3  C   UNL     1       7.476   6.063  18.918  0.00  0.00    +0.000 A 
ATOM      4  C   UNL     1       7.569   7.235  18.162  0.00  0.00    +0.000 A 
ATOM      5  C   UNL     1       6.526   7.561  17.288  0.00  0.00    +0.000 A 
ATOM      6  C   UNL     1       5.453   6.678  17.114  0.00  0.00    +0.000 A 
ENDROOT
BRANCH   1   8
ATOM      7  O   UNL     1       4.686   3.516  16.815  0.00  0.00    +0.000 OA
ATOM      8  C   UNL     1       4.364   4.459  17.529  0.00  0.00    +0.000 C 
ATOM      9  N   UNL     1       3.082   4.610  18.079  0.00  0.00    +0.000 N 
ATOM     10  C   UNL     1       2.653   5.588  19.086  0.00  0.00    +0.000 C 
ATOM     11  C   UNL     1       2.131   4.913  20.346  0.00  0.00    +0.000 C 
ATOM     12  C   UNL     1       1.058   3.881  20.022  0.00  0.00    +0.000 C 
ATOM     13  C   UNL     1       1.549   2.903  18.954  0.00  0.00    +0.000 C 
ATOM     14  C   UNL     1       2.055   3.638  17.713  0.00  0.00    +0.000 C 
ENDBRANCH   1   8
BRANCH   4  15
ATOM     15  O   UNL     1       8.629   8.113  18.221  0.00  0.00    +0.000 OA
BRANCH  15  16
ATOM     16  C   UNL     1       8.238   9.493  18.186  0.00  0.00    +0.000 C 
BRANCH  16  17
ATOM     17  C   UNL     1       9.431  10.430  18.061  0.00  0.00    +0.000 C 
BRANCH  17  18
ATOM     18  C   UNL     1       9.672  11.121  19.362  0.00  0.00    +0.000 A 
ATOM     19  C   UNL     1       9.305  10.746  20.636  0.00  0.00    +0.000 A 
ATOM     20  N   UNL     1       9.823  11.709  21.460  0.00  0.00    +0.000 N 
ATOM     21  C   UNL     1      10.485  12.609  20.676  0.00  0.00    +0.000 A 
ATOM     22  N   UNL     1      10.414  12.281  19.407  0.00  0.00    +0.000 NA
ATOM     23  H   UNL     1       9.740  11.750  22.466  0.00  0.00    +0.000 HD
ENDBRANCH  17  18
ENDBRANCH  16  17
ENDBRANCH  15  16
ENDBRANCH   4  15
TORSDOF 5
ENDMDL
