MODEL 1
REMARK VINA RESULT:      -7.3      0.000      0.000
REMARK  Name = 
REMARK  14 active torsions:
REMARK  status: ('A' for Active; 'I' for Inactive)
REMARK    1  A    between atoms: C_1  and  C_2
REMARK    2  A    between atoms: C_2  and  O_3
REMARK    3  A    between atoms: O_3  and  C_4
REMARK    4  A    between atoms: C_9  and  C_10
REMARK    5  A    between atoms: C_10  and  N_11
REMARK    6  A    between atoms: N_11  and  C_12
REMARK    7  A    between atoms: C_12  and  C_13
REMARK    8  A    between atoms: C_14  and  C_15
REMARK    9  A    between atoms: C_15  and  C_16
REMARK   10  A    between atoms: C_15  and  C_17
REMARK   11  A    between atoms: N_19  and  C_20
REMARK   12  A    between atoms: C_21  and  N_22
REMARK   13  A    between atoms: N_22  and  C_23
REMARK   14  A    between atoms: N_22  and  C_24
REMARK                            x       y       z     vdW  Elec       q    Type
REMARK                         _______ _______ _______ _____ _____    ______ ____
ROOT
ATOM      1  C   UNL     1       4.293   5.528  18.132  0.00  0.00    +0.000 C 
ENDROOT
BRANCH   1   2
ATOM      2  C   UNL     1       3.299   5.063  19.147  0.00  0.00    +0.000 A 
ATOM      3  C   UNL     1       2.397   5.927  19.845  0.00  0.00    +0.000 A 
ATOM      4  N   UNL     1       1.557   5.237  20.610  0.00  0.00    +0.000 NA
ATOM      5  N   UNL     1       1.932   3.955  20.463  0.00  0.00    +0.000 N 
ATOM      6  C   UNL     1       1.216   2.989  21.261  0.00  0.00    +0.000 C 
ATOM      7  C   UNL     1       3.023   3.778  19.623  0.00  0.00    +0.000 A 
BRANCH   3   8
ATOM      8  C   UNL     1       2.298   7.438  19.797  0.00  0.00    +0.000 C 
ATOM      9  C   UNL     1       1.926   7.931  18.400  0.00  0.00    +0.000 C 
ATOM     10  C   UNL     1       1.317   8.006  20.830  0.00  0.00    +0.000 C 
ENDBRANCH   3   8
BRANCH   7  11
ATOM     11  N   UNL     1       3.660   2.563  19.431  0.00  0.00    +0.000 N 
ATOM     12  C   UNL     1       3.145   1.583  18.479  0.00  0.00    +0.000 C 
ATOM     13  C   UNL     1       4.661   2.011  20.335  0.00  0.00    +0.000 C 
ENDBRANCH   7  11
ENDBRANCH   1   2
BRANCH   1  14
ATOM     14  N   UNL     1       3.994   4.865  16.859  0.00  0.00    +0.000 NA
ATOM     15  H   UNL     1       3.111   4.372  16.979  0.00  0.00    +0.000 HD
BRANCH  14  16
ATOM     16  C   UNL     1       5.056   3.911  16.522  0.00  0.00    +0.000 C 
BRANCH  16  22
ATOM     17  C   UNL     1       6.961   5.164  15.427  0.00  0.00    +0.000 A 
ATOM     18  N   UNL     1       7.808   5.464  14.414  0.00  0.00    +0.000 NA
ATOM     19  C   UNL     1       7.559   4.900  13.217  0.00  0.00    +0.000 A 
ATOM     20  C   UNL     1       6.499   4.047  12.980  0.00  0.00    +0.000 A 
ATOM     21  C   UNL     1       5.652   3.736  14.043  0.00  0.00    +0.000 A 
ATOM     22  C   UNL     1       5.874   4.292  15.311  0.00  0.00    +0.000 A 
BRANCH  17  23
ATOM     23  O   UNL     1       7.221   5.721  16.666  0.00  0.00    +0.000 OA
BRANCH  23  25
ATOM     24  C   UNL     1       7.888   5.392  18.946  0.00  0.00    +0.000 C 
ATOM     25  C   UNL     1       7.757   4.754  17.574  0.00  0.00    +0.000 C 
ENDBRANCH  23  25
ENDBRANCH  17  23
ENDBRANCH  16  22
ENDBRANCH  14  16
ENDBRANCH   1  14
TORSDOF 8
ENDMDL
MODEL 2
REMARK VINA RESULT:      -7.2      1.550      4.160
REMARK  Name = 
REMARK  14 active torsions:
REMARK  status: ('A' for Active; 'I' for Inactive)
REMARK    1  A    between atoms: C_1  and  C_2
REMARK    2  A    between atoms: C_2  and  O_3
REMARK    3  A    between atoms: O_3  and  C_4
REMARK    4  A    between atoms: C_9  and  C_10
REMARK    5  A    between atoms: C_10  and  N_11
REMARK    6  A    between atoms: N_11  and  C_12
REMARK    7  A    between atoms: C_12  and  C_13
REMARK    8  A    between atoms: C_14  and  C_15
REMARK    9  A    between atoms: C_15  and  C_16
REMARK   10  A    between atoms: C_15  and  C_17
REMARK   11  A    between atoms: N_19  and  C_20
REMARK   12  A    between atoms: C_21  and  N_22
REMARK   13  A    between atoms: N_22  and  C_23
REMARK   14  A    between atoms: N_22  and  C_24
REMARK                            x       y       z     vdW  Elec       q    Type
REMARK                         _______ _______ _______ _____ _____    ______ ____
ROOT
ATOM      1  C   UNL     1       3.123   4.405  17.544  0.00  0.00    +0.000 C 
ENDROOT
BRANCH   1   2
ATOM      2  C   UNL     1       2.536   5.144  18.703  0.00  0.00    +0.000 A 
ATOM      3  C   UNL     1       1.924   4.515  19.833  0.00  0.00    +0.000 A 
ATOM      4  N   UNL     1       1.581   5.405  20.759  0.00  0.00    +0.000 NA
ATOM      5  N   UNL     1       1.909   6.596  20.230  0.00  0.00    +0.000 N 
ATOM      6  C   UNL     1       1.564   7.755  21.016  0.00  0.00    +0.000 C 
ATOM      7  C   UNL     1       2.450   6.517  18.954  0.00  0.00    +0.000 A 
BRANCH   3   8
ATOM      8  C   UNL     1       1.656   3.043  20.072  0.00  0.00    +0.000 C 
ATOM      9  C   UNL     1       1.376   2.757  21.547  0.00  0.00    +0.000 C 
ATOM     10  C   UNL     1       0.512   2.496  19.208  0.00  0.00    +0.000 C 
ENDBRANCH   3   8
BRANCH   7  11
ATOM     11  N   UNL     1       2.735   7.621  18.167  0.00  0.00    +0.000 N 
ATOM     12  C   UNL     1       1.712   8.620  17.870  0.00  0.00    +0.000 C 
ATOM     13  C   UNL     1       3.915   7.740  17.319  0.00  0.00    +0.000 C 
ENDBRANCH   7  11
ENDBRANCH   1   2
BRANCH   1  14
ATOM     14  N   UNL     1       4.275   3.637  18.026  0.00  0.00    +0.000 NA
ATOM     15  H   UNL     1       4.546   4.034  18.924  0.00  0.00    +0.000 HD
BRANCH  14  16
ATOM     16  C   UNL     1       5.389   3.744  17.077  0.00  0.00    +0.000 C 
BRANCH  16  22
ATOM     17  C   UNL     1       6.680   5.804  16.379  0.00  0.00    +0.000 A 
ATOM     18  N   UNL     1       7.439   6.905  16.591  0.00  0.00    +0.000 NA
ATOM     19  C   UNL     1       7.922   7.086  17.835  0.00  0.00    +0.000 A 
ATOM     20  C   UNL     1       7.685   6.217  18.882  0.00  0.00    +0.000 A 
ATOM     21  C   UNL     1       6.882   5.103  18.645  0.00  0.00    +0.000 A 
ATOM     22  C   UNL     1       6.349   4.873  17.368  0.00  0.00    +0.000 A 
BRANCH  17  23
ATOM     23  O   UNL     1       6.159   5.620  15.110  0.00  0.00    +0.000 OA
BRANCH  23  25
ATOM     24  C   UNL     1       6.239   3.881  13.461  0.00  0.00    +0.000 C 
ATOM     25  C   UNL     1       7.051   4.870  14.280  0.00  0.00    +0.000 C 
ENDBRANCH  23  25
ENDBRANCH  17  23
ENDBRANCH  16  22
ENDBRANCH  14  16
ENDBRANCH   1  14
TORSDOF 8
ENDMDL
MODEL 3
REMARK VINA RESULT:      -7.1      2.925      7.291
REMARK  Name = 
REMARK  14 active torsions:
REMARK  status: ('A' for Active; 'I' for Inactive)
REMARK    1  A    between atoms: C_1  and  C_2
REMARK    2  A    between atoms: C_2  and  O_3
REMARK    3  A    between atoms: O_3  and  C_4
REMARK    4  A    between atoms: C_9  and  C_10
REMARK    5  A    between atoms: C_10  and  N_11
REMARK    6  A    between atoms: N_11  and  C_12
REMARK    7  A    between atoms: C_12  and  C_13
REMARK    8  A    between atoms: C_14  and  C_15
REMARK    9  A    between atoms: C_15  and  C_16
REMARK   10  A    between atoms: C_15  and  C_17
REMARK   11  A    between atoms: N_19  and  C_20
REMARK   12  A    between atoms: C_21  and  N_22
REMARK   13  A    between atoms: N_22  and  C_23
REMARK   14  A    between atoms: N_22  and  C_24
REMARK                            x       y       z     vdW  Elec       q    Type
REMARK                         _______ _______ _______ _____ _____    ______ ____
ROOT
ATOM      1  C   UNL     1       2.870   6.350  18.303  0.00  0.00    +0.000 C 
ENDROOT
BRANCH   1   2
ATOM      2  C   UNL     1       3.661   5.164  18.752  0.00  0.00    +0.000 A 
ATOM      3  C   UNL     1       5.083   5.059  18.647  0.00  0.00    +0.000 A 
ATOM      4  N   UNL     1       5.532   3.943  19.216  0.00  0.00    +0.000 NA
ATOM      5  N   UNL     1       4.428   3.303  19.636  0.00  0.00    +0.000 N 
ATOM      6  C   UNL     1       4.635   2.006  20.231  0.00  0.00    +0.000 C 
ATOM      7  C   UNL     1       3.244   3.966  19.341  0.00  0.00    +0.000 A 
BRANCH   3   8
ATOM      8  C   UNL     1       6.064   6.022  18.012  0.00  0.00    +0.000 C 
ATOM      9  C   UNL     1       7.466   5.864  18.599  0.00  0.00    +0.000 C 
ATOM     10  C   UNL     1       6.121   5.897  16.484  0.00  0.00    +0.000 C 
ENDBRANCH   3   8
BRANCH   7  11
ATOM     11  N   UNL     1       1.985   3.431  19.560  0.00  0.00    +0.000 N 
ATOM     12  C   UNL     1       1.196   2.885  18.459  0.00  0.00    +0.000 C 
ATOM     13  C   UNL     1       1.206   3.639  20.774  0.00  0.00    +0.000 C 
ENDBRANCH   7  11
ENDBRANCH   1   2
BRANCH   1  14
ATOM     14  N   UNL     1       2.333   7.020  19.491  0.00  0.00    +0.000 NA
ATOM     15  H   UNL     1       1.533   6.475  19.807  0.00  0.00    +0.000 HD
BRANCH  14  16
ATOM     16  C   UNL     1       1.908   8.384  19.157  0.00  0.00    +0.000 C 
BRANCH  16  22
ATOM     17  C   UNL     1       0.208  10.083  19.944  0.00  0.00    +0.000 A 
ATOM     18  N   UNL     1      -0.605  10.673  20.852  0.00  0.00    +0.000 NA
ATOM     19  C   UNL     1      -0.485  10.276  22.134  0.00  0.00    +0.000 A 
ATOM     20  C   UNL     1       0.414   9.315  22.554  0.00  0.00    +0.000 A 
ATOM     21  C   UNL     1       1.225   8.707  21.599  0.00  0.00    +0.000 A 
ATOM     22  C   UNL     1       1.133   9.080  20.250  0.00  0.00    +0.000 A 
BRANCH  17  23
ATOM     23  O   UNL     1       0.077  10.468  18.622  0.00  0.00    +0.000 OA
BRANCH  23  25
ATOM     24  C   UNL     1      -1.914   9.968  17.381  0.00  0.00    +0.000 C 
ATOM     25  C   UNL     1      -1.245  10.937  18.340  0.00  0.00    +0.000 C 
ENDBRANCH  23  25
ENDBRANCH  17  23
ENDBRANCH  16  22
ENDBRANCH  14  16
ENDBRANCH   1  14
TORSDOF 8
ENDMDL
MODEL 4
REMARK VINA RESULT:      -7.1      1.575      4.170
REMARK  Name = 
REMARK  14 active torsions:
REMARK  status: ('A' for Active; 'I' for Inactive)
REMARK    1  A    between atoms: C_1  and  C_2
REMARK    2  A    between atoms: C_2  and  O_3
REMARK    3  A    between atoms: O_3  and  C_4
REMARK    4  A    between atoms: C_9  and  C_10
REMARK    5  A    between atoms: C_10  and  N_11
REMARK    6  A    between atoms: N_11  and  C_12
REMARK    7  A    between atoms: C_12  and  C_13
REMARK    8  A    between atoms: C_14  and  C_15
REMARK    9  A    between atoms: C_15  and  C_16
REMARK   10  A    between atoms: C_15  and  C_17
REMARK   11  A    between atoms: N_19  and  C_20
REMARK   12  A    between atoms: C_21  and  N_22
REMARK   13  A    between atoms: N_22  and  C_23
REMARK   14  A    between atoms: N_22  and  C_24
REMARK                            x       y       z     vdW  Elec       q    Type
REMARK                         _______ _______ _______ _____ _____    ______ ____
ROOT
ATOM      1  C   UNL     1       2.512   4.308  17.727  0.00  0.00    +0.000 C 
ENDROOT
BRANCH   1   2
ATOM      2  C   UNL     1       2.144   5.220  18.852  0.00  0.00    +0.000 A 
ATOM      3  C   UNL     1       1.617   4.778  20.107  0.00  0.00    +0.000 A 
ATOM      4  N   UNL     1       1.476   5.790  20.958  0.00  0.00    +0.000 NA
ATOM      5  N   UNL     1       1.847   6.878  20.264  0.00  0.00    +0.000 N 
ATOM      6  C   UNL     1       1.713   8.142  20.946  0.00  0.00    +0.000 C 
ATOM      7  C   UNL     1       2.219   6.613  18.953  0.00  0.00    +0.000 A 
BRANCH   3   8
ATOM      8  C   UNL     1       1.242   3.376  20.540  0.00  0.00    +0.000 C 
ATOM      9  C   UNL     1       0.696   2.555  19.373  0.00  0.00    +0.000 C 
ATOM     10  C   UNL     1       2.402   2.626  21.208  0.00  0.00    +0.000 C 
ENDBRANCH   3   8
BRANCH   7  11
ATOM     11  N   UNL     1       2.509   7.593  18.019  0.00  0.00    +0.000 N 
ATOM     12  C   UNL     1       3.846   7.715  17.444  0.00  0.00    +0.000 C 
ATOM     13  C   UNL     1       1.668   8.755  17.763  0.00  0.00    +0.000 C 
ENDBRANCH   7  11
ENDBRANCH   1   2
BRANCH   1  14
ATOM     14  N   UNL     1       3.803   3.689  18.042  0.00  0.00    +0.000 NA
ATOM     15  H   UNL     1       4.134   4.110  18.909  0.00  0.00    +0.000 HD
BRANCH  14  16
ATOM     16  C   UNL     1       4.766   3.944  16.964  0.00  0.00    +0.000 C 
BRANCH  16  22
ATOM     17  C   UNL     1       6.494   5.704  16.404  0.00  0.00    +0.000 A 
ATOM     18  N   UNL     1       7.437   6.631  16.695  0.00  0.00    +0.000 NA
ATOM     19  C   UNL     1       7.843   6.714  17.977  0.00  0.00    +0.000 A 
ATOM     20  C   UNL     1       7.351   5.910  18.987  0.00  0.00    +0.000 A 
ATOM     21  C   UNL     1       6.365   4.979  18.668  0.00  0.00    +0.000 A 
ATOM     22  C   UNL     1       5.903   4.859  17.349  0.00  0.00    +0.000 A 
BRANCH  17  23
ATOM     23  O   UNL     1       6.053   5.627  15.095  0.00  0.00    +0.000 OA
BRANCH  23  25
ATOM     24  C   UNL     1       6.234   3.815  13.535  0.00  0.00    +0.000 C 
ATOM     25  C   UNL     1       6.979   4.915  14.271  0.00  0.00    +0.000 C 
ENDBRANCH  23  25
ENDBRANCH  17  23
ENDBRANCH  16  22
ENDBRANCH  14  16
ENDBRANCH   1  14
TORSDOF 8
ENDMDL
MODEL 5
REMARK VINA RESULT:      -7.1      0.957      1.195
REMARK  Name = 
REMARK  14 active torsions:
REMARK  status: ('A' for Active; 'I' for Inactive)
REMARK    1  A    between atoms: C_1  and  C_2
REMARK    2  A    between atoms: C_2  and  O_3
REMARK    3  A    between atoms: O_3  and  C_4
REMARK    4  A    between atoms: C_9  and  C_10
REMARK    5  A    between atoms: C_10  and  N_11
REMARK    6  A    between atoms: N_11  and  C_12
REMARK    7  A    between atoms: C_12  and  C_13
REMARK    8  A    between atoms: C_14  and  C_15
REMARK    9  A    between atoms: C_15  and  C_16
REMARK   10  A    between atoms: C_15  and  C_17
REMARK   11  A    between atoms: N_19  and  C_20
REMARK   12  A    between atoms: C_21  and  N_22
REMARK   13  A    between atoms: N_22  and  C_23
REMARK   14  A    between atoms: N_22  and  C_24
REMARK                            x       y       z     vdW  Elec       q    Type
REMARK                         _______ _______ _______ _____ _____    ______ ____
ROOT
ATOM      1  C   UNL     1       4.773   5.378  19.157  0.00  0.00    +0.000 C 
ENDROOT
BRANCH   1   2
ATOM      2  C   UNL     1       3.433   4.890  19.603  0.00  0.00    +0.000 A 
ATOM      3  C   UNL     1       2.342   5.744  19.959  0.00  0.00    +0.000 A 
ATOM      4  N   UNL     1       1.241   5.046  20.218  0.00  0.00    +0.000 NA
ATOM      5  N   UNL     1       1.611   3.760  20.090  0.00  0.00    +0.000 N 
ATOM      6  C   UNL     1       0.602   2.776  20.398  0.00  0.00    +0.000 C 
ATOM      7  C   UNL     1       2.950   3.587  19.766  0.00  0.00    +0.000 A 
BRANCH   3   8
ATOM      8  C   UNL     1       2.310   7.256  20.053  0.00  0.00    +0.000 C 
ATOM      9  C   UNL     1       2.129   7.899  18.678  0.00  0.00    +0.000 C 
ATOM     10  C   UNL     1       1.234   7.772  21.017  0.00  0.00    +0.000 C 
ENDBRANCH   3   8
BRANCH   7  11
ATOM     11  N   UNL     1       3.579   2.354  19.715  0.00  0.00    +0.000 N 
ATOM     12  C   UNL     1       4.618   1.998  20.678  0.00  0.00    +0.000 C 
ATOM     13  C   UNL     1       3.525   1.454  18.571  0.00  0.00    +0.000 C 
ENDBRANCH   7  11
ENDBRANCH   1   2
BRANCH   1  14
ATOM     14  N   UNL     1       4.739   5.546  17.701  0.00  0.00    +0.000 NA
ATOM     15  H   UNL     1       3.774   5.748  17.445  0.00  0.00    +0.000 HD
BRANCH  14  16
ATOM     16  C   UNL     1       5.185   4.316  17.037  0.00  0.00    +0.000 C 
BRANCH  16  22
ATOM     17  C   UNL     1       7.067   5.310  15.672  0.00  0.00    +0.000 A 
ATOM     18  N   UNL     1       7.827   5.463  14.562  0.00  0.00    +0.000 NA
ATOM     19  C   UNL     1       7.406   4.850  13.439  0.00  0.00    +0.000 A 
ATOM     20  C   UNL     1       6.256   4.088  13.371  0.00  0.00    +0.000 A 
ATOM     21  C   UNL     1       5.501   3.927  14.531  0.00  0.00    +0.000 A 
ATOM     22  C   UNL     1       5.902   4.540  15.728  0.00  0.00    +0.000 A 
BRANCH  17  23
ATOM     23  O   UNL     1       7.503   5.918  16.836  0.00  0.00    +0.000 OA
BRANCH  23  25
ATOM     24  C   UNL     1       8.051   7.993  17.905  0.00  0.00    +0.000 C 
ATOM     25  C   UNL     1       7.203   7.316  16.843  0.00  0.00    +0.000 C 
ENDBRANCH  23  25
ENDBRANCH  17  23
ENDBRANCH  16  22
ENDBRANCH  14  16
ENDBRANCH   1  14
TORSDOF 8
ENDMDL
MODEL 6
REMARK VINA RESULT:      -7.0      1.506      3.487
REMARK  Name = 
REMARK  14 active torsions:
REMARK  status: ('A' for Active; 'I' for Inactive)
REMARK    1  A    between atoms: C_1  and  C_2
REMARK    2  A    between atoms: C_2  and  O_3
REMARK    3  A    between atoms: O_3  and  C_4
REMARK    4  A    between atoms: C_9  and  C_10
REMARK    5  A    between atoms: C_10  and  N_11
REMARK    6  A    between atoms: N_11  and  C_12
REMARK    7  A    between atoms: C_12  and  C_13
REMARK    8  A    between atoms: C_14  and  C_15
REMARK    9  A    between atoms: C_15  and  C_16
REMARK   10  A    between atoms: C_15  and  C_17
REMARK   11  A    between atoms: N_19  and  C_20
REMARK   12  A    between atoms: C_21  and  N_22
REMARK   13  A    between atoms: N_22  and  C_23
REMARK   14  A    between atoms: N_22  and  C_24
REMARK                            x       y       z     vdW  Elec       q    Type
REMARK                         _______ _______ _______ _____ _____    ______ ____
ROOT
ATOM      1  C   UNL     1       3.303   5.034  17.786  0.00  0.00    +0.000 C 
ENDROOT
BRANCH   1   2
ATOM      2  C   UNL     1       2.591   5.711  18.912  0.00  0.00    +0.000 A 
ATOM      3  C   UNL     1       2.040   5.029  20.041  0.00  0.00    +0.000 A 
ATOM      4  N   UNL     1       1.555   5.883  20.938  0.00  0.00    +0.000 NA
ATOM      5  N   UNL     1       1.732   7.096  20.387  0.00  0.00    +0.000 N 
ATOM      6  C   UNL     1       1.213   8.214  21.136  0.00  0.00    +0.000 C 
ATOM      7  C   UNL     1       2.313   7.065  19.127  0.00  0.00    +0.000 A 
BRANCH   3   8
ATOM      8  C   UNL     1       1.966   3.540  20.310  0.00  0.00    +0.000 C 
ATOM      9  C   UNL     1       2.060   3.234  21.805  0.00  0.00    +0.000 C 
ATOM     10  C   UNL     1       0.709   2.887  19.723  0.00  0.00    +0.000 C 
ENDBRANCH   3   8
BRANCH   7  11
ATOM     11  N   UNL     1       2.467   8.180  18.320  0.00  0.00    +0.000 N 
ATOM     12  C   UNL     1       1.356   9.096  18.078  0.00  0.00    +0.000 C 
ATOM     13  C   UNL     1       3.583   8.382  17.405  0.00  0.00    +0.000 C 
ENDBRANCH   7  11
ENDBRANCH   1   2
BRANCH   1  14
ATOM     14  N   UNL     1       4.727   4.956  18.125  0.00  0.00    +0.000 NA
ATOM     15  H   UNL     1       5.149   5.841  17.851  0.00  0.00    +0.000 HD
BRANCH  14  16
ATOM     16  C   UNL     1       5.363   3.853  17.395  0.00  0.00    +0.000 C 
BRANCH  16  22
ATOM     17  C   UNL     1       7.035   5.133  15.994  0.00  0.00    +0.000 A 
ATOM     18  N   UNL     1       7.692   5.445  14.852  0.00  0.00    +0.000 NA
ATOM     19  C   UNL     1       7.248   4.880  13.713  0.00  0.00    +0.000 A 
ATOM     20  C   UNL     1       6.173   4.015  13.659  0.00  0.00    +0.000 A 
ATOM     21  C   UNL     1       5.526   3.690  14.850  0.00  0.00    +0.000 A 
ATOM     22  C   UNL     1       5.955   4.247  16.063  0.00  0.00    +0.000 A 
BRANCH  17  23
ATOM     23  O   UNL     1       7.498   5.690  17.173  0.00  0.00    +0.000 OA
BRANCH  23  25
ATOM     24  C   UNL     1       8.174   7.705  18.283  0.00  0.00    +0.000 C 
ATOM     25  C   UNL     1       7.294   7.106  17.200  0.00  0.00    +0.000 C 
ENDBRANCH  23  25
ENDBRANCH  17  23
ENDBRANCH  16  22
ENDBRANCH  14  16
ENDBRANCH   1  14
TORSDOF 8
ENDMDL
MODEL 7
REMARK VINA RESULT:      -6.9      1.641      3.552
REMARK  Name = 
REMARK  14 active torsions:
REMARK  status: ('A' for Active; 'I' for Inactive)
REMARK    1  A    between atoms: C_1  and  C_2
REMARK    2  A    between atoms: C_2  and  O_3
REMARK    3  A    between atoms: O_3  and  C_4
REMARK    4  A    between atoms: C_9  and  C_10
REMARK    5  A    between atoms: C_10  and  N_11
REMARK    6  A    between atoms: N_11  and  C_12
REMARK    7  A    between atoms: C_12  and  C_13
REMARK    8  A    between atoms: C_14  and  C_15
REMARK    9  A    between atoms: C_15  and  C_16
REMARK   10  A    between atoms: C_15  and  C_17
REMARK   11  A    between atoms: N_19  and  C_20
REMARK   12  A    between atoms: C_21  and  N_22
REMARK   13  A    between atoms: N_22  and  C_23
REMARK   14  A    between atoms: N_22  and  C_24
REMARK                            x       y       z     vdW  Elec       q    Type
REMARK                         _______ _______ _______ _____ _____    ______ ____
ROOT
ATOM      1  C   UNL     1       2.685   4.405  17.766  0.00  0.00    +0.000 C 
ENDROOT
BRANCH   1   2
ATOM      2  C   UNL     1       2.237   5.314  18.865  0.00  0.00    +0.000 A 
ATOM      3  C   UNL     1       1.696   4.864  20.110  0.00  0.00    +0.000 A 
ATOM      4  N   UNL     1       1.478   5.879  20.941  0.00  0.00    +0.000 NA
ATOM      5  N   UNL     1       1.815   6.975  20.240  0.00  0.00    +0.000 N 
ATOM      6  C   UNL     1       1.597   8.241  20.898  0.00  0.00    +0.000 C 
ATOM      7  C   UNL     1       2.240   6.710  18.945  0.00  0.00    +0.000 A 
BRANCH   3   8
ATOM      8  C   UNL     1       1.378   3.451  20.555  0.00  0.00    +0.000 C 
ATOM      9  C   UNL     1       0.826   2.612  19.403  0.00  0.00    +0.000 C 
ATOM     10  C   UNL     1       2.580   2.740  21.189  0.00  0.00    +0.000 C 
ENDBRANCH   3   8
BRANCH   7  11
ATOM     11  N   UNL     1       2.509   7.690  18.005  0.00  0.00    +0.000 N 
ATOM     12  C   UNL     1       3.838   7.825  17.414  0.00  0.00    +0.000 C 
ATOM     13  C   UNL     1       1.653   8.843  17.755  0.00  0.00    +0.000 C 
ENDBRANCH   7  11
ENDBRANCH   1   2
BRANCH   1  14
ATOM     14  N   UNL     1       3.916   3.736  18.197  0.00  0.00    +0.000 NA
ATOM     15  H   UNL     1       3.770   3.428  19.157  0.00  0.00    +0.000 HD
BRANCH  14  16
ATOM     16  C   UNL     1       5.048   4.667  18.138  0.00  0.00    +0.000 C 
BRANCH  16  22
ATOM     17  C   UNL     1       6.834   5.567  16.590  0.00  0.00    +0.000 A 
ATOM     18  N   UNL     1       7.552   5.612  15.443  0.00  0.00    +0.000 NA
ATOM     19  C   UNL     1       7.130   4.839  14.424  0.00  0.00    +0.000 A 
ATOM     20  C   UNL     1       6.020   4.021  14.494  0.00  0.00    +0.000 A 
ATOM     21  C   UNL     1       5.309   3.974  15.692  0.00  0.00    +0.000 A 
ATOM     22  C   UNL     1       5.713   4.755  16.785  0.00  0.00    +0.000 A 
BRANCH  17  23
ATOM     23  O   UNL     1       7.272   6.339  17.651  0.00  0.00    +0.000 OA
BRANCH  23  25
ATOM     24  C   UNL     1       8.330   8.415  18.222  0.00  0.00    +0.000 C 
ATOM     25  C   UNL     1       7.340   7.724  17.299  0.00  0.00    +0.000 C 
ENDBRANCH  23  25
ENDBRANCH  17  23
ENDBRANCH  16  22
ENDBRANCH  14  16
ENDBRANCH   1  14
TORSDOF 8
ENDMDL
MODEL 8
REMARK VINA RESULT:      -6.9      2.991      6.772
REMARK  Name = 
REMARK  14 active torsions:
REMARK  status: ('A' for Active; 'I' for Inactive)
REMARK    1  A    between atoms: C_1  and  C_2
REMARK    2  A    between atoms: C_2  and  O_3
REMARK    3  A    between atoms: O_3  and  C_4
REMARK    4  A    between atoms: C_9  and  C_10
REMARK    5  A    between atoms: C_10  and  N_11
REMARK    6  A    between atoms: N_11  and  C_12
REMARK    7  A    between atoms: C_12  and  C_13
REMARK    8  A    between atoms: C_14  and  C_15
REMARK    9  A    between atoms: C_15  and  C_16
REMARK   10  A    between atoms: C_15  and  C_17
REMARK   11  A    between atoms: N_19  and  C_20
REMARK   12  A    between atoms: C_21  and  N_22
REMARK   13  A    between atoms: N_22  and  C_23
REMARK   14  A    between atoms: N_22  and  C_24
REMARK                            x       y       z     vdW  Elec       q    Type
REMARK                         _______ _______ _______ _____ _____    ______ ____
ROOT
ATOM      1  C   UNL     1       3.618   6.974  17.829  0.00  0.00    +0.000 C 
ENDROOT
BRANCH   1   2
ATOM      2  C   UNL     1       4.131   5.695  18.408  0.00  0.00    +0.000 A 
ATOM      3  C   UNL     1       5.517   5.359  18.514  0.00  0.00    +0.000 A 
ATOM      4  N   UNL     1       5.691   4.210  19.161  0.00  0.00    +0.000 NA
ATOM      5  N   UNL     1       4.448   3.773  19.425  0.00  0.00    +0.000 N 
ATOM      6  C   UNL     1       4.353   2.484  20.066  0.00  0.00    +0.000 C 
ATOM      7  C   UNL     1       3.444   4.605  18.950  0.00  0.00    +0.000 A 
BRANCH   3   8
ATOM      8  C   UNL     1       6.723   6.127  18.013  0.00  0.00    +0.000 C 
ATOM      9  C   UNL     1       7.887   6.050  19.000  0.00  0.00    +0.000 C 
ATOM     10  C   UNL     1       7.187   5.671  16.623  0.00  0.00    +0.000 C 
ENDBRANCH   3   8
BRANCH   7  11
ATOM     11  N   UNL     1       2.096   4.288  18.991  0.00  0.00    +0.000 N 
ATOM     12  C   UNL     1       1.341   4.044  17.765  0.00  0.00    +0.000 C 
ATOM     13  C   UNL     1       1.245   4.479  20.159  0.00  0.00    +0.000 C 
ENDBRANCH   7  11
ENDBRANCH   1   2
BRANCH   1  14
ATOM     14  N   UNL     1       2.671   7.562  18.781  0.00  0.00    +0.000 NA
ATOM     15  H   UNL     1       2.201   6.791  19.251  0.00  0.00    +0.000 HD
BRANCH  14  16
ATOM     16  C   UNL     1       1.688   8.391  18.074  0.00  0.00    +0.000 C 
BRANCH  16  22
ATOM     17  C   UNL     1       1.039  10.029  19.890  0.00  0.00    +0.000 A 
ATOM     18  N   UNL     1       0.995  11.244  20.485  0.00  0.00    +0.000 NA
ATOM     19  C   UNL     1       1.461  12.291  19.778  0.00  0.00    +0.000 A 
ATOM     20  C   UNL     1       1.968  12.184  18.498  0.00  0.00    +0.000 A 
ATOM     21  C   UNL     1       2.023  10.920  17.914  0.00  0.00    +0.000 A 
ATOM     22  C   UNL     1       1.558   9.796  18.612  0.00  0.00    +0.000 A 
BRANCH  17  23
ATOM     23  O   UNL     1       0.585   8.942  20.616  0.00  0.00    +0.000 OA
BRANCH  23  25
ATOM     24  C   UNL     1      -0.491   9.230  22.740  0.00  0.00    +0.000 C 
ATOM     25  C   UNL     1       0.837   9.103  22.015  0.00  0.00    +0.000 C 
ENDBRANCH  23  25
ENDBRANCH  17  23
ENDBRANCH  16  22
ENDBRANCH  14  16
ENDBRANCH   1  14
TORSDOF 8
ENDMDL
MODEL 9
REMARK VINA RESULT:      -6.8      3.048      7.410
REMARK  Name = 
REMARK  14 active torsions:
REMARK  status: ('A' for Active; 'I' for Inactive)
REMARK    1  A    between atoms: C_1  and  C_2
REMARK    2  A    between atoms: C_2  and  O_3
REMARK    3  A    between atoms: O_3  and  C_4
REMARK    4  A    between atoms: C_9  and  C_10
REMARK    5  A    between atoms: C_10  and  N_11
REMARK    6  A    between atoms: N_11  and  C_12
REMARK    7  A    between atoms: C_12  and  C_13
REMARK    8  A    between atoms: C_14  and  C_15
REMARK    9  A    between atoms: C_15  and  C_16
REMARK   10  A    between atoms: C_15  and  C_17
REMARK   11  A    between atoms: N_19  and  C_20
REMARK   12  A    between atoms: C_21  and  N_22
REMARK   13  A    between atoms: N_22  and  C_23
REMARK   14  A    between atoms: N_22  and  C_24
REMARK                            x       y       z     vdW  Elec       q    Type
REMARK                         _______ _______ _______ _____ _____    ______ ____
ROOT
ATOM      1  C   UNL     1       2.470   6.369  18.606  0.00  0.00    +0.000 C 
ENDROOT
BRANCH   1   2
ATOM      2  C   UNL     1       3.337   5.194  18.925  0.00  0.00    +0.000 A 
ATOM      3  C   UNL     1       4.737   5.126  18.642  0.00  0.00    +0.000 A 
ATOM      4  N   UNL     1       5.278   4.011  19.123  0.00  0.00    +0.000 NA
ATOM      5  N   UNL     1       4.249   3.335  19.662  0.00  0.00    +0.000 N 
ATOM      6  C   UNL     1       4.558   2.031  20.196  0.00  0.00    +0.000 C 
ATOM      7  C   UNL     1       3.024   3.974  19.533  0.00  0.00    +0.000 A 
BRANCH   3   8
ATOM      8  C   UNL     1       5.609   6.128  17.912  0.00  0.00    +0.000 C 
ATOM      9  C   UNL     1       7.076   5.997  18.321  0.00  0.00    +0.000 C 
ATOM     10  C   UNL     1       5.483   6.031  16.386  0.00  0.00    +0.000 C 
ENDBRANCH   3   8
BRANCH   7  11
ATOM     11  N   UNL     1       1.814   3.404  19.893  0.00  0.00    +0.000 N 
ATOM     12  C   UNL     1       1.445   3.243  21.297  0.00  0.00    +0.000 C 
ATOM     13  C   UNL     1       0.966   2.640  18.988  0.00  0.00    +0.000 C 
ENDBRANCH   7  11
ENDBRANCH   1   2
BRANCH   1  14
ATOM     14  N   UNL     1       2.420   7.236  19.787  0.00  0.00    +0.000 NA
ATOM     15  H   UNL     1       1.868   6.750  20.492  0.00  0.00    +0.000 HD
BRANCH  14  16
ATOM     16  C   UNL     1       1.785   8.516  19.452  0.00  0.00    +0.000 C 
BRANCH  16  22
ATOM     17  C   UNL     1       0.033  10.103  20.351  0.00  0.00    +0.000 A 
ATOM     18  N   UNL     1      -0.761  10.636  21.310  0.00  0.00    +0.000 NA
ATOM     19  C   UNL     1      -0.543  10.238  22.578  0.00  0.00    +0.000 A 
ATOM     20  C   UNL     1       0.434   9.332  22.938  0.00  0.00    +0.000 A 
ATOM     21  C   UNL     1       1.225   8.780  21.932  0.00  0.00    +0.000 A 
ATOM     22  C   UNL     1       1.033   9.156  20.594  0.00  0.00    +0.000 A 
BRANCH  17  23
ATOM     23  O   UNL     1      -0.197  10.487  19.042  0.00  0.00    +0.000 OA
BRANCH  23  25
ATOM     24  C   UNL     1      -0.761  12.747  18.475  0.00  0.00    +0.000 C 
ATOM     25  C   UNL     1       0.366  11.772  18.765  0.00  0.00    +0.000 C 
ENDBRANCH  23  25
ENDBRANCH  17  23
ENDBRANCH  16  22
ENDBRANCH  14  16
ENDBRANCH   1  14
TORSDOF 8
ENDMDL
