MODEL 1
REMARK VINA RESULT:      -6.9      0.000      0.000
REMARK  Name = 
REMARK  13 active torsions:
REMARK  status: ('A' for Active; 'I' for Inactive)
REMARK    1  A    between atoms: C_1  and  C_2
REMARK    2  A    between atoms: C_2  and  C_3
REMARK    3  A    between atoms: C_3  and  C_4
REMARK    4  A    between atoms: C_4  and  C_5
REMARK    5  A    between atoms: C_5  and  C_6
REMARK    6  A    between atoms: C_6  and  C_7
REMARK    7  A    between atoms: C_7  and  C_8
REMARK    8  A    between atoms: C_8  and  C_9
REMARK    9  A    between atoms: C_9  and  C_10
REMARK   10  A    between atoms: C_10  and  C_11
REMARK   11  A    between atoms: C_11  and  C_12
REMARK   12  A    between atoms: C_12  and  N_13
REMARK   13  A    between atoms: C_14  and  C_16
REMARK                            x       y       z     vdW  Elec       q    Type
REMARK                         _______ _______ _______ _____ _____    ______ ____
ROOT
ATOM      1  N   UNL     1       5.473   3.930  18.096  0.00  0.00    +0.000 N 
ATOM      2  C   UNL     1       5.013   4.250  16.840  0.00  0.00    +0.000 C 
ATOM      3  O   UNL     1       3.815   4.287  16.567  0.00  0.00    +0.000 OA
ATOM      4  H   UNL     1       6.441   4.118  18.318  0.00  0.00    +0.000 HD
ENDROOT
BRANCH   2   5
ATOM      5  C   UNL     1       6.028   4.580  15.848  0.00  0.00    +0.000 A 
ATOM      6  C   UNL     1       7.055   5.471  16.106  0.00  0.00    +0.000 A 
ATOM      7  N   UNL     1       7.796   5.631  14.971  0.00  0.00    +0.000 N 
ATOM      8  C   UNL     1       7.253   4.888  13.949  0.00  0.00    +0.000 A 
ATOM      9  C   UNL     1       7.642   4.813  12.606  0.00  0.00    +0.000 A 
ATOM     10  C   UNL     1       6.889   4.000  11.759  0.00  0.00    +0.000 A 
ATOM     11  C   UNL     1       5.799   3.281  12.241  0.00  0.00    +0.000 A 
ATOM     12  C   UNL     1       5.423   3.369  13.588  0.00  0.00    +0.000 A 
ATOM     13  C   UNL     1       6.158   4.191  14.470  0.00  0.00    +0.000 A 
ATOM     14  H   UNL     1       8.593   6.244  14.876  0.00  0.00    +0.000 HD
ENDBRANCH   2   5
BRANCH   1  15
ATOM     15  C   UNL     1       4.549   3.594  19.161  0.00  0.00    +0.000 C 
BRANCH  15  16
ATOM     16  C   UNL     1       4.419   2.086  19.361  0.00  0.00    +0.000 C 
BRANCH  16  17
ATOM     17  C   UNL     1       3.305   1.511  18.485  0.00  0.00    +0.000 C 
BRANCH  17  18
ATOM     18  C   UNL     1       1.999   2.276  18.678  0.00  0.00    +0.000 C 
BRANCH  18  19
ATOM     19  C   UNL     1       1.695   2.478  20.161  0.00  0.00    +0.000 C 
BRANCH  19  20
ATOM     20  C   UNL     1       0.990   3.811  20.391  0.00  0.00    +0.000 C 
BRANCH  20  21
ATOM     21  C   UNL     1       1.940   4.825  21.017  0.00  0.00    +0.000 C 
BRANCH  21  22
ATOM     22  C   UNL     1       1.865   6.159  20.282  0.00  0.00    +0.000 C 
BRANCH  22  23
ATOM     23  C   UNL     1       2.342   6.011  18.842  0.00  0.00    +0.000 C 
BRANCH  23  24
ATOM     24  C   UNL     1       2.572   7.378  18.207  0.00  0.00    +0.000 C 
BRANCH  24  26
ATOM     25  C   UNL     1       1.230   9.491  18.046  0.00  0.00    +0.000 C 
ATOM     26  C   UNL     1       1.849   8.472  18.987  0.00  0.00    +0.000 C 
ENDBRANCH  24  26
ENDBRANCH  23  24
ENDBRANCH  22  23
ENDBRANCH  21  22
ENDBRANCH  20  21
ENDBRANCH  19  20
ENDBRANCH  18  19
ENDBRANCH  17  18
ENDBRANCH  16  17
ENDBRANCH  15  16
ENDBRANCH   1  15
TORSDOF 12
ENDMDL
MODEL 2
REMARK VINA RESULT:      -6.9      4.320      8.717
REMARK  Name = 
REMARK  13 active torsions:
REMARK  status: ('A' for Active; 'I' for Inactive)
REMARK    1  A    between atoms: C_1  and  C_2
REMARK    2  A    between atoms: C_2  and  C_3
REMARK    3  A    between atoms: C_3  and  C_4
REMARK    4  A    between atoms: C_4  and  C_5
REMARK    5  A    between atoms: C_5  and  C_6
REMARK    6  A    between atoms: C_6  and  C_7
REMARK    7  A    between atoms: C_7  and  C_8
REMARK    8  A    between atoms: C_8  and  C_9
REMARK    9  A    between atoms: C_9  and  C_10
REMARK   10  A    between atoms: C_10  and  C_11
REMARK   11  A    between atoms: C_11  and  C_12
REMARK   12  A    between atoms: C_12  and  N_13
REMARK   13  A    between atoms: C_14  and  C_16
REMARK                            x       y       z     vdW  Elec       q    Type
REMARK                         _______ _______ _______ _____ _____    ______ ____
ROOT
ATOM      1  N   UNL     1       0.936  10.012  17.858  0.00  0.00    +0.000 N 
ATOM      2  C   UNL     1       0.095  10.179  18.934  0.00  0.00    +0.000 C 
ATOM      3  O   UNL     1       0.387   9.793  20.064  0.00  0.00    +0.000 OA
ATOM      4  H   UNL     1       0.742  10.528  17.010  0.00  0.00    +0.000 HD
ENDROOT
BRANCH   2   5
ATOM      5  C   UNL     1      -1.158  10.875  18.670  0.00  0.00    +0.000 A 
ATOM      6  C   UNL     1      -1.706  11.780  19.563  0.00  0.00    +0.000 A 
ATOM      7  N   UNL     1      -2.907  12.207  19.077  0.00  0.00    +0.000 N 
ATOM      8  C   UNL     1      -3.185  11.570  17.890  0.00  0.00    +0.000 A 
ATOM      9  C   UNL     1      -4.333  11.648  17.091  0.00  0.00    +0.000 A 
ATOM     10  C   UNL     1      -4.375  10.859  15.941  0.00  0.00    +0.000 A 
ATOM     11  C   UNL     1      -3.306  10.036  15.599  0.00  0.00    +0.000 A 
ATOM     12  C   UNL     1      -2.166   9.969  16.411  0.00  0.00    +0.000 A 
ATOM     13  C   UNL     1      -2.096  10.747  17.588  0.00  0.00    +0.000 A 
ATOM     14  H   UNL     1      -3.528  12.854  19.541  0.00  0.00    +0.000 HD
ENDBRANCH   2   5
BRANCH   1  15
ATOM     15  C   UNL     1       2.211   9.341  18.011  0.00  0.00    +0.000 C 
BRANCH  15  16
ATOM     16  C   UNL     1       2.125   7.853  17.682  0.00  0.00    +0.000 C 
BRANCH  16  17
ATOM     17  C   UNL     1       3.150   7.054  18.489  0.00  0.00    +0.000 C 
BRANCH  17  18
ATOM     18  C   UNL     1       4.062   6.240  17.576  0.00  0.00    +0.000 C 
BRANCH  18  19
ATOM     19  C   UNL     1       4.281   4.835  18.130  0.00  0.00    +0.000 C 
BRANCH  19  20
ATOM     20  C   UNL     1       3.950   3.781  17.077  0.00  0.00    +0.000 C 
BRANCH  20  21
ATOM     21  C   UNL     1       2.518   3.287  17.236  0.00  0.00    +0.000 C 
BRANCH  21  22
ATOM     22  C   UNL     1       2.466   2.070  18.155  0.00  0.00    +0.000 C 
BRANCH  22  23
ATOM     23  C   UNL     1       1.642   2.368  19.402  0.00  0.00    +0.000 C 
BRANCH  23  24
ATOM     24  C   UNL     1       2.552   2.629  20.598  0.00  0.00    +0.000 C 
BRANCH  24  26
ATOM     25  C   UNL     1       1.173   4.721  20.481  0.00  0.00    +0.000 C 
ATOM     26  C   UNL     1       2.161   3.919  21.311  0.00  0.00    +0.000 C 
ENDBRANCH  24  26
ENDBRANCH  23  24
ENDBRANCH  22  23
ENDBRANCH  21  22
ENDBRANCH  20  21
ENDBRANCH  19  20
ENDBRANCH  18  19
ENDBRANCH  17  18
ENDBRANCH  16  17
ENDBRANCH  15  16
ENDBRANCH   1  15
TORSDOF 12
ENDMDL
MODEL 3
REMARK VINA RESULT:      -6.8      1.836      3.392
REMARK  Name = 
REMARK  13 active torsions:
REMARK  status: ('A' for Active; 'I' for Inactive)
REMARK    1  A    between atoms: C_1  and  C_2
REMARK    2  A    between atoms: C_2  and  C_3
REMARK    3  A    between atoms: C_3  and  C_4
REMARK    4  A    between atoms: C_4  and  C_5
REMARK    5  A    between atoms: C_5  and  C_6
REMARK    6  A    between atoms: C_6  and  C_7
REMARK    7  A    between atoms: C_7  and  C_8
REMARK    8  A    between atoms: C_8  and  C_9
REMARK    9  A    between atoms: C_9  and  C_10
REMARK   10  A    between atoms: C_10  and  C_11
REMARK   11  A    between atoms: C_11  and  C_12
REMARK   12  A    between atoms: C_12  and  N_13
REMARK   13  A    between atoms: C_14  and  C_16
REMARK                            x       y       z     vdW  Elec       q    Type
REMARK                         _______ _______ _______ _____ _____    ______ ____
ROOT
ATOM      1  N   UNL     1       3.106   3.122  19.178  0.00  0.00    +0.000 N 
ATOM      2  C   UNL     1       4.455   3.120  19.450  0.00  0.00    +0.000 C 
ATOM      3  O   UNL     1       4.968   2.317  20.227  0.00  0.00    +0.000 OA
ATOM      4  H   UNL     1       2.775   3.655  18.385  0.00  0.00    +0.000 HD
ENDROOT
BRANCH   2   5
ATOM      5  C   UNL     1       5.257   4.104  18.736  0.00  0.00    +0.000 A 
ATOM      6  C   UNL     1       5.892   5.152  19.381  0.00  0.00    +0.000 A 
ATOM      7  N   UNL     1       6.499   5.941  18.447  0.00  0.00    +0.000 N 
ATOM      8  C   UNL     1       6.245   5.455  17.186  0.00  0.00    +0.000 A 
ATOM      9  C   UNL     1       6.605   5.989  15.943  0.00  0.00    +0.000 A 
ATOM     10  C   UNL     1       6.184   5.308  14.800  0.00  0.00    +0.000 A 
ATOM     11  C   UNL     1       5.443   4.134  14.900  0.00  0.00    +0.000 A 
ATOM     12  C   UNL     1       5.090   3.615  16.153  0.00  0.00    +0.000 A 
ATOM     13  C   UNL     1       5.492   4.286  17.329  0.00  0.00    +0.000 A 
ATOM     14  H   UNL     1       7.014   6.787  18.645  0.00  0.00    +0.000 HD
ENDBRANCH   2   5
BRANCH   1  15
ATOM     15  C   UNL     1       2.217   2.180  19.827  0.00  0.00    +0.000 C 
BRANCH  15  16
ATOM     16  C   UNL     1       1.151   2.874  20.670  0.00  0.00    +0.000 C 
BRANCH  16  17
ATOM     17  C   UNL     1       0.923   4.308  20.190  0.00  0.00    +0.000 C 
BRANCH  17  18
ATOM     18  C   UNL     1       1.916   5.272  20.835  0.00  0.00    +0.000 C 
BRANCH  18  19
ATOM     19  C   UNL     1       2.011   6.574  20.044  0.00  0.00    +0.000 C 
BRANCH  19  20
ATOM     20  C   UNL     1       2.256   6.292  18.566  0.00  0.00    +0.000 C 
BRANCH  20  21
ATOM     21  C   UNL     1       3.044   7.425  17.920  0.00  0.00    +0.000 C 
BRANCH  21  22
ATOM     22  C   UNL     1       2.504   8.780  18.367  0.00  0.00    +0.000 C 
BRANCH  22  23
ATOM     23  C   UNL     1       1.249   9.147  17.583  0.00  0.00    +0.000 C 
BRANCH  23  24
ATOM     24  C   UNL     1       0.264   9.904  18.468  0.00  0.00    +0.000 C 
BRANCH  24  26
ATOM     25  C   UNL     1      -0.129   9.550  20.919  0.00  0.00    +0.000 C 
ATOM     26  C   UNL     1       0.827  10.097  19.872  0.00  0.00    +0.000 C 
ENDBRANCH  24  26
ENDBRANCH  23  24
ENDBRANCH  22  23
ENDBRANCH  21  22
ENDBRANCH  20  21
ENDBRANCH  19  20
ENDBRANCH  18  19
ENDBRANCH  17  18
ENDBRANCH  16  17
ENDBRANCH  15  16
ENDBRANCH   1  15
TORSDOF 12
ENDMDL
MODEL 4
REMARK VINA RESULT:      -6.7      5.193      8.210
REMARK  Name = 
REMARK  13 active torsions:
REMARK  status: ('A' for Active; 'I' for Inactive)
REMARK    1  A    between atoms: C_1  and  C_2
REMARK    2  A    between atoms: C_2  and  C_3
REMARK    3  A    between atoms: C_3  and  C_4
REMARK    4  A    between atoms: C_4  and  C_5
REMARK    5  A    between atoms: C_5  and  C_6
REMARK    6  A    between atoms: C_6  and  C_7
REMARK    7  A    between atoms: C_7  and  C_8
REMARK    8  A    between atoms: C_8  and  C_9
REMARK    9  A    between atoms: C_9  and  C_10
REMARK   10  A    between atoms: C_10  and  C_11
REMARK   11  A    between atoms: C_11  and  C_12
REMARK   12  A    between atoms: C_12  and  N_13
REMARK   13  A    between atoms: C_14  and  C_16
REMARK                            x       y       z     vdW  Elec       q    Type
REMARK                         _______ _______ _______ _____ _____    ______ ____
ROOT
ATOM      1  N   UNL     1       6.310   4.915  17.511  0.00  0.00    +0.000 N 
ATOM      2  C   UNL     1       5.455   4.737  18.574  0.00  0.00    +0.000 C 
ATOM      3  O   UNL     1       5.703   5.169  19.698  0.00  0.00    +0.000 OA
ATOM      4  H   UNL     1       5.966   4.729  16.579  0.00  0.00    +0.000 HD
ENDROOT
BRANCH   2   5
ATOM      5  C   UNL     1       4.212   4.033  18.289  0.00  0.00    +0.000 A 
ATOM      6  C   UNL     1       3.873   3.612  17.014  0.00  0.00    +0.000 A 
ATOM      7  N   UNL     1       2.628   3.055  17.050  0.00  0.00    +0.000 N 
ATOM      8  C   UNL     1       2.117   3.132  18.324  0.00  0.00    +0.000 A 
ATOM      9  C   UNL     1       0.853   2.755  18.795  0.00  0.00    +0.000 A 
ATOM     10  C   UNL     1       0.572   2.978  20.143  0.00  0.00    +0.000 A 
ATOM     11  C   UNL     1       1.524   3.544  20.988  0.00  0.00    +0.000 A 
ATOM     12  C   UNL     1       2.783   3.917  20.499  0.00  0.00    +0.000 A 
ATOM     13  C   UNL     1       3.095   3.714  19.136  0.00  0.00    +0.000 A 
ATOM     14  H   UNL     1       2.130   2.687  16.252  0.00  0.00    +0.000 HD
ENDBRANCH   2   5
BRANCH   1  15
ATOM     15  C   UNL     1       7.571   5.609  17.682  0.00  0.00    +0.000 C 
BRANCH  15  16
ATOM     16  C   UNL     1       7.430   7.118  17.500  0.00  0.00    +0.000 C 
BRANCH  16  17
ATOM     17  C   UNL     1       8.300   7.874  18.507  0.00  0.00    +0.000 C 
BRANCH  17  18
ATOM     18  C   UNL     1       8.396   9.355  18.153  0.00  0.00    +0.000 C 
BRANCH  18  19
ATOM     19  C   UNL     1       9.275  10.103  19.152  0.00  0.00    +0.000 C 
BRANCH  19  20
ATOM     20  C   UNL     1      10.037  11.231  18.463  0.00  0.00    +0.000 C 
BRANCH  20  21
ATOM     21  C   UNL     1      11.168  11.741  19.349  0.00  0.00    +0.000 C 
BRANCH  21  22
ATOM     22  C   UNL     1      11.070  13.252  19.532  0.00  0.00    +0.000 C 
BRANCH  22  23
ATOM     23  C   UNL     1       9.738  13.635  20.166  0.00  0.00    +0.000 C 
BRANCH  23  24
ATOM     24  C   UNL     1       9.826  13.563  21.687  0.00  0.00    +0.000 C 
BRANCH  24  26
ATOM     25  C   UNL     1       8.211  11.773  22.376  0.00  0.00    +0.000 C 
ATOM     26  C   UNL     1       8.462  13.269  22.301  0.00  0.00    +0.000 C 
ENDBRANCH  24  26
ENDBRANCH  23  24
ENDBRANCH  22  23
ENDBRANCH  21  22
ENDBRANCH  20  21
ENDBRANCH  19  20
ENDBRANCH  18  19
ENDBRANCH  17  18
ENDBRANCH  16  17
ENDBRANCH  15  16
ENDBRANCH   1  15
TORSDOF 12
ENDMDL
MODEL 5
REMARK VINA RESULT:      -6.7      0.986      1.686
REMARK  Name = 
REMARK  13 active torsions:
REMARK  status: ('A' for Active; 'I' for Inactive)
REMARK    1  A    between atoms: C_1  and  C_2
REMARK    2  A    between atoms: C_2  and  C_3
REMARK    3  A    between atoms: C_3  and  C_4
REMARK    4  A    between atoms: C_4  and  C_5
REMARK    5  A    between atoms: C_5  and  C_6
REMARK    6  A    between atoms: C_6  and  C_7
REMARK    7  A    between atoms: C_7  and  C_8
REMARK    8  A    between atoms: C_8  and  C_9
REMARK    9  A    between atoms: C_9  and  C_10
REMARK   10  A    between atoms: C_10  and  C_11
REMARK   11  A    between atoms: C_11  and  C_12
REMARK   12  A    between atoms: C_12  and  N_13
REMARK   13  A    between atoms: C_14  and  C_16
REMARK                            x       y       z     vdW  Elec       q    Type
REMARK                         _______ _______ _______ _____ _____    ______ ____
ROOT
ATOM      1  N   UNL     1       4.585   2.567  17.392  0.00  0.00    +0.000 N 
ATOM      2  C   UNL     1       4.387   3.721  16.670  0.00  0.00    +0.000 C 
ATOM      3  O   UNL     1       3.300   4.292  16.627  0.00  0.00    +0.000 OA
ATOM      4  H   UNL     1       5.533   2.261  17.563  0.00  0.00    +0.000 HD
ENDROOT
BRANCH   2   5
ATOM      5  C   UNL     1       5.554   4.256  15.980  0.00  0.00    +0.000 A 
ATOM      6  C   UNL     1       6.438   5.131  16.587  0.00  0.00    +0.000 A 
ATOM      7  N   UNL     1       7.378   5.511  15.674  0.00  0.00    +0.000 N 
ATOM      8  C   UNL     1       7.110   4.932  14.456  0.00  0.00    +0.000 A 
ATOM      9  C   UNL     1       7.766   5.104  13.231  0.00  0.00    +0.000 A 
ATOM     10  C   UNL     1       7.262   4.418  12.126  0.00  0.00    +0.000 A 
ATOM     11  C   UNL     1       6.154   3.584  12.247  0.00  0.00    +0.000 A 
ATOM     12  C   UNL     1       5.509   3.425  13.480  0.00  0.00    +0.000 A 
ATOM     13  C   UNL     1       5.988   4.114  14.617  0.00  0.00    +0.000 A 
ATOM     14  H   UNL     1       8.130   6.163  15.849  0.00  0.00    +0.000 HD
ENDBRANCH   2   5
BRANCH   1  15
ATOM     15  C   UNL     1       3.494   1.954  18.124  0.00  0.00    +0.000 C 
BRANCH  15  16
ATOM     16  C   UNL     1       3.556   2.257  19.618  0.00  0.00    +0.000 C 
BRANCH  16  17
ATOM     17  C   UNL     1       2.165   2.573  20.170  0.00  0.00    +0.000 C 
BRANCH  17  18
ATOM     18  C   UNL     1       2.249   3.487  21.389  0.00  0.00    +0.000 C 
BRANCH  18  19
ATOM     19  C   UNL     1       1.789   4.903  21.047  0.00  0.00    +0.000 C 
BRANCH  19  20
ATOM     20  C   UNL     1       1.963   5.183  19.558  0.00  0.00    +0.000 C 
BRANCH  20  21
ATOM     21  C   UNL     1       2.963   6.311  19.332  0.00  0.00    +0.000 C 
BRANCH  21  22
ATOM     22  C   UNL     1       2.265   7.667  19.378  0.00  0.00    +0.000 C 
BRANCH  22  23
ATOM     23  C   UNL     1       2.140   8.258  17.979  0.00  0.00    +0.000 C 
BRANCH  23  24
ATOM     24  C   UNL     1       1.129   9.400  17.966  0.00  0.00    +0.000 C 
BRANCH  24  26
ATOM     25  C   UNL     1      -0.600  10.562  19.363  0.00  0.00    +0.000 C 
ATOM     26  C   UNL     1       0.689   9.758  19.382  0.00  0.00    +0.000 C 
ENDBRANCH  24  26
ENDBRANCH  23  24
ENDBRANCH  22  23
ENDBRANCH  21  22
ENDBRANCH  20  21
ENDBRANCH  19  20
ENDBRANCH  18  19
ENDBRANCH  17  18
ENDBRANCH  16  17
ENDBRANCH  15  16
ENDBRANCH   1  15
TORSDOF 12
ENDMDL
MODEL 6
REMARK VINA RESULT:      -6.7      5.722      8.637
REMARK  Name = 
REMARK  13 active torsions:
REMARK  status: ('A' for Active; 'I' for Inactive)
REMARK    1  A    between atoms: C_1  and  C_2
REMARK    2  A    between atoms: C_2  and  C_3
REMARK    3  A    between atoms: C_3  and  C_4
REMARK    4  A    between atoms: C_4  and  C_5
REMARK    5  A    between atoms: C_5  and  C_6
REMARK    6  A    between atoms: C_6  and  C_7
REMARK    7  A    between atoms: C_7  and  C_8
REMARK    8  A    between atoms: C_8  and  C_9
REMARK    9  A    between atoms: C_9  and  C_10
REMARK   10  A    between atoms: C_10  and  C_11
REMARK   11  A    between atoms: C_11  and  C_12
REMARK   12  A    between atoms: C_12  and  N_13
REMARK   13  A    between atoms: C_14  and  C_16
REMARK                            x       y       z     vdW  Elec       q    Type
REMARK                         _______ _______ _______ _____ _____    ______ ____
ROOT
ATOM      1  N   UNL     1       6.320   5.849  17.399  0.00  0.00    +0.000 N 
ATOM      2  C   UNL     1       4.949   5.959  17.431  0.00  0.00    +0.000 C 
ATOM      3  O   UNL     1       4.362   6.982  17.080  0.00  0.00    +0.000 OA
ATOM      4  H   UNL     1       6.733   4.931  17.494  0.00  0.00    +0.000 HD
ENDROOT
BRANCH   2   5
ATOM      5  C   UNL     1       4.219   4.779  17.872  0.00  0.00    +0.000 A 
ATOM      6  C   UNL     1       4.359   3.546  17.257  0.00  0.00    +0.000 A 
ATOM      7  N   UNL     1       3.499   2.662  17.840  0.00  0.00    +0.000 N 
ATOM      8  C   UNL     1       2.760   3.297  18.810  0.00  0.00    +0.000 A 
ATOM      9  C   UNL     1       1.718   2.795  19.599  0.00  0.00    +0.000 A 
ATOM     10  C   UNL     1       1.104   3.672  20.493  0.00  0.00    +0.000 A 
ATOM     11  C   UNL     1       1.525   4.995  20.601  0.00  0.00    +0.000 A 
ATOM     12  C   UNL     1       2.568   5.480  19.802  0.00  0.00    +0.000 A 
ATOM     13  C   UNL     1       3.204   4.621  18.879  0.00  0.00    +0.000 A 
ATOM     14  H   UNL     1       3.381   1.697  17.567  0.00  0.00    +0.000 HD
ENDBRANCH   2   5
BRANCH   1  15
ATOM     15  C   UNL     1       7.144   6.961  16.968  0.00  0.00    +0.000 C 
BRANCH  15  16
ATOM     16  C   UNL     1       7.869   7.630  18.132  0.00  0.00    +0.000 C 
BRANCH  16  17
ATOM     17  C   UNL     1       8.092   9.118  17.855  0.00  0.00    +0.000 C 
BRANCH  17  18
ATOM     18  C   UNL     1       9.025   9.740  18.891  0.00  0.00    +0.000 C 
BRANCH  18  19
ATOM     19  C   UNL     1       9.551  11.092  18.415  0.00  0.00    +0.000 C 
BRANCH  19  20
ATOM     20  C   UNL     1      10.987  11.308  18.882  0.00  0.00    +0.000 C 
BRANCH  20  21
ATOM     21  C   UNL     1      11.017  11.857  20.304  0.00  0.00    +0.000 C 
BRANCH  21  22
ATOM     22  C   UNL     1       9.983  12.965  20.476  0.00  0.00    +0.000 C 
BRANCH  22  23
ATOM     23  C   UNL     1      10.639  14.337  20.375  0.00  0.00    +0.000 C 
BRANCH  23  24
ATOM     24  C   UNL     1       9.923  15.201  19.342  0.00  0.00    +0.000 C 
BRANCH  24  26
ATOM     25  C   UNL     1      11.621  15.221  17.497  0.00  0.00    +0.000 C 
ATOM     26  C   UNL     1      10.245  14.740  17.925  0.00  0.00    +0.000 C 
ENDBRANCH  24  26
ENDBRANCH  23  24
ENDBRANCH  22  23
ENDBRANCH  21  22
ENDBRANCH  20  21
ENDBRANCH  19  20
ENDBRANCH  18  19
ENDBRANCH  17  18
ENDBRANCH  16  17
ENDBRANCH  15  16
ENDBRANCH   1  15
TORSDOF 12
ENDMDL
MODEL 7
REMARK VINA RESULT:      -6.7      3.676      7.138
REMARK  Name = 
REMARK  13 active torsions:
REMARK  status: ('A' for Active; 'I' for Inactive)
REMARK    1  A    between atoms: C_1  and  C_2
REMARK    2  A    between atoms: C_2  and  C_3
REMARK    3  A    between atoms: C_3  and  C_4
REMARK    4  A    between atoms: C_4  and  C_5
REMARK    5  A    between atoms: C_5  and  C_6
REMARK    6  A    between atoms: C_6  and  C_7
REMARK    7  A    between atoms: C_7  and  C_8
REMARK    8  A    between atoms: C_8  and  C_9
REMARK    9  A    between atoms: C_9  and  C_10
REMARK   10  A    between atoms: C_10  and  C_11
REMARK   11  A    between atoms: C_11  and  C_12
REMARK   12  A    between atoms: C_12  and  N_13
REMARK   13  A    between atoms: C_14  and  C_16
REMARK                            x       y       z     vdW  Elec       q    Type
REMARK                         _______ _______ _______ _____ _____    ______ ____
ROOT
ATOM      1  N   UNL     1       4.191   5.814  16.950  0.00  0.00    +0.000 N 
ATOM      2  C   UNL     1       3.475   6.713  17.706  0.00  0.00    +0.000 C 
ATOM      3  O   UNL     1       3.455   7.916  17.455  0.00  0.00    +0.000 OA
ATOM      4  H   UNL     1       4.005   4.827  17.070  0.00  0.00    +0.000 HD
ENDROOT
BRANCH   2   5
ATOM      5  C   UNL     1       2.705   6.156  18.811  0.00  0.00    +0.000 A 
ATOM      6  C   UNL     1       2.374   6.897  19.933  0.00  0.00    +0.000 A 
ATOM      7  N   UNL     1       1.721   6.089  20.817  0.00  0.00    +0.000 N 
ATOM      8  C   UNL     1       1.647   4.810  20.318  0.00  0.00    +0.000 A 
ATOM      9  C   UNL     1       1.133   3.654  20.918  0.00  0.00    +0.000 A 
ATOM     10  C   UNL     1       1.214   2.462  20.199  0.00  0.00    +0.000 A 
ATOM     11  C   UNL     1       1.774   2.432  18.925  0.00  0.00    +0.000 A 
ATOM     12  C   UNL     1       2.285   3.598  18.340  0.00  0.00    +0.000 A 
ATOM     13  C   UNL     1       2.228   4.820  19.046  0.00  0.00    +0.000 A 
ATOM     14  H   UNL     1       1.388   6.371  21.728  0.00  0.00    +0.000 HD
ENDBRANCH   2   5
BRANCH   1  15
ATOM     15  C   UNL     1       4.984   6.260  15.823  0.00  0.00    +0.000 C 
BRANCH  15  16
ATOM     16  C   UNL     1       5.842   5.140  15.239  0.00  0.00    +0.000 C 
BRANCH  16  17
ATOM     17  C   UNL     1       7.283   5.235  15.744  0.00  0.00    +0.000 C 
BRANCH  17  18
ATOM     18  C   UNL     1       7.456   4.489  17.064  0.00  0.00    +0.000 C 
BRANCH  18  19
ATOM     19  C   UNL     1       7.557   5.462  18.236  0.00  0.00    +0.000 C 
BRANCH  19  20
ATOM     20  C   UNL     1       7.508   6.905  17.747  0.00  0.00    +0.000 C 
BRANCH  20  21
ATOM     21  C   UNL     1       8.451   7.785  18.558  0.00  0.00    +0.000 C 
BRANCH  21  22
ATOM     22  C   UNL     1       8.388   9.231  18.076  0.00  0.00    +0.000 C 
BRANCH  22  23
ATOM     23  C   UNL     1       9.180  10.145  19.004  0.00  0.00    +0.000 C 
BRANCH  23  24
ATOM     24  C   UNL     1       9.875  11.246  18.210  0.00  0.00    +0.000 C 
BRANCH  24  26
ATOM     25  C   UNL     1       9.962  13.706  17.731  0.00  0.00    +0.000 C 
ATOM     26  C   UNL     1       9.222  12.600  18.463  0.00  0.00    +0.000 C 
ENDBRANCH  24  26
ENDBRANCH  23  24
ENDBRANCH  22  23
ENDBRANCH  21  22
ENDBRANCH  20  21
ENDBRANCH  19  20
ENDBRANCH  18  19
ENDBRANCH  17  18
ENDBRANCH  16  17
ENDBRANCH  15  16
ENDBRANCH   1  15
TORSDOF 12
ENDMDL
MODEL 8
REMARK VINA RESULT:      -6.6      1.521      3.197
REMARK  Name = 
REMARK  13 active torsions:
REMARK  status: ('A' for Active; 'I' for Inactive)
REMARK    1  A    between atoms: C_1  and  C_2
REMARK    2  A    between atoms: C_2  and  C_3
REMARK    3  A    between atoms: C_3  and  C_4
REMARK    4  A    between atoms: C_4  and  C_5
REMARK    5  A    between atoms: C_5  and  C_6
REMARK    6  A    between atoms: C_6  and  C_7
REMARK    7  A    between atoms: C_7  and  C_8
REMARK    8  A    between atoms: C_8  and  C_9
REMARK    9  A    between atoms: C_9  and  C_10
REMARK   10  A    between atoms: C_10  and  C_11
REMARK   11  A    between atoms: C_11  and  C_12
REMARK   12  A    between atoms: C_12  and  N_13
REMARK   13  A    between atoms: C_14  and  C_16
REMARK                            x       y       z     vdW  Elec       q    Type
REMARK                         _______ _______ _______ _____ _____    ______ ____
ROOT
ATOM      1  N   UNL     1       3.688   3.778  16.620  0.00  0.00    +0.000 N 
ATOM      2  C   UNL     1       4.947   4.012  17.124  0.00  0.00    +0.000 C 
ATOM      3  O   UNL     1       5.234   3.805  18.301  0.00  0.00    +0.000 OA
ATOM      4  H   UNL     1       3.565   3.763  15.617  0.00  0.00    +0.000 HD
ENDROOT
BRANCH   2   5
ATOM      5  C   UNL     1       5.942   4.490  16.173  0.00  0.00    +0.000 A 
ATOM      6  C   UNL     1       6.876   5.458  16.500  0.00  0.00    +0.000 A 
ATOM      7  N   UNL     1       7.617   5.748  15.392  0.00  0.00    +0.000 N 
ATOM      8  C   UNL     1       7.163   5.016  14.320  0.00  0.00    +0.000 A 
ATOM      9  C   UNL     1       7.579   5.053  12.983  0.00  0.00    +0.000 A 
ATOM     10  C   UNL     1       6.920   4.221  12.078  0.00  0.00    +0.000 A 
ATOM     11  C   UNL     1       5.895   3.378  12.497  0.00  0.00    +0.000 A 
ATOM     12  C   UNL     1       5.491   3.355  13.839  0.00  0.00    +0.000 A 
ATOM     13  C   UNL     1       6.131   4.192  14.779  0.00  0.00    +0.000 A 
ATOM     14  H   UNL     1       8.354   6.437  15.347  0.00  0.00    +0.000 HD
ENDBRANCH   2   5
BRANCH   1  15
ATOM     15  C   UNL     1       2.625   3.293  17.477  0.00  0.00    +0.000 C 
BRANCH  15  16
ATOM     16  C   UNL     1       1.695   4.413  17.937  0.00  0.00    +0.000 C 
BRANCH  16  17
ATOM     17  C   UNL     1       2.080   4.904  19.334  0.00  0.00    +0.000 C 
BRANCH  17  18
ATOM     18  C   UNL     1       2.450   6.384  19.317  0.00  0.00    +0.000 C 
BRANCH  18  19
ATOM     19  C   UNL     1       2.934   6.814  17.935  0.00  0.00    +0.000 C 
BRANCH  19  20
ATOM     20  C   UNL     1       2.928   8.334  17.808  0.00  0.00    +0.000 C 
BRANCH  20  21
ATOM     21  C   UNL     1       1.671   8.925  18.436  0.00  0.00    +0.000 C 
BRANCH  21  22
ATOM     22  C   UNL     1       1.610  10.432  18.205  0.00  0.00    +0.000 C 
BRANCH  22  23
ATOM     23  C   UNL     1       0.512  11.065  19.052  0.00  0.00    +0.000 C 
BRANCH  23  24
ATOM     24  C   UNL     1      -0.684  10.126  19.172  0.00  0.00    +0.000 C 
BRANCH  24  26
ATOM     25  C   UNL     1      -1.954   9.861  17.025  0.00  0.00    +0.000 C 
ATOM     26  C   UNL     1      -1.857  10.625  18.335  0.00  0.00    +0.000 C 
ENDBRANCH  24  26
ENDBRANCH  23  24
ENDBRANCH  22  23
ENDBRANCH  21  22
ENDBRANCH  20  21
ENDBRANCH  19  20
ENDBRANCH  18  19
ENDBRANCH  17  18
ENDBRANCH  16  17
ENDBRANCH  15  16
ENDBRANCH   1  15
TORSDOF 12
ENDMDL
MODEL 9
REMARK VINA RESULT:      -6.6      3.076      7.847
REMARK  Name = 
REMARK  13 active torsions:
REMARK  status: ('A' for Active; 'I' for Inactive)
REMARK    1  A    between atoms: C_1  and  C_2
REMARK    2  A    between atoms: C_2  and  C_3
REMARK    3  A    between atoms: C_3  and  C_4
REMARK    4  A    between atoms: C_4  and  C_5
REMARK    5  A    between atoms: C_5  and  C_6
REMARK    6  A    between atoms: C_6  and  C_7
REMARK    7  A    between atoms: C_7  and  C_8
REMARK    8  A    between atoms: C_8  and  C_9
REMARK    9  A    between atoms: C_9  and  C_10
REMARK   10  A    between atoms: C_10  and  C_11
REMARK   11  A    between atoms: C_11  and  C_12
REMARK   12  A    between atoms: C_12  and  N_13
REMARK   13  A    between atoms: C_14  and  C_16
REMARK                            x       y       z     vdW  Elec       q    Type
REMARK                         _______ _______ _______ _____ _____    ______ ____
ROOT
ATOM      1  N   UNL     1       1.561   6.542  20.987  0.00  0.00    +0.000 N 
ATOM      2  C   UNL     1       1.714   7.678  20.225  0.00  0.00    +0.000 C 
ATOM      3  O   UNL     1       2.338   7.680  19.166  0.00  0.00    +0.000 OA
ATOM      4  H   UNL     1       0.872   6.548  21.728  0.00  0.00    +0.000 HD
ENDROOT
BRANCH   2   5
ATOM      5  C   UNL     1       1.063   8.881  20.725  0.00  0.00    +0.000 A 
ATOM      6  C   UNL     1       1.034   9.205  22.071  0.00  0.00    +0.000 A 
ATOM      7  N   UNL     1       0.295  10.340  22.236  0.00  0.00    +0.000 N 
ATOM      8  C   UNL     1      -0.201  10.756  21.023  0.00  0.00    +0.000 A 
ATOM      9  C   UNL     1      -1.062  11.823  20.738  0.00  0.00    +0.000 A 
ATOM     10  C   UNL     1      -1.446  12.007  19.410  0.00  0.00    +0.000 A 
ATOM     11  C   UNL     1      -0.975  11.165  18.406  0.00  0.00    +0.000 A 
ATOM     12  C   UNL     1      -0.114  10.102  18.710  0.00  0.00    +0.000 A 
ATOM     13  C   UNL     1       0.285   9.881  20.047  0.00  0.00    +0.000 A 
ATOM     14  H   UNL     1       0.095  10.782  23.122  0.00  0.00    +0.000 HD
ENDBRANCH   2   5
BRANCH   1  15
ATOM     15  C   UNL     1       2.160   5.288  20.578  0.00  0.00    +0.000 C 
BRANCH  15  16
ATOM     16  C   UNL     1       1.122   4.186  20.384  0.00  0.00    +0.000 C 
BRANCH  16  17
ATOM     17  C   UNL     1       1.698   2.820  20.760  0.00  0.00    +0.000 C 
BRANCH  17  18
ATOM     18  C   UNL     1       3.061   2.597  20.110  0.00  0.00    +0.000 C 
BRANCH  18  19
ATOM     19  C   UNL     1       2.930   1.792  18.820  0.00  0.00    +0.000 C 
BRANCH  19  20
ATOM     20  C   UNL     1       3.681   2.471  17.680  0.00  0.00    +0.000 C 
BRANCH  20  21
ATOM     21  C   UNL     1       3.036   3.806  17.325  0.00  0.00    +0.000 C 
BRANCH  21  22
ATOM     22  C   UNL     1       4.082   4.914  17.274  0.00  0.00    +0.000 C 
BRANCH  22  23
ATOM     23  C   UNL     1       5.455   4.379  17.664  0.00  0.00    +0.000 C 
BRANCH  23  24
ATOM     24  C   UNL     1       6.460   4.604  16.539  0.00  0.00    +0.000 C 
BRANCH  24  26
ATOM     25  C   UNL     1       5.991   4.018  14.146  0.00  0.00    +0.000 C 
ATOM     26  C   UNL     1       5.757   5.030  15.255  0.00  0.00    +0.000 C 
ENDBRANCH  24  26
ENDBRANCH  23  24
ENDBRANCH  22  23
ENDBRANCH  21  22
ENDBRANCH  20  21
ENDBRANCH  19  20
ENDBRANCH  18  19
ENDBRANCH  17  18
ENDBRANCH  16  17
ENDBRANCH  15  16
ENDBRANCH   1  15
TORSDOF 12
ENDMDL
