MODEL 1
REMARK VINA RESULT:      -6.9      0.000      0.000
REMARK  Name = 
REMARK  10 active torsions:
REMARK  status: ('A' for Active; 'I' for Inactive)
REMARK    1  A    between atoms: C_1  and  O_2
REMARK    2  A    between atoms: O_2  and  C_3
REMARK    3  A    between atoms: C_8  and  C_9
REMARK    4  A    between atoms: C_9  and  N_10
REMARK    5  A    between atoms: N_10  and  C_11
REMARK    6  A    between atoms: C_11  and  C_12
REMARK    7  A    between atoms: C_12  and  S_13
REMARK    8  A    between atoms: S_13  and  N_16
REMARK    9  A    between atoms: N_16  and  C_17
REMARK   10  A    between atoms: C_17  and  C_18
REMARK                            x       y       z     vdW  Elec       q    Type
REMARK                         _______ _______ _______ _____ _____    ______ ____
ROOT
ATOM      1  C   UNL     1       6.102   4.961  16.196  0.00  0.00    +0.000 C 
ENDROOT
BRANCH   1   2
ATOM      2  S   UNL     1       6.016   6.207  17.479  0.00  0.00    +0.000 S 
ATOM      3  O   UNL     1       5.972   5.518  18.750  0.00  0.00    +0.000 OA
ATOM      4  O   UNL     1       7.012   7.218  17.204  0.00  0.00    +0.000 OA
BRANCH   2   5
ATOM      5  N   UNL     1       4.507   6.903  17.214  0.00  0.00    +0.000 NA
ATOM      6  H   UNL     1       4.270   7.101  16.243  0.00  0.00    +0.000 HD
BRANCH   5   7
ATOM      7  C   UNL     1       3.387   6.341  17.985  0.00  0.00    +0.000 C 
BRANCH   7   8
ATOM      8  C   UNL     1       2.527   7.426  18.591  0.00  0.00    +0.000 A 
ATOM      9  C   UNL     1       2.054   8.483  17.802  0.00  0.00    +0.000 A 
ATOM     10  C   UNL     1       1.238   9.473  18.353  0.00  0.00    +0.000 A 
ATOM     11  C   UNL     1       0.887   9.416  19.700  0.00  0.00    +0.000 A 
ATOM     12  C   UNL     1       1.348   8.369  20.496  0.00  0.00    +0.000 A 
ATOM     13  C   UNL     1       2.164   7.379  19.946  0.00  0.00    +0.000 A 
ENDBRANCH   7   8
ENDBRANCH   5   7
ENDBRANCH   2   5
ENDBRANCH   1   2
BRANCH   1  14
ATOM     14  C   UNL     1       4.938   3.979  16.280  0.00  0.00    +0.000 C 
BRANCH  14  15
ATOM     15  N   UNL     1       4.916   3.133  17.482  0.00  0.00    +0.000 NA
ATOM     16  H   UNL     1       5.025   3.699  18.325  0.00  0.00    +0.000 HD
BRANCH  15  17
ATOM     17  C   UNL     1       3.700   2.322  17.607  0.00  0.00    +0.000 C 
BRANCH  17  23
ATOM     18  C   UNL     1       3.524   2.608  20.149  0.00  0.00    +0.000 A 
ATOM     19  C   UNL     1       2.758   2.935  21.278  0.00  0.00    +0.000 A 
ATOM     20  C   UNL     1       1.423   3.322  21.144  0.00  0.00    +0.000 A 
ATOM     21  C   UNL     1       0.840   3.374  19.888  0.00  0.00    +0.000 A 
ATOM     22  C   UNL     1       1.581   3.028  18.760  0.00  0.00    +0.000 A 
ATOM     23  C   UNL     1       2.928   2.636  18.868  0.00  0.00    +0.000 A 
BRANCH  18  25
ATOM     24  C   UNL     1       5.157   1.234  21.194  0.00  0.00    +0.000 C 
ATOM     25  O   UNL     1       4.841   2.231  20.224  0.00  0.00    +0.000 OA
ENDBRANCH  18  25
ENDBRANCH  17  23
ENDBRANCH  15  17
ENDBRANCH  14  15
ENDBRANCH   1  14
TORSDOF 9
ENDMDL
MODEL 2
REMARK VINA RESULT:      -6.8      1.820      5.343
REMARK  Name = 
REMARK  10 active torsions:
REMARK  status: ('A' for Active; 'I' for Inactive)
REMARK    1  A    between atoms: C_1  and  O_2
REMARK    2  A    between atoms: O_2  and  C_3
REMARK    3  A    between atoms: C_8  and  C_9
REMARK    4  A    between atoms: C_9  and  N_10
REMARK    5  A    between atoms: N_10  and  C_11
REMARK    6  A    between atoms: C_11  and  C_12
REMARK    7  A    between atoms: C_12  and  S_13
REMARK    8  A    between atoms: S_13  and  N_16
REMARK    9  A    between atoms: N_16  and  C_17
REMARK   10  A    between atoms: C_17  and  C_18
REMARK                            x       y       z     vdW  Elec       q    Type
REMARK                         _______ _______ _______ _____ _____    ______ ____
ROOT
ATOM      1  C   UNL     1       6.246   6.597  17.575  0.00  0.00    +0.000 C 
ENDROOT
BRANCH   1   2
ATOM      2  S   UNL     1       6.800   5.053  18.292  0.00  0.00    +0.000 S 
ATOM      3  O   UNL     1       7.817   4.511  17.417  0.00  0.00    +0.000 OA
ATOM      4  O   UNL     1       7.050   5.264  19.699  0.00  0.00    +0.000 OA
BRANCH   2   5
ATOM      5  N   UNL     1       5.434   4.078  18.164  0.00  0.00    +0.000 NA
ATOM      6  H   UNL     1       5.402   3.456  17.357  0.00  0.00    +0.000 HD
BRANCH   5   7
ATOM      7  C   UNL     1       4.969   3.443  19.407  0.00  0.00    +0.000 C 
BRANCH   7   8
ATOM      8  C   UNL     1       3.461   3.353  19.456  0.00  0.00    +0.000 A 
ATOM      9  C   UNL     1       2.796   3.224  20.683  0.00  0.00    +0.000 A 
ATOM     10  C   UNL     1       1.402   3.166  20.734  0.00  0.00    +0.000 A 
ATOM     11  C   UNL     1       0.658   3.236  19.558  0.00  0.00    +0.000 A 
ATOM     12  C   UNL     1       1.306   3.366  18.331  0.00  0.00    +0.000 A 
ATOM     13  C   UNL     1       2.700   3.424  18.279  0.00  0.00    +0.000 A 
ENDBRANCH   7   8
ENDBRANCH   5   7
ENDBRANCH   2   5
ENDBRANCH   1   2
BRANCH   1  14
ATOM     14  C   UNL     1       4.980   6.416  16.744  0.00  0.00    +0.000 C 
BRANCH  14  15
ATOM     15  N   UNL     1       3.722   6.428  17.505  0.00  0.00    +0.000 NA
ATOM     16  H   UNL     1       3.866   6.062  18.447  0.00  0.00    +0.000 HD
BRANCH  15  17
ATOM     17  C   UNL     1       3.105   7.756  17.598  0.00  0.00    +0.000 C 
BRANCH  17  23
ATOM     18  C   UNL     1       1.598   9.115  19.165  0.00  0.00    +0.000 A 
ATOM     19  C   UNL     1       0.860   9.204  20.355  0.00  0.00    +0.000 A 
ATOM     20  C   UNL     1       0.795   8.122  21.234  0.00  0.00    +0.000 A 
ATOM     21  C   UNL     1       1.474   6.950  20.941  0.00  0.00    +0.000 A 
ATOM     22  C   UNL     1       2.232   6.855  19.776  0.00  0.00    +0.000 A 
ATOM     23  C   UNL     1       2.312   7.931  18.873  0.00  0.00    +0.000 A 
BRANCH  18  25
ATOM     24  C   UNL     1       1.104  11.384  18.661  0.00  0.00    +0.000 C 
ATOM     25  O   UNL     1       1.687  10.145  18.262  0.00  0.00    +0.000 OA
ENDBRANCH  18  25
ENDBRANCH  17  23
ENDBRANCH  15  17
ENDBRANCH  14  15
ENDBRANCH   1  14
TORSDOF 9
ENDMDL
MODEL 3
REMARK VINA RESULT:      -6.8      2.274      4.748
REMARK  Name = 
REMARK  10 active torsions:
REMARK  status: ('A' for Active; 'I' for Inactive)
REMARK    1  A    between atoms: C_1  and  O_2
REMARK    2  A    between atoms: O_2  and  C_3
REMARK    3  A    between atoms: C_8  and  C_9
REMARK    4  A    between atoms: C_9  and  N_10
REMARK    5  A    between atoms: N_10  and  C_11
REMARK    6  A    between atoms: C_11  and  C_12
REMARK    7  A    between atoms: C_12  and  S_13
REMARK    8  A    between atoms: S_13  and  N_16
REMARK    9  A    between atoms: N_16  and  C_17
REMARK   10  A    between atoms: C_17  and  C_18
REMARK                            x       y       z     vdW  Elec       q    Type
REMARK                         _______ _______ _______ _____ _____    ______ ____
ROOT
ATOM      1  C   UNL     1       2.742   2.741  19.839  0.00  0.00    +0.000 C 
ENDROOT
BRANCH   1   2
ATOM      2  S   UNL     1       1.919   3.889  20.939  0.00  0.00    +0.000 S 
ATOM      3  O   UNL     1       0.615   4.168  20.377  0.00  0.00    +0.000 OA
ATOM      4  O   UNL     1       2.068   3.413  22.295  0.00  0.00    +0.000 OA
BRANCH   2   5
ATOM      5  N   UNL     1       2.856   5.279  20.786  0.00  0.00    +0.000 NA
ATOM      6  H   UNL     1       3.764   5.258  21.248  0.00  0.00    +0.000 HD
BRANCH   5   7
ATOM      7  C   UNL     1       2.896   5.894  19.451  0.00  0.00    +0.000 C 
BRANCH   7   8
ATOM      8  C   UNL     1       2.209   7.240  19.437  0.00  0.00    +0.000 A 
ATOM      9  C   UNL     1       1.607   7.744  20.598  0.00  0.00    +0.000 A 
ATOM     10  C   UNL     1       0.994   8.998  20.594  0.00  0.00    +0.000 A 
ATOM     11  C   UNL     1       0.976   9.762  19.429  0.00  0.00    +0.000 A 
ATOM     12  C   UNL     1       1.573   9.275  18.268  0.00  0.00    +0.000 A 
ATOM     13  C   UNL     1       2.186   8.020  18.270  0.00  0.00    +0.000 A 
ENDBRANCH   7   8
ENDBRANCH   5   7
ENDBRANCH   2   5
ENDBRANCH   1   2
BRANCH   1  14
ATOM     14  C   UNL     1       4.235   2.642  20.134  0.00  0.00    +0.000 C 
BRANCH  14  15
ATOM     15  N   UNL     1       5.119   2.876  18.983  0.00  0.00    +0.000 NA
ATOM     16  H   UNL     1       5.595   2.016  18.711  0.00  0.00    +0.000 HD
BRANCH  15  17
ATOM     17  C   UNL     1       4.425   3.427  17.813  0.00  0.00    +0.000 C 
BRANCH  17  23
ATOM     18  C   UNL     1       6.301   5.071  17.218  0.00  0.00    +0.000 A 
ATOM     19  C   UNL     1       7.176   5.612  16.264  0.00  0.00    +0.000 A 
ATOM     20  C   UNL     1       7.168   5.148  14.948  0.00  0.00    +0.000 A 
ATOM     21  C   UNL     1       6.281   4.152  14.570  0.00  0.00    +0.000 A 
ATOM     22  C   UNL     1       5.388   3.623  15.500  0.00  0.00    +0.000 A 
ATOM     23  C   UNL     1       5.378   4.073  16.833  0.00  0.00    +0.000 A 
BRANCH  18  25
ATOM     24  C   UNL     1       7.541   5.743  19.131  0.00  0.00    +0.000 C 
ATOM     25  O   UNL     1       6.275   5.484  18.527  0.00  0.00    +0.000 OA
ENDBRANCH  18  25
ENDBRANCH  17  23
ENDBRANCH  15  17
ENDBRANCH  14  15
ENDBRANCH   1  14
TORSDOF 9
ENDMDL
MODEL 4
REMARK VINA RESULT:      -6.8      2.433      4.766
REMARK  Name = 
REMARK  10 active torsions:
REMARK  status: ('A' for Active; 'I' for Inactive)
REMARK    1  A    between atoms: C_1  and  O_2
REMARK    2  A    between atoms: O_2  and  C_3
REMARK    3  A    between atoms: C_8  and  C_9
REMARK    4  A    between atoms: C_9  and  N_10
REMARK    5  A    between atoms: N_10  and  C_11
REMARK    6  A    between atoms: C_11  and  C_12
REMARK    7  A    between atoms: C_12  and  S_13
REMARK    8  A    between atoms: S_13  and  N_16
REMARK    9  A    between atoms: N_16  and  C_17
REMARK   10  A    between atoms: C_17  and  C_18
REMARK                            x       y       z     vdW  Elec       q    Type
REMARK                         _______ _______ _______ _____ _____    ______ ____
ROOT
ATOM      1  C   UNL     1       2.631   2.508  19.375  0.00  0.00    +0.000 C 
ENDROOT
BRANCH   1   2
ATOM      2  S   UNL     1       2.077   3.322  20.870  0.00  0.00    +0.000 S 
ATOM      3  O   UNL     1       0.643   3.484  20.769  0.00  0.00    +0.000 OA
ATOM      4  O   UNL     1       2.682   2.661  22.004  0.00  0.00    +0.000 OA
BRANCH   2   5
ATOM      5  N   UNL     1       2.781   4.846  20.741  0.00  0.00    +0.000 NA
ATOM      6  H   UNL     1       3.442   4.970  19.976  0.00  0.00    +0.000 HD
BRANCH   5   7
ATOM      7  C   UNL     1       1.882   5.996  20.925  0.00  0.00    +0.000 C 
BRANCH   7   8
ATOM      8  C   UNL     1       2.068   7.029  19.838  0.00  0.00    +0.000 A 
ATOM      9  C   UNL     1       2.879   6.756  18.728  0.00  0.00    +0.000 A 
ATOM     10  C   UNL     1       3.032   7.698  17.710  0.00  0.00    +0.000 A 
ATOM     11  C   UNL     1       2.377   8.926  17.792  0.00  0.00    +0.000 A 
ATOM     12  C   UNL     1       1.566   9.210  18.889  0.00  0.00    +0.000 A 
ATOM     13  C   UNL     1       1.412   8.268  19.908  0.00  0.00    +0.000 A 
ENDBRANCH   7   8
ENDBRANCH   5   7
ENDBRANCH   2   5
ENDBRANCH   1   2
BRANCH   1  14
ATOM     14  C   UNL     1       2.055   3.164  18.124  0.00  0.00    +0.000 C 
BRANCH  14  15
ATOM     15  N   UNL     1       3.042   3.540  17.102  0.00  0.00    +0.000 NA
ATOM     16  H   UNL     1       3.045   4.550  16.957  0.00  0.00    +0.000 HD
BRANCH  15  17
ATOM     17  C   UNL     1       4.406   3.098  17.412  0.00  0.00    +0.000 C 
BRANCH  17  23
ATOM     18  C   UNL     1       5.784   5.004  16.391  0.00  0.00    +0.000 A 
ATOM     19  C   UNL     1       6.665   6.082  16.559  0.00  0.00    +0.000 A 
ATOM     20  C   UNL     1       7.112   6.444  17.831  0.00  0.00    +0.000 A 
ATOM     21  C   UNL     1       6.695   5.727  18.942  0.00  0.00    +0.000 A 
ATOM     22  C   UNL     1       5.840   4.637  18.788  0.00  0.00    +0.000 A 
ATOM     23  C   UNL     1       5.374   4.255  17.516  0.00  0.00    +0.000 A 
BRANCH  18  25
ATOM     24  C   UNL     1       6.283   4.201  14.211  0.00  0.00    +0.000 C 
ATOM     25  O   UNL     1       5.306   4.614  15.165  0.00  0.00    +0.000 OA
ENDBRANCH  18  25
ENDBRANCH  17  23
ENDBRANCH  15  17
ENDBRANCH  14  15
ENDBRANCH   1  14
TORSDOF 9
ENDMDL
MODEL 5
REMARK VINA RESULT:      -6.8      1.811      5.469
REMARK  Name = 
REMARK  10 active torsions:
REMARK  status: ('A' for Active; 'I' for Inactive)
REMARK    1  A    between atoms: C_1  and  O_2
REMARK    2  A    between atoms: O_2  and  C_3
REMARK    3  A    between atoms: C_8  and  C_9
REMARK    4  A    between atoms: C_9  and  N_10
REMARK    5  A    between atoms: N_10  and  C_11
REMARK    6  A    between atoms: C_11  and  C_12
REMARK    7  A    between atoms: C_12  and  S_13
REMARK    8  A    between atoms: S_13  and  N_16
REMARK    9  A    between atoms: N_16  and  C_17
REMARK   10  A    between atoms: C_17  and  C_18
REMARK                            x       y       z     vdW  Elec       q    Type
REMARK                         _______ _______ _______ _____ _____    ______ ____
ROOT
ATOM      1  C   UNL     1       5.146   5.453  16.502  0.00  0.00    +0.000 C 
ENDROOT
BRANCH   1   2
ATOM      2  S   UNL     1       6.345   4.880  17.702  0.00  0.00    +0.000 S 
ATOM      3  O   UNL     1       7.498   4.405  16.969  0.00  0.00    +0.000 OA
ATOM      4  O   UNL     1       6.470   5.879  18.739  0.00  0.00    +0.000 OA
BRANCH   2   5
ATOM      5  N   UNL     1       5.576   3.545  18.380  0.00  0.00    +0.000 NA
ATOM      6  H   UNL     1       5.681   3.431  19.387  0.00  0.00    +0.000 HD
BRANCH   5   7
ATOM      7  C   UNL     1       4.212   3.267  17.902  0.00  0.00    +0.000 C 
BRANCH   7   8
ATOM      8  C   UNL     1       3.207   3.308  19.030  0.00  0.00    +0.000 A 
ATOM      9  C   UNL     1       1.937   3.866  18.832  0.00  0.00    +0.000 A 
ATOM     10  C   UNL     1       0.998   3.882  19.865  0.00  0.00    +0.000 A 
ATOM     11  C   UNL     1       1.320   3.341  21.108  0.00  0.00    +0.000 A 
ATOM     12  C   UNL     1       2.579   2.781  21.319  0.00  0.00    +0.000 A 
ATOM     13  C   UNL     1       3.518   2.765  20.286  0.00  0.00    +0.000 A 
ENDBRANCH   7   8
ENDBRANCH   5   7
ENDBRANCH   2   5
ENDBRANCH   1   2
BRANCH   1  14
ATOM     14  C   UNL     1       4.675   6.873  16.802  0.00  0.00    +0.000 C 
BRANCH  14  15
ATOM     15  N   UNL     1       3.743   6.999  17.931  0.00  0.00    +0.000 NA
ATOM     16  H   UNL     1       4.250   7.151  18.804  0.00  0.00    +0.000 HD
BRANCH  15  17
ATOM     17  C   UNL     1       2.756   8.071  17.760  0.00  0.00    +0.000 C 
BRANCH  17  23
ATOM     18  C   UNL     1       1.190   9.497  19.205  0.00  0.00    +0.000 A 
ATOM     19  C   UNL     1       0.461   9.666  20.392  0.00  0.00    +0.000 A 
ATOM     20  C   UNL     1       0.469   8.678  21.378  0.00  0.00    +0.000 A 
ATOM     21  C   UNL     1       1.210   7.522  21.195  0.00  0.00    +0.000 A 
ATOM     22  C   UNL     1       1.960   7.351  20.033  0.00  0.00    +0.000 A 
ATOM     23  C   UNL     1       1.967   8.331  19.024  0.00  0.00    +0.000 A 
BRANCH  18  25
ATOM     24  C   UNL     1       1.712  11.720  18.549  0.00  0.00    +0.000 C 
ATOM     25  O   UNL     1       1.209  10.431  18.201  0.00  0.00    +0.000 OA
ENDBRANCH  18  25
ENDBRANCH  17  23
ENDBRANCH  15  17
ENDBRANCH  14  15
ENDBRANCH   1  14
TORSDOF 9
ENDMDL
MODEL 6
REMARK VINA RESULT:      -6.7      2.302      4.687
REMARK  Name = 
REMARK  10 active torsions:
REMARK  status: ('A' for Active; 'I' for Inactive)
REMARK    1  A    between atoms: C_1  and  O_2
REMARK    2  A    between atoms: O_2  and  C_3
REMARK    3  A    between atoms: C_8  and  C_9
REMARK    4  A    between atoms: C_9  and  N_10
REMARK    5  A    between atoms: N_10  and  C_11
REMARK    6  A    between atoms: C_11  and  C_12
REMARK    7  A    between atoms: C_12  and  S_13
REMARK    8  A    between atoms: S_13  and  N_16
REMARK    9  A    between atoms: N_16  and  C_17
REMARK   10  A    between atoms: C_17  and  C_18
REMARK                            x       y       z     vdW  Elec       q    Type
REMARK                         _______ _______ _______ _____ _____    ______ ____
ROOT
ATOM      1  C   UNL     1       2.510   3.247  18.922  0.00  0.00    +0.000 C 
ENDROOT
BRANCH   1   2
ATOM      2  S   UNL     1       1.957   3.817  20.526  0.00  0.00    +0.000 S 
ATOM      3  O   UNL     1       0.523   3.995  20.452  0.00  0.00    +0.000 OA
ATOM      4  O   UNL     1       2.561   2.984  21.542  0.00  0.00    +0.000 OA
BRANCH   2   5
ATOM      5  N   UNL     1       2.664   5.340  20.639  0.00  0.00    +0.000 NA
ATOM      6  H   UNL     1       3.359   5.564  19.928  0.00  0.00    +0.000 HD
BRANCH   5   7
ATOM      7  C   UNL     1       1.756   6.458  20.938  0.00  0.00    +0.000 C 
BRANCH   7   8
ATOM      8  C   UNL     1       1.811   7.523  19.867  0.00  0.00    +0.000 A 
ATOM      9  C   UNL     1       1.133   8.738  20.035  0.00  0.00    +0.000 A 
ATOM     10  C   UNL     1       1.203   9.733  19.059  0.00  0.00    +0.000 A 
ATOM     11  C   UNL     1       1.951   9.523  17.902  0.00  0.00    +0.000 A 
ATOM     12  C   UNL     1       2.631   8.320  17.721  0.00  0.00    +0.000 A 
ATOM     13  C   UNL     1       2.562   7.324  18.698  0.00  0.00    +0.000 A 
ENDBRANCH   7   8
ENDBRANCH   5   7
ENDBRANCH   2   5
ENDBRANCH   1   2
BRANCH   1  14
ATOM     14  C   UNL     1       3.806   2.449  19.017  0.00  0.00    +0.000 C 
BRANCH  14  15
ATOM     15  N   UNL     1       5.003   3.233  19.350  0.00  0.00    +0.000 NA
ATOM     16  H   UNL     1       5.849   2.753  19.040  0.00  0.00    +0.000 HD
BRANCH  15  17
ATOM     17  C   UNL     1       4.992   4.589  18.789  0.00  0.00    +0.000 C 
BRANCH  17  23
ATOM     18  C   UNL     1       7.067   4.678  17.285  0.00  0.00    +0.000 A 
ATOM     19  C   UNL     1       7.626   4.713  15.999  0.00  0.00    +0.000 A 
ATOM     20  C   UNL     1       6.810   4.689  14.867  0.00  0.00    +0.000 A 
ATOM     21  C   UNL     1       5.432   4.641  15.008  0.00  0.00    +0.000 A 
ATOM     22  C   UNL     1       4.861   4.631  16.278  0.00  0.00    +0.000 A 
ATOM     23  C   UNL     1       5.662   4.654  17.435  0.00  0.00    +0.000 A 
BRANCH  18  25
ATOM     24  C   UNL     1       8.029   5.966  19.035  0.00  0.00    +0.000 C 
ATOM     25  O   UNL     1       7.824   4.690  18.430  0.00  0.00    +0.000 OA
ENDBRANCH  18  25
ENDBRANCH  17  23
ENDBRANCH  15  17
ENDBRANCH  14  15
ENDBRANCH   1  14
TORSDOF 9
ENDMDL
MODEL 7
REMARK VINA RESULT:      -6.7      4.012      4.753
REMARK  Name = 
REMARK  10 active torsions:
REMARK  status: ('A' for Active; 'I' for Inactive)
REMARK    1  A    between atoms: C_1  and  O_2
REMARK    2  A    between atoms: O_2  and  C_3
REMARK    3  A    between atoms: C_8  and  C_9
REMARK    4  A    between atoms: C_9  and  N_10
REMARK    5  A    between atoms: N_10  and  C_11
REMARK    6  A    between atoms: C_11  and  C_12
REMARK    7  A    between atoms: C_12  and  S_13
REMARK    8  A    between atoms: S_13  and  N_16
REMARK    9  A    between atoms: N_16  and  C_17
REMARK   10  A    between atoms: C_17  and  C_18
REMARK                            x       y       z     vdW  Elec       q    Type
REMARK                         _______ _______ _______ _____ _____    ______ ____
ROOT
ATOM      1  C   UNL     1       6.918   5.840  16.677  0.00  0.00    +0.000 C 
ENDROOT
BRANCH   1   2
ATOM      2  S   UNL     1       7.352   5.747  18.412  0.00  0.00    +0.000 S 
ATOM      3  O   UNL     1       6.124   5.847  19.171  0.00  0.00    +0.000 OA
ATOM      4  O   UNL     1       8.265   4.643  18.598  0.00  0.00    +0.000 OA
BRANCH   2   5
ATOM      5  N   UNL     1       8.225   7.167  18.649  0.00  0.00    +0.000 NA
ATOM      6  H   UNL     1       9.229   7.058  18.781  0.00  0.00    +0.000 HD
BRANCH   5   7
ATOM      7  C   UNL     1       7.872   8.301  17.779  0.00  0.00    +0.000 C 
BRANCH   7   8
ATOM      8  C   UNL     1       8.488   9.591  18.269  0.00  0.00    +0.000 A 
ATOM      9  C   UNL     1       8.393  10.760  17.502  0.00  0.00    +0.000 A 
ATOM     10  C   UNL     1       8.938  11.959  17.963  0.00  0.00    +0.000 A 
ATOM     11  C   UNL     1       9.586  12.002  19.197  0.00  0.00    +0.000 A 
ATOM     12  C   UNL     1       9.686  10.847  19.971  0.00  0.00    +0.000 A 
ATOM     13  C   UNL     1       9.140   9.647  19.510  0.00  0.00    +0.000 A 
ENDBRANCH   7   8
ENDBRANCH   5   7
ENDBRANCH   2   5
ENDBRANCH   1   2
BRANCH   1  14
ATOM     14  C   UNL     1       6.343   4.524  16.164  0.00  0.00    +0.000 C 
BRANCH  14  15
ATOM     15  N   UNL     1       5.484   3.802  17.113  0.00  0.00    +0.000 NA
ATOM     16  H   UNL     1       5.393   4.322  17.986  0.00  0.00    +0.000 HD
BRANCH  15  17
ATOM     17  C   UNL     1       4.145   3.513  16.588  0.00  0.00    +0.000 C 
BRANCH  17  23
ATOM     18  C   UNL     1       2.614   4.675  18.286  0.00  0.00    +0.000 A 
ATOM     19  C   UNL     1       1.620   4.591  19.272  0.00  0.00    +0.000 A 
ATOM     20  C   UNL     1       1.077   3.356  19.631  0.00  0.00    +0.000 A 
ATOM     21  C   UNL     1       1.527   2.197  19.019  0.00  0.00    +0.000 A 
ATOM     22  C   UNL     1       2.532   2.262  18.056  0.00  0.00    +0.000 A 
ATOM     23  C   UNL     1       3.095   3.495  17.676  0.00  0.00    +0.000 A 
BRANCH  18  25
ATOM     24  C   UNL     1       2.621   7.044  18.467  0.00  0.00    +0.000 C 
ATOM     25  O   UNL     1       3.175   5.863  17.889  0.00  0.00    +0.000 OA
ENDBRANCH  18  25
ENDBRANCH  17  23
ENDBRANCH  15  17
ENDBRANCH  14  15
ENDBRANCH   1  14
TORSDOF 9
ENDMDL
MODEL 8
REMARK VINA RESULT:      -6.6      0.868      1.447
REMARK  Name = 
REMARK  10 active torsions:
REMARK  status: ('A' for Active; 'I' for Inactive)
REMARK    1  A    between atoms: C_1  and  O_2
REMARK    2  A    between atoms: O_2  and  C_3
REMARK    3  A    between atoms: C_8  and  C_9
REMARK    4  A    between atoms: C_9  and  N_10
REMARK    5  A    between atoms: N_10  and  C_11
REMARK    6  A    between atoms: C_11  and  C_12
REMARK    7  A    between atoms: C_12  and  S_13
REMARK    8  A    between atoms: S_13  and  N_16
REMARK    9  A    between atoms: N_16  and  C_17
REMARK   10  A    between atoms: C_17  and  C_18
REMARK                            x       y       z     vdW  Elec       q    Type
REMARK                         _______ _______ _______ _____ _____    ______ ____
ROOT
ATOM      1  C   UNL     1       6.088   4.648  16.420  0.00  0.00    +0.000 C 
ENDROOT
BRANCH   1   2
ATOM      2  S   UNL     1       5.873   6.425  16.461  0.00  0.00    +0.000 S 
ATOM      3  O   UNL     1       7.130   7.003  16.884  0.00  0.00    +0.000 OA
ATOM      4  O   UNL     1       5.229   6.838  15.236  0.00  0.00    +0.000 OA
BRANCH   2   5
ATOM      5  N   UNL     1       4.762   6.631  17.709  0.00  0.00    +0.000 NA
ATOM      6  H   UNL     1       5.142   6.953  18.597  0.00  0.00    +0.000 HD
BRANCH   5   7
ATOM      7  C   UNL     1       3.493   7.282  17.349  0.00  0.00    +0.000 C 
BRANCH   7   8
ATOM      8  C   UNL     1       2.622   7.514  18.562  0.00  0.00    +0.000 A 
ATOM      9  C   UNL     1       2.507   6.531  19.554  0.00  0.00    +0.000 A 
ATOM     10  C   UNL     1       1.723   6.754  20.688  0.00  0.00    +0.000 A 
ATOM     11  C   UNL     1       1.046   7.962  20.841  0.00  0.00    +0.000 A 
ATOM     12  C   UNL     1       1.153   8.949  19.863  0.00  0.00    +0.000 A 
ATOM     13  C   UNL     1       1.936   8.727  18.729  0.00  0.00    +0.000 A 
ENDBRANCH   7   8
ENDBRANCH   5   7
ENDBRANCH   2   5
ENDBRANCH   1   2
BRANCH   1  14
ATOM     14  C   UNL     1       4.878   3.943  15.814  0.00  0.00    +0.000 C 
BRANCH  14  15
ATOM     15  N   UNL     1       3.756   3.719  16.736  0.00  0.00    +0.000 NA
ATOM     16  H   UNL     1       2.913   3.459  16.223  0.00  0.00    +0.000 HD
BRANCH  15  17
ATOM     17  C   UNL     1       4.028   2.699  17.755  0.00  0.00    +0.000 C 
BRANCH  17  23
ATOM     18  C   UNL     1       3.506   2.676  20.265  0.00  0.00    +0.000 A 
ATOM     19  C   UNL     1       2.572   2.793  21.306  0.00  0.00    +0.000 A 
ATOM     20  C   UNL     1       1.229   3.053  21.031  0.00  0.00    +0.000 A 
ATOM     21  C   UNL     1       0.804   3.187  19.718  0.00  0.00    +0.000 A 
ATOM     22  C   UNL     1       1.714   3.048  18.673  0.00  0.00    +0.000 A 
ATOM     23  C   UNL     1       3.074   2.787  18.924  0.00  0.00    +0.000 A 
BRANCH  18  25
ATOM     24  C   UNL     1       5.171   1.125  20.949  0.00  0.00    +0.000 C 
ATOM     25  O   UNL     1       4.839   2.431  20.481  0.00  0.00    +0.000 OA
ENDBRANCH  18  25
ENDBRANCH  17  23
ENDBRANCH  15  17
ENDBRANCH  14  15
ENDBRANCH   1  14
TORSDOF 9
ENDMDL
MODEL 9
REMARK VINA RESULT:      -6.6      2.455      5.416
REMARK  Name = 
REMARK  10 active torsions:
REMARK  status: ('A' for Active; 'I' for Inactive)
REMARK    1  A    between atoms: C_1  and  O_2
REMARK    2  A    between atoms: O_2  and  C_3
REMARK    3  A    between atoms: C_8  and  C_9
REMARK    4  A    between atoms: C_9  and  N_10
REMARK    5  A    between atoms: N_10  and  C_11
REMARK    6  A    between atoms: C_11  and  C_12
REMARK    7  A    between atoms: C_12  and  S_13
REMARK    8  A    between atoms: S_13  and  N_16
REMARK    9  A    between atoms: N_16  and  C_17
REMARK   10  A    between atoms: C_17  and  C_18
REMARK                            x       y       z     vdW  Elec       q    Type
REMARK                         _______ _______ _______ _____ _____    ______ ____
ROOT
ATOM      1  C   UNL     1       5.737   4.480  18.601  0.00  0.00    +0.000 C 
ENDROOT
BRANCH   1   2
ATOM      2  S   UNL     1       7.290   5.262  18.175  0.00  0.00    +0.000 S 
ATOM      3  O   UNL     1       7.065   6.691  18.155  0.00  0.00    +0.000 OA
ATOM      4  O   UNL     1       8.335   4.675  18.982  0.00  0.00    +0.000 OA
BRANCH   2   5
ATOM      5  N   UNL     1       7.534   4.754  16.589  0.00  0.00    +0.000 NA
ATOM      6  H   UNL     1       7.394   3.760  16.411  0.00  0.00    +0.000 HD
BRANCH   5   7
ATOM      7  C   UNL     1       6.978   5.618  15.536  0.00  0.00    +0.000 C 
BRANCH   7   8
ATOM      8  C   UNL     1       6.691   4.841  14.272  0.00  0.00    +0.000 A 
ATOM      9  C   UNL     1       5.542   4.045  14.172  0.00  0.00    +0.000 A 
ATOM     10  C   UNL     1       5.261   3.346  12.996  0.00  0.00    +0.000 A 
ATOM     11  C   UNL     1       6.127   3.437  11.907  0.00  0.00    +0.000 A 
ATOM     12  C   UNL     1       7.271   4.227  11.992  0.00  0.00    +0.000 A 
ATOM     13  C   UNL     1       7.553   4.925  13.168  0.00  0.00    +0.000 A 
ENDBRANCH   7   8
ENDBRANCH   5   7
ENDBRANCH   2   5
ENDBRANCH   1   2
BRANCH   1  14
ATOM     14  C   UNL     1       4.784   5.449  19.294  0.00  0.00    +0.000 C 
BRANCH  14  15
ATOM     15  N   UNL     1       3.828   6.130  18.409  0.00  0.00    +0.000 NA
ATOM     16  H   UNL     1       3.806   5.686  17.491  0.00  0.00    +0.000 HD
BRANCH  15  17
ATOM     17  C   UNL     1       2.464   6.181  18.948  0.00  0.00    +0.000 C 
BRANCH  17  23
ATOM     18  C   UNL     1       1.785   3.715  18.763  0.00  0.00    +0.000 A 
ATOM     19  C   UNL     1       1.416   2.514  19.387  0.00  0.00    +0.000 A 
ATOM     20  C   UNL     1       1.328   2.432  20.777  0.00  0.00    +0.000 A 
ATOM     21  C   UNL     1       1.596   3.547  21.555  0.00  0.00    +0.000 A 
ATOM     22  C   UNL     1       1.939   4.754  20.950  0.00  0.00    +0.000 A 
ATOM     23  C   UNL     1       2.036   4.861  19.550  0.00  0.00    +0.000 A 
BRANCH  18  25
ATOM     24  C   UNL     1       2.855   3.006  16.764  0.00  0.00    +0.000 C 
ATOM     25  O   UNL     1       1.896   3.847  17.402  0.00  0.00    +0.000 OA
ENDBRANCH  18  25
ENDBRANCH  17  23
ENDBRANCH  15  17
ENDBRANCH  14  15
ENDBRANCH   1  14
TORSDOF 9
ENDMDL
