MODEL 1
REMARK VINA RESULT:      -8.1      0.000      0.000
REMARK  Name = 
REMARK  7 active torsions:
REMARK  status: ('A' for Active; 'I' for Inactive)
REMARK    1  A    between atoms: C_1  and  O_2
REMARK    2  A    between atoms: O_2  and  C_3
REMARK    3  A    between atoms: C_7  and  C_8
REMARK    4  A    between atoms: C_12  and  O_13
REMARK    5  A    between atoms: O_13  and  C_14
REMARK    6  A    between atoms: C_15  and  O_16
REMARK    7  A    between atoms: O_16  and  C_17
REMARK                            x       y       z     vdW  Elec       q    Type
REMARK                         _______ _______ _______ _____ _____    ______ ____
ROOT
ATOM      1  C   UNL     1       2.630   5.467  19.497  0.00  0.00    +0.000 C 
ATOM      2  C   UNL     1       3.486   4.610  18.908  0.00  0.00    +0.000 C 
ATOM      3  C   UNL     1       4.491   4.881  17.878  0.00  0.00    +0.000 A 
ATOM      4  C   UNL     1       5.322   5.998  17.945  0.00  0.00    +0.000 A 
ATOM      5  C   UNL     1       6.295   6.221  16.971  0.00  0.00    +0.000 A 
ATOM      6  C   UNL     1       6.389   5.350  15.869  0.00  0.00    +0.000 A 
ATOM      7  C   UNL     1       5.595   4.192  15.834  0.00  0.00    +0.000 A 
ATOM      8  C   UNL     1       4.699   3.920  16.876  0.00  0.00    +0.000 A 
ATOM      9  C   UNL     1       3.952   2.604  16.986  0.00  0.00    +0.000 C 
ATOM     10  C   UNL     1       3.843   2.204  18.475  0.00  0.00    +0.000 C 
ATOM     11  N   UNL     1       3.266   3.293  19.250  0.00  0.00    +0.000 N 
ATOM     12  C   UNL     1       2.291   3.173  20.201  0.00  0.00    +0.000 C 
ATOM     13  O   UNL     1       1.831   2.188  20.734  0.00  0.00    +0.000 OA
ATOM     14  C   UNL     1       1.837   4.629  20.425  0.00  0.00    +0.000 C 
ATOM     15  O   UNL     1       0.979   4.995  21.198  0.00  0.00    +0.000 OA
ENDROOT
BRANCH   1  20
ATOM     16  C   UNL     1       1.552   9.077  19.680  0.00  0.00    +0.000 A 
ATOM     17  C   UNL     1       1.780   9.470  18.357  0.00  0.00    +0.000 A 
ATOM     18  C   UNL     1       2.293   8.567  17.426  0.00  0.00    +0.000 A 
ATOM     19  C   UNL     1       2.570   7.261  17.817  0.00  0.00    +0.000 A 
ATOM     20  C   UNL     1       2.329   6.846  19.135  0.00  0.00    +0.000 A 
ATOM     21  C   UNL     1       1.829   7.764  20.068  0.00  0.00    +0.000 A 
BRANCH  16  23
ATOM     22  C   UNL     1       0.934  11.362  19.916  0.00  0.00    +0.000 C 
ATOM     23  O   UNL     1       1.051  10.065  20.481  0.00  0.00    +0.000 OA
ENDBRANCH  16  23
ENDBRANCH   1  20
BRANCH   5  24
ATOM     24  O   UNL     1       7.163   7.285  17.029  0.00  0.00    +0.000 OA
ATOM     25  C   UNL     1       7.968   7.358  18.206  0.00  0.00    +0.000 C 
ENDBRANCH   5  24
BRANCH   6  26
ATOM     26  O   UNL     1       7.318   5.687  14.918  0.00  0.00    +0.000 OA
ATOM     27  C   UNL     1       7.326   4.940  13.711  0.00  0.00    +0.000 C 
ENDBRANCH   6  26
TORSDOF 4
ENDMDL
MODEL 2
REMARK VINA RESULT:      -7.9      1.522      5.954
REMARK  Name = 
REMARK  7 active torsions:
REMARK  status: ('A' for Active; 'I' for Inactive)
REMARK    1  A    between atoms: C_1  and  O_2
REMARK    2  A    between atoms: O_2  and  C_3
REMARK    3  A    between atoms: C_7  and  C_8
REMARK    4  A    between atoms: C_12  and  O_13
REMARK    5  A    between atoms: O_13  and  C_14
REMARK    6  A    between atoms: C_15  and  O_16
REMARK    7  A    between atoms: O_16  and  C_17
REMARK                            x       y       z     vdW  Elec       q    Type
REMARK                         _______ _______ _______ _____ _____    ______ ____
ROOT
ATOM      1  C   UNL     1       3.807   3.911  18.117  0.00  0.00    +0.000 C 
ATOM      2  C   UNL     1       2.704   4.328  18.768  0.00  0.00    +0.000 C 
ATOM      3  C   UNL     1       2.369   5.675  19.234  0.00  0.00    +0.000 A 
ATOM      4  C   UNL     1       2.581   6.798  18.436  0.00  0.00    +0.000 A 
ATOM      5  C   UNL     1       2.224   8.069  18.885  0.00  0.00    +0.000 A 
ATOM      6  C   UNL     1       1.716   8.229  20.188  0.00  0.00    +0.000 A 
ATOM      7  C   UNL     1       1.445   7.093  20.968  0.00  0.00    +0.000 A 
ATOM      8  C   UNL     1       1.703   5.813  20.462  0.00  0.00    +0.000 A 
ATOM      9  C   UNL     1       1.264   4.549  21.178  0.00  0.00    +0.000 C 
ATOM     10  C   UNL     1       0.819   3.500  20.134  0.00  0.00    +0.000 C 
ATOM     11  N   UNL     1       1.867   3.299  19.142  0.00  0.00    +0.000 N 
ATOM     12  C   UNL     1       2.301   2.094  18.665  0.00  0.00    +0.000 C 
ATOM     13  O   UNL     1       1.833   0.985  18.793  0.00  0.00    +0.000 OA
ATOM     14  C   UNL     1       3.610   2.455  17.937  0.00  0.00    +0.000 C 
ATOM     15  O   UNL     1       4.337   1.680  17.355  0.00  0.00    +0.000 OA
ENDROOT
BRANCH   1  20
ATOM     16  C   UNL     1       6.752   5.523  16.397  0.00  0.00    +0.000 A 
ATOM     17  C   UNL     1       7.438   6.031  17.504  0.00  0.00    +0.000 A 
ATOM     18  C   UNL     1       6.933   5.858  18.793  0.00  0.00    +0.000 A 
ATOM     19  C   UNL     1       5.740   5.165  18.976  0.00  0.00    +0.000 A 
ATOM     20  C   UNL     1       5.050   4.634  17.876  0.00  0.00    +0.000 A 
ATOM     21  C   UNL     1       5.556   4.826  16.585  0.00  0.00    +0.000 A 
BRANCH  16  23
ATOM     22  C   UNL     1       7.038   4.906  14.117  0.00  0.00    +0.000 C 
ATOM     23  O   UNL     1       7.361   5.769  15.197  0.00  0.00    +0.000 OA
ENDBRANCH  16  23
ENDBRANCH   1  20
BRANCH   5  24
ATOM     24  O   UNL     1       2.374   9.193  18.109  0.00  0.00    +0.000 OA
ATOM     25  C   UNL     1       1.161   9.821  17.696  0.00  0.00    +0.000 C 
ENDBRANCH   5  24
BRANCH   6  26
ATOM     26  O   UNL     1       1.467   9.520  20.579  0.00  0.00    +0.000 OA
ATOM     27  C   UNL     1       0.720   9.716  21.770  0.00  0.00    +0.000 C 
ENDBRANCH   6  26
TORSDOF 4
ENDMDL
MODEL 3
REMARK VINA RESULT:      -7.6      1.646      5.667
REMARK  Name = 
REMARK  7 active torsions:
REMARK  status: ('A' for Active; 'I' for Inactive)
REMARK    1  A    between atoms: C_1  and  O_2
REMARK    2  A    between atoms: O_2  and  C_3
REMARK    3  A    between atoms: C_7  and  C_8
REMARK    4  A    between atoms: C_12  and  O_13
REMARK    5  A    between atoms: O_13  and  C_14
REMARK    6  A    between atoms: C_15  and  O_16
REMARK    7  A    between atoms: O_16  and  C_17
REMARK                            x       y       z     vdW  Elec       q    Type
REMARK                         _______ _______ _______ _____ _____    ______ ____
ROOT
ATOM      1  C   UNL     1       3.666   4.017  17.910  0.00  0.00    +0.000 C 
ATOM      2  C   UNL     1       2.655   4.412  18.708  0.00  0.00    +0.000 C 
ATOM      3  C   UNL     1       2.330   5.760  19.176  0.00  0.00    +0.000 A 
ATOM      4  C   UNL     1       2.364   6.859  18.319  0.00  0.00    +0.000 A 
ATOM      5  C   UNL     1       2.019   8.130  18.777  0.00  0.00    +0.000 A 
ATOM      6  C   UNL     1       1.706   8.319  20.136  0.00  0.00    +0.000 A 
ATOM      7  C   UNL     1       1.611   7.204  20.985  0.00  0.00    +0.000 A 
ATOM      8  C   UNL     1       1.851   5.917  20.487  0.00  0.00    +0.000 A 
ATOM      9  C   UNL     1       1.587   4.665  21.302  0.00  0.00    +0.000 C 
ATOM     10  C   UNL     1       1.041   3.558  20.372  0.00  0.00    +0.000 C 
ATOM     11  N   UNL     1       1.935   3.363  19.238  0.00  0.00    +0.000 N 
ATOM     12  C   UNL     1       2.349   2.160  18.740  0.00  0.00    +0.000 C 
ATOM     13  O   UNL     1       1.961   1.038  18.974  0.00  0.00    +0.000 OA
ATOM     14  C   UNL     1       3.514   2.548  17.809  0.00  0.00    +0.000 C 
ATOM     15  O   UNL     1       4.181   1.782  17.148  0.00  0.00    +0.000 OA
ENDROOT
BRANCH   1  20
ATOM     16  C   UNL     1       6.850   6.040  17.884  0.00  0.00    +0.000 A 
ATOM     17  C   UNL     1       7.008   6.236  16.509  0.00  0.00    +0.000 A 
ATOM     18  C   UNL     1       6.090   5.700  15.605  0.00  0.00    +0.000 A 
ATOM     19  C   UNL     1       5.003   4.972  16.080  0.00  0.00    +0.000 A 
ATOM     20  C   UNL     1       4.821   4.782  17.459  0.00  0.00    +0.000 A 
ATOM     21  C   UNL     1       5.757   5.310  18.358  0.00  0.00    +0.000 A 
BRANCH  16  23
ATOM     22  C   UNL     1       8.226   7.935  18.302  0.00  0.00    +0.000 C 
ATOM     23  O   UNL     1       7.825   6.618  18.650  0.00  0.00    +0.000 OA
ENDBRANCH  16  23
ENDBRANCH   1  20
BRANCH   5  24
ATOM     24  O   UNL     1       1.995   9.229  17.951  0.00  0.00    +0.000 OA
ATOM     25  C   UNL     1       0.697   9.741  17.648  0.00  0.00    +0.000 C 
ENDBRANCH   5  24
BRANCH   6  26
ATOM     26  O   UNL     1       1.457   9.613  20.519  0.00  0.00    +0.000 OA
ATOM     27  C   UNL     1       0.362   9.843  21.392  0.00  0.00    +0.000 C 
ENDBRANCH   6  26
TORSDOF 4
ENDMDL
MODEL 4
REMARK VINA RESULT:      -7.5      1.882      5.751
REMARK  Name = 
REMARK  7 active torsions:
REMARK  status: ('A' for Active; 'I' for Inactive)
REMARK    1  A    between atoms: C_1  and  O_2
REMARK    2  A    between atoms: O_2  and  C_3
REMARK    3  A    between atoms: C_7  and  C_8
REMARK    4  A    between atoms: C_12  and  O_13
REMARK    5  A    between atoms: O_13  and  C_14
REMARK    6  A    between atoms: C_15  and  O_16
REMARK    7  A    between atoms: O_16  and  C_17
REMARK                            x       y       z     vdW  Elec       q    Type
REMARK                         _______ _______ _______ _____ _____    ______ ____
ROOT
ATOM      1  C   UNL     1       4.265   4.597  17.941  0.00  0.00    +0.000 C 
ATOM      2  C   UNL     1       3.029   4.779  18.445  0.00  0.00    +0.000 C 
ATOM      3  C   UNL     1       2.493   5.938  19.161  0.00  0.00    +0.000 A 
ATOM      4  C   UNL     1       2.741   7.241  18.731  0.00  0.00    +0.000 A 
ATOM      5  C   UNL     1       2.193   8.330  19.409  0.00  0.00    +0.000 A 
ATOM      6  C   UNL     1       1.445   8.116  20.582  0.00  0.00    +0.000 A 
ATOM      7  C   UNL     1       1.144   6.802  20.979  0.00  0.00    +0.000 A 
ATOM      8  C   UNL     1       1.606   5.715  20.226  0.00  0.00    +0.000 A 
ATOM      9  C   UNL     1       1.164   4.289  20.498  0.00  0.00    +0.000 C 
ATOM     10  C   UNL     1       1.013   3.539  19.155  0.00  0.00    +0.000 C 
ATOM     11  N   UNL     1       2.237   3.653  18.372  0.00  0.00    +0.000 N 
ATOM     12  C   UNL     1       2.859   2.638  17.701  0.00  0.00    +0.000 C 
ATOM     13  O   UNL     1       2.481   1.516  17.449  0.00  0.00    +0.000 OA
ATOM     14  C   UNL     1       4.239   3.234  17.363  0.00  0.00    +0.000 C 
ATOM     15  O   UNL     1       5.127   2.673  16.760  0.00  0.00    +0.000 OA
ENDROOT
BRANCH   1  20
ATOM     16  C   UNL     1       6.864   7.311  17.610  0.00  0.00    +0.000 A 
ATOM     17  C   UNL     1       7.771   6.907  18.594  0.00  0.00    +0.000 A 
ATOM     18  C   UNL     1       7.525   5.768  19.362  0.00  0.00    +0.000 A 
ATOM     19  C   UNL     1       6.370   5.025  19.139  0.00  0.00    +0.000 A 
ATOM     20  C   UNL     1       5.459   5.408  18.143  0.00  0.00    +0.000 A 
ATOM     21  C   UNL     1       5.706   6.562  17.387  0.00  0.00    +0.000 A 
BRANCH  16  23
ATOM     22  C   UNL     1       8.109   9.339  17.606  0.00  0.00    +0.000 C 
ATOM     23  O   UNL     1       7.232   8.444  16.938  0.00  0.00    +0.000 OA
ENDBRANCH  16  23
ENDBRANCH   1  20
BRANCH   5  24
ATOM     24  O   UNL     1       2.376   9.625  18.987  0.00  0.00    +0.000 OA
ATOM     25  C   UNL     1       1.552  10.039  17.897  0.00  0.00    +0.000 C 
ENDBRANCH   5  24
BRANCH   6  26
ATOM     26  O   UNL     1       1.012   9.244  21.230  0.00  0.00    +0.000 OA
ATOM     27  C   UNL     1       1.078   9.257  22.647  0.00  0.00    +0.000 C 
ENDBRANCH   6  26
TORSDOF 4
ENDMDL
MODEL 5
REMARK VINA RESULT:      -7.2      8.075     11.957
REMARK  Name = 
REMARK  7 active torsions:
REMARK  status: ('A' for Active; 'I' for Inactive)
REMARK    1  A    between atoms: C_1  and  O_2
REMARK    2  A    between atoms: O_2  and  C_3
REMARK    3  A    between atoms: C_7  and  C_8
REMARK    4  A    between atoms: C_12  and  O_13
REMARK    5  A    between atoms: O_13  and  C_14
REMARK    6  A    between atoms: C_15  and  O_16
REMARK    7  A    between atoms: O_16  and  C_17
REMARK                            x       y       z     vdW  Elec       q    Type
REMARK                         _______ _______ _______ _____ _____    ______ ____
ROOT
ATOM      1  C   UNL     1      -5.884  13.737  21.200  0.00  0.00    +0.000 C 
ATOM      2  C   UNL     1      -4.811  13.764  22.014  0.00  0.00    +0.000 C 
ATOM      3  C   UNL     1      -3.574  12.986  21.926  0.00  0.00    +0.000 A 
ATOM      4  C   UNL     1      -2.914  12.798  20.713  0.00  0.00    +0.000 A 
ATOM      5  C   UNL     1      -1.719  12.082  20.656  0.00  0.00    +0.000 A 
ATOM      6  C   UNL     1      -1.214  11.477  21.822  0.00  0.00    +0.000 A 
ATOM      7  C   UNL     1      -1.844  11.717  23.054  0.00  0.00    +0.000 A 
ATOM      8  C   UNL     1      -2.982  12.532  23.116  0.00  0.00    +0.000 A 
ATOM      9  C   UNL     1      -3.597  12.976  24.430  0.00  0.00    +0.000 C 
ATOM     10  C   UNL     1      -4.109  14.427  24.288  0.00  0.00    +0.000 C 
ATOM     11  N   UNL     1      -4.996  14.539  23.138  0.00  0.00    +0.000 N 
ATOM     12  C   UNL     1      -6.196  15.195  23.110  0.00  0.00    +0.000 C 
ATOM     13  O   UNL     1      -6.697  15.948  23.914  0.00  0.00    +0.000 OA
ATOM     14  C   UNL     1      -6.834  14.702  21.797  0.00  0.00    +0.000 C 
ATOM     15  O   UNL     1      -7.917  15.034  21.365  0.00  0.00    +0.000 OA
ENDROOT
BRANCH   1  20
ATOM     16  C   UNL     1      -6.817  10.586  19.347  0.00  0.00    +0.000 A 
ATOM     17  C   UNL     1      -6.774  11.052  18.029  0.00  0.00    +0.000 A 
ATOM     18  C   UNL     1      -6.457  12.384  17.756  0.00  0.00    +0.000 A 
ATOM     19  C   UNL     1      -6.173  13.251  18.807  0.00  0.00    +0.000 A 
ATOM     20  C   UNL     1      -6.194  12.794  20.133  0.00  0.00    +0.000 A 
ATOM     21  C   UNL     1      -6.529  11.460  20.398  0.00  0.00    +0.000 A 
BRANCH  16  23
ATOM     22  C   UNL     1      -7.726   8.846  20.690  0.00  0.00    +0.000 C 
ATOM     23  O   UNL     1      -7.143   9.263  19.464  0.00  0.00    +0.000 OA
ENDBRANCH  16  23
ENDBRANCH   1  20
BRANCH   5  24
ATOM     24  O   UNL     1      -1.015  11.917  19.486  0.00  0.00    +0.000 OA
ATOM     25  C   UNL     1      -0.530  13.118  18.887  0.00  0.00    +0.000 C 
ENDBRANCH   5  24
BRANCH   6  26
ATOM     26  O   UNL     1      -0.078  10.724  21.662  0.00  0.00    +0.000 OA
ATOM     27  C   UNL     1       0.132   9.648  22.563  0.00  0.00    +0.000 C 
ENDBRANCH   6  26
TORSDOF 4
ENDMDL
MODEL 6
REMARK VINA RESULT:      -7.1      6.803     11.047
REMARK  Name = 
REMARK  7 active torsions:
REMARK  status: ('A' for Active; 'I' for Inactive)
REMARK    1  A    between atoms: C_1  and  O_2
REMARK    2  A    between atoms: O_2  and  C_3
REMARK    3  A    between atoms: C_7  and  C_8
REMARK    4  A    between atoms: C_12  and  O_13
REMARK    5  A    between atoms: O_13  and  C_14
REMARK    6  A    between atoms: C_15  and  O_16
REMARK    7  A    between atoms: O_16  and  C_17
REMARK                            x       y       z     vdW  Elec       q    Type
REMARK                         _______ _______ _______ _____ _____    ______ ____
ROOT
ATOM      1  C   UNL     1      -4.672  13.659  20.568  0.00  0.00    +0.000 C 
ATOM      2  C   UNL     1      -3.415  13.651  21.051  0.00  0.00    +0.000 C 
ATOM      3  C   UNL     1      -2.384  12.621  20.909  0.00  0.00    +0.000 A 
ATOM      4  C   UNL     1      -2.146  11.991  19.688  0.00  0.00    +0.000 A 
ATOM      5  C   UNL     1      -1.137  11.035  19.565  0.00  0.00    +0.000 A 
ATOM      6  C   UNL     1      -0.403  10.648  20.702  0.00  0.00    +0.000 A 
ATOM      7  C   UNL     1      -0.601  11.326  21.916  0.00  0.00    +0.000 A 
ATOM      8  C   UNL     1      -1.540  12.362  22.000  0.00  0.00    +0.000 A 
ATOM      9  C   UNL     1      -1.668  13.249  23.224  0.00  0.00    +0.000 C 
ATOM     10  C   UNL     1      -1.984  14.693  22.776  0.00  0.00    +0.000 C 
ATOM     11  N   UNL     1      -3.145  14.707  21.896  0.00  0.00    +0.000 N 
ATOM     12  C   UNL     1      -4.192  15.584  21.960  0.00  0.00    +0.000 C 
ATOM     13  O   UNL     1      -4.320  16.608  22.592  0.00  0.00    +0.000 OA
ATOM     14  C   UNL     1      -5.254  14.931  21.054  0.00  0.00    +0.000 C 
ATOM     15  O   UNL     1      -6.355  15.376  20.815  0.00  0.00    +0.000 OA
ENDROOT
BRANCH   1  20
ATOM     16  C   UNL     1      -7.016  10.752  20.036  0.00  0.00    +0.000 A 
ATOM     17  C   UNL     1      -6.799  10.504  18.678  0.00  0.00    +0.000 A 
ATOM     18  C   UNL     1      -5.908  11.290  17.945  0.00  0.00    +0.000 A 
ATOM     19  C   UNL     1      -5.223  12.322  18.579  0.00  0.00    +0.000 A 
ATOM     20  C   UNL     1      -5.415  12.571  19.946  0.00  0.00    +0.000 A 
ATOM     21  C   UNL     1      -6.324  11.788  20.669  0.00  0.00    +0.000 A 
BRANCH  16  23
ATOM     22  C   UNL     1      -7.596   8.524  20.636  0.00  0.00    +0.000 C 
ATOM     23  O   UNL     1      -7.916   9.907  20.625  0.00  0.00    +0.000 OA
ENDBRANCH  16  23
ENDBRANCH   1  20
BRANCH   5  24
ATOM     24  O   UNL     1      -0.842  10.428  18.368  0.00  0.00    +0.000 OA
ATOM     25  C   UNL     1      -1.965  10.116  17.543  0.00  0.00    +0.000 C 
ENDBRANCH   5  24
BRANCH   6  26
ATOM     26  O   UNL     1       0.513   9.645  20.510  0.00  0.00    +0.000 OA
ATOM     27  C   UNL     1       0.423   8.501  21.345  0.00  0.00    +0.000 C 
ENDBRANCH   6  26
TORSDOF 4
ENDMDL
MODEL 7
REMARK VINA RESULT:      -7.1      4.686     10.199
REMARK  Name = 
REMARK  7 active torsions:
REMARK  status: ('A' for Active; 'I' for Inactive)
REMARK    1  A    between atoms: C_1  and  O_2
REMARK    2  A    between atoms: O_2  and  C_3
REMARK    3  A    between atoms: C_7  and  C_8
REMARK    4  A    between atoms: C_12  and  O_13
REMARK    5  A    between atoms: O_13  and  C_14
REMARK    6  A    between atoms: C_15  and  O_16
REMARK    7  A    between atoms: O_16  and  C_17
REMARK                            x       y       z     vdW  Elec       q    Type
REMARK                         _______ _______ _______ _____ _____    ______ ____
ROOT
ATOM      1  C   UNL     1      -1.893  10.976  18.903  0.00  0.00    +0.000 C 
ATOM      2  C   UNL     1      -2.515  11.941  19.607  0.00  0.00    +0.000 C 
ATOM      3  C   UNL     1      -2.072  12.612  20.831  0.00  0.00    +0.000 A 
ATOM      4  C   UNL     1      -0.757  13.048  20.990  0.00  0.00    +0.000 A 
ATOM      5  C   UNL     1      -0.363  13.715  22.149  0.00  0.00    +0.000 A 
ATOM      6  C   UNL     1      -1.283  13.884  23.202  0.00  0.00    +0.000 A 
ATOM      7  C   UNL     1      -2.622  13.501  23.017  0.00  0.00    +0.000 A 
ATOM      8  C   UNL     1      -3.031  12.933  21.804  0.00  0.00    +0.000 A 
ATOM      9  C   UNL     1      -4.490  12.669  21.479  0.00  0.00    +0.000 C 
ATOM     10  C   UNL     1      -4.737  12.955  19.980  0.00  0.00    +0.000 C 
ATOM     11  N   UNL     1      -3.791  12.210  19.161  0.00  0.00    +0.000 N 
ATOM     12  C   UNL     1      -4.090  11.505  18.028  0.00  0.00    +0.000 C 
ATOM     13  O   UNL     1      -5.102  11.479  17.365  0.00  0.00    +0.000 OA
ATOM     14  C   UNL     1      -2.821  10.663  17.793  0.00  0.00    +0.000 C 
ATOM     15  O   UNL     1      -2.645   9.883  16.882  0.00  0.00    +0.000 OA
ENDROOT
BRANCH   1  20
ATOM     16  C   UNL     1       1.461   9.254  18.766  0.00  0.00    +0.000 A 
ATOM     17  C   UNL     1       1.504   8.693  20.046  0.00  0.00    +0.000 A 
ATOM     18  C   UNL     1       0.454   8.891  20.944  0.00  0.00    +0.000 A 
ATOM     19  C   UNL     1      -0.649   9.645  20.555  0.00  0.00    +0.000 A 
ATOM     20  C   UNL     1      -0.716  10.198  19.267  0.00  0.00    +0.000 A 
ATOM     21  C   UNL     1       0.350  10.008  18.378  0.00  0.00    +0.000 A 
BRANCH  16  23
ATOM     22  C   UNL     1       2.934   7.617  17.865  0.00  0.00    +0.000 C 
ATOM     23  O   UNL     1       2.557   8.980  17.995  0.00  0.00    +0.000 OA
ENDBRANCH  16  23
ENDBRANCH   1  20
BRANCH   5  24
ATOM     24  O   UNL     1       0.911  14.201  22.322  0.00  0.00    +0.000 OA
ATOM     25  C   UNL     1       1.415  14.999  21.250  0.00  0.00    +0.000 C 
ENDBRANCH   5  24
BRANCH   6  26
ATOM     26  O   UNL     1      -0.792  14.478  24.336  0.00  0.00    +0.000 OA
ATOM     27  C   UNL     1      -1.688  15.257  25.113  0.00  0.00    +0.000 C 
ENDBRANCH   6  26
TORSDOF 4
ENDMDL
MODEL 8
REMARK VINA RESULT:      -7.1      6.875      9.608
REMARK  Name = 
REMARK  7 active torsions:
REMARK  status: ('A' for Active; 'I' for Inactive)
REMARK    1  A    between atoms: C_1  and  O_2
REMARK    2  A    between atoms: O_2  and  C_3
REMARK    3  A    between atoms: C_7  and  C_8
REMARK    4  A    between atoms: C_12  and  O_13
REMARK    5  A    between atoms: O_13  and  C_14
REMARK    6  A    between atoms: C_15  and  O_16
REMARK    7  A    between atoms: O_16  and  C_17
REMARK                            x       y       z     vdW  Elec       q    Type
REMARK                         _______ _______ _______ _____ _____    ______ ____
ROOT
ATOM      1  C   UNL     1      -0.199  13.332  21.080  0.00  0.00    +0.000 C 
ATOM      2  C   UNL     1       0.124  12.726  19.921  0.00  0.00    +0.000 C 
ATOM      3  C   UNL     1      -0.718  11.906  19.049  0.00  0.00    +0.000 A 
ATOM      4  C   UNL     1      -2.025  12.278  18.736  0.00  0.00    +0.000 A 
ATOM      5  C   UNL     1      -2.800  11.499  17.877  0.00  0.00    +0.000 A 
ATOM      6  C   UNL     1      -2.285  10.287  17.381  0.00  0.00    +0.000 A 
ATOM      7  C   UNL     1      -0.949   9.944  17.646  0.00  0.00    +0.000 A 
ATOM      8  C   UNL     1      -0.144  10.791  18.419  0.00  0.00    +0.000 A 
ATOM      9  C   UNL     1       1.347  10.569  18.586  0.00  0.00    +0.000 C 
ATOM     10  C   UNL     1       2.066  11.937  18.612  0.00  0.00    +0.000 C 
ATOM     11  N   UNL     1       1.467  12.803  19.619  0.00  0.00    +0.000 N 
ATOM     12  C   UNL     1       2.146  13.576  20.519  0.00  0.00    +0.000 C 
ATOM     13  O   UNL     1       3.320  13.862  20.580  0.00  0.00    +0.000 OA
ATOM     14  C   UNL     1       1.053  13.984  21.527  0.00  0.00    +0.000 C 
ATOM     15  O   UNL     1       1.212  14.684  22.503  0.00  0.00    +0.000 OA
ENDROOT
BRANCH   1  20
ATOM     16  C   UNL     1      -3.584  13.928  22.634  0.00  0.00    +0.000 A 
ATOM     17  C   UNL     1      -3.683  12.799  23.453  0.00  0.00    +0.000 A 
ATOM     18  C   UNL     1      -2.659  11.851  23.483  0.00  0.00    +0.000 A 
ATOM     19  C   UNL     1      -1.527  12.039  22.696  0.00  0.00    +0.000 A 
ATOM     20  C   UNL     1      -1.405  13.176  21.883  0.00  0.00    +0.000 A 
ATOM     21  C   UNL     1      -2.445  14.113  21.847  0.00  0.00    +0.000 A 
BRANCH  16  23
ATOM     22  C   UNL     1      -5.643  14.483  23.689  0.00  0.00    +0.000 C 
ATOM     23  O   UNL     1      -4.661  14.769  22.704  0.00  0.00    +0.000 OA
ENDBRANCH  16  23
ENDBRANCH   1  20
BRANCH   5  24
ATOM     24  O   UNL     1      -4.075  11.858  17.508  0.00  0.00    +0.000 OA
ATOM     25  C   UNL     1      -5.036  11.882  18.563  0.00  0.00    +0.000 C 
ENDBRANCH   5  24
BRANCH   6  26
ATOM     26  O   UNL     1      -3.142   9.544  16.609  0.00  0.00    +0.000 OA
ATOM     27  C   UNL     1      -3.068   9.705  15.201  0.00  0.00    +0.000 C 
ENDBRANCH   6  26
TORSDOF 4
ENDMDL
MODEL 9
REMARK VINA RESULT:      -7.1      7.447     10.479
REMARK  Name = 
REMARK  7 active torsions:
REMARK  status: ('A' for Active; 'I' for Inactive)
REMARK    1  A    between atoms: C_1  and  O_2
REMARK    2  A    between atoms: O_2  and  C_3
REMARK    3  A    between atoms: C_7  and  C_8
REMARK    4  A    between atoms: C_12  and  O_13
REMARK    5  A    between atoms: O_13  and  C_14
REMARK    6  A    between atoms: C_15  and  O_16
REMARK    7  A    between atoms: O_16  and  C_17
REMARK                            x       y       z     vdW  Elec       q    Type
REMARK                         _______ _______ _______ _____ _____    ______ ____
ROOT
ATOM      1  C   UNL     1      -4.240  12.836  21.024  0.00  0.00    +0.000 C 
ATOM      2  C   UNL     1      -4.845  12.188  20.010  0.00  0.00    +0.000 C 
ATOM      3  C   UNL     1      -4.280  11.757  18.730  0.00  0.00    +0.000 A 
ATOM      4  C   UNL     1      -3.028  11.150  18.652  0.00  0.00    +0.000 A 
ATOM      5  C   UNL     1      -2.522  10.717  17.427  0.00  0.00    +0.000 A 
ATOM      6  C   UNL     1      -3.248  10.964  16.247  0.00  0.00    +0.000 A 
ATOM      7  C   UNL     1      -4.535  11.519  16.332  0.00  0.00    +0.000 A 
ATOM      8  C   UNL     1      -5.080  11.847  17.580  0.00  0.00    +0.000 A 
ATOM      9  C   UNL     1      -6.526  12.276  17.751  0.00  0.00    +0.000 C 
ATOM     10  C   UNL     1      -7.077  11.692  19.072  0.00  0.00    +0.000 C 
ATOM     11  N   UNL     1      -6.205  12.048  20.184  0.00  0.00    +0.000 N 
ATOM     12  C   UNL     1      -6.610  12.507  21.407  0.00  0.00    +0.000 C 
ATOM     13  O   UNL     1      -7.713  12.551  21.902  0.00  0.00    +0.000 OA
ATOM     14  C   UNL     1      -5.305  13.035  22.033  0.00  0.00    +0.000 C 
ATOM     15  O   UNL     1      -5.196  13.535  23.131  0.00  0.00    +0.000 OA
ENDROOT
BRANCH   1  20
ATOM     16  C   UNL     1      -0.520  13.370  21.354  0.00  0.00    +0.000 A 
ATOM     17  C   UNL     1      -0.440  14.737  21.072  0.00  0.00    +0.000 A 
ATOM     18  C   UNL     1      -1.589  15.467  20.763  0.00  0.00    +0.000 A 
ATOM     19  C   UNL     1      -2.825  14.828  20.748  0.00  0.00    +0.000 A 
ATOM     20  C   UNL     1      -2.924  13.461  21.048  0.00  0.00    +0.000 A 
ATOM     21  C   UNL     1      -1.764  12.733  21.340  0.00  0.00    +0.000 A 
BRANCH  16  23
ATOM     22  C   UNL     1       1.744  13.009  20.720  0.00  0.00    +0.000 C 
ATOM     23  O   UNL     1       0.683  12.783  21.636  0.00  0.00    +0.000 OA
ENDBRANCH  16  23
ENDBRANCH   1  20
BRANCH   5  24
ATOM     24  O   UNL     1      -1.313  10.071  17.317  0.00  0.00    +0.000 OA
ATOM     25  C   UNL     1      -0.377  10.339  18.362  0.00  0.00    +0.000 C 
ENDBRANCH   5  24
BRANCH   6  26
ATOM     26  O   UNL     1      -2.642  10.578  15.079  0.00  0.00    +0.000 OA
ATOM     27  C   UNL     1      -3.466  10.052  14.051  0.00  0.00    +0.000 C 
ENDBRANCH   6  26
TORSDOF 4
ENDMDL
