MODEL 1
REMARK VINA RESULT:      -7.9      0.000      0.000
REMARK  Name = 
REMARK  7 active torsions:
REMARK  status: ('A' for Active; 'I' for Inactive)
REMARK    1  A    between atoms: C_1  and  C_2
REMARK    2  A    between atoms: C_2  and  O_3
REMARK    3  A    between atoms: O_3  and  C_4
REMARK    4  A    between atoms: C_4  and  C_6
REMARK    5  A    between atoms: C_8  and  C_9
REMARK    6  A    between atoms: C_9  and  C_10
REMARK    7  A    between atoms: C_10  and  C_11
REMARK                            x       y       z     vdW  Elec       q    Type
REMARK                         _______ _______ _______ _____ _____    ______ ____
ROOT
ATOM      1  C   UNL     1       5.383   5.787  17.530  0.00  0.00    +0.000 C 
ENDROOT
BRANCH   1   4
ATOM      2  C   UNL     1       6.701   4.817  14.225  0.00  0.00    +0.000 A 
ATOM      3  C   UNL     1       5.600   4.761  15.114  0.00  0.00    +0.000 A 
ATOM      4  C   UNL     1       6.005   5.465  16.221  0.00  0.00    +0.000 A 
ATOM      5  O   UNL     1       7.259   5.942  16.008  0.00  0.00    +0.000 OA
ATOM      6  N   UNL     1       7.700   5.540  14.759  0.00  0.00    +0.000 NA
BRANCH   2   7
ATOM      7  C   UNL     1       6.801   4.139  12.937  0.00  0.00    +0.000 C 
ATOM      8  O   UNL     1       7.398   4.622  11.981  0.00  0.00    +0.000 OA
BRANCH   7   9
ATOM      9  O   UNL     1       6.095   2.972  12.894  0.00  0.00    +0.000 OA
BRANCH   9  11
ATOM     10  C   UNL     1       6.080   1.247  11.241  0.00  0.00    +0.000 C 
ATOM     11  C   UNL     1       5.559   2.625  11.613  0.00  0.00    +0.000 C 
ENDBRANCH   9  11
ENDBRANCH   7   9
ENDBRANCH   2   7
ENDBRANCH   1   4
BRANCH   1  12
ATOM     12  C   UNL     1       3.998   6.411  17.344  0.00  0.00    +0.000 C 
BRANCH  12  13
ATOM     13  C   UNL     1       3.015   6.042  18.428  0.00  0.00    +0.000 A 
ATOM     14  C   UNL     1       2.660   7.027  19.357  0.00  0.00    +0.000 A 
ATOM     15  C   UNL     1       1.832   6.679  20.403  0.00  0.00    +0.000 A 
ATOM     16  N   UNL     1       1.346   5.437  20.594  0.00  0.00    +0.000 NA
ATOM     17  C   UNL     1       1.666   4.487  19.701  0.00  0.00    +0.000 A 
ATOM     18  C   UNL     1       1.179   3.205  19.909  0.00  0.00    +0.000 A 
ATOM     19  C   UNL     1       1.448   2.157  19.026  0.00  0.00    +0.000 A 
ATOM     20  C   UNL     1       2.213   2.394  17.894  0.00  0.00    +0.000 A 
ATOM     21  C   UNL     1       2.725   3.671  17.666  0.00  0.00    +0.000 A 
ATOM     22  C   UNL     1       2.481   4.737  18.572  0.00  0.00    +0.000 A 
ENDBRANCH  12  13
ENDBRANCH   1  12
TORSDOF 6
ENDMDL
MODEL 2
REMARK VINA RESULT:      -7.8      1.652      2.334
REMARK  Name = 
REMARK  7 active torsions:
REMARK  status: ('A' for Active; 'I' for Inactive)
REMARK    1  A    between atoms: C_1  and  C_2
REMARK    2  A    between atoms: C_2  and  O_3
REMARK    3  A    between atoms: O_3  and  C_4
REMARK    4  A    between atoms: C_4  and  C_6
REMARK    5  A    between atoms: C_8  and  C_9
REMARK    6  A    between atoms: C_9  and  C_10
REMARK    7  A    between atoms: C_10  and  C_11
REMARK                            x       y       z     vdW  Elec       q    Type
REMARK                         _______ _______ _______ _____ _____    ______ ____
ROOT
ATOM      1  C   UNL     1       6.948   5.188  16.230  0.00  0.00    +0.000 C 
ENDROOT
BRANCH   1   4
ATOM      2  C   UNL     1       5.986   3.777  12.960  0.00  0.00    +0.000 A 
ATOM      3  C   UNL     1       5.614   3.968  14.314  0.00  0.00    +0.000 A 
ATOM      4  C   UNL     1       6.653   4.674  14.869  0.00  0.00    +0.000 A 
ATOM      5  O   UNL     1       7.583   4.920  13.908  0.00  0.00    +0.000 OA
ATOM      6  N   UNL     1       7.170   4.362  12.711  0.00  0.00    +0.000 NA
BRANCH   2   7
ATOM      7  C   UNL     1       5.250   3.001  11.968  0.00  0.00    +0.000 C 
ATOM      8  O   UNL     1       5.661   1.932  11.530  0.00  0.00    +0.000 OA
BRANCH   7   9
ATOM      9  O   UNL     1       4.122   3.632  11.528  0.00  0.00    +0.000 OA
BRANCH   9  11
ATOM     10  C   UNL     1       2.765   4.141   9.630  0.00  0.00    +0.000 C 
ATOM     11  C   UNL     1       3.496   3.044  10.384  0.00  0.00    +0.000 C 
ENDBRANCH   9  11
ENDBRANCH   7   9
ENDBRANCH   2   7
ENDBRANCH   1   4
BRANCH   1  12
ATOM     12  C   UNL     1       6.204   4.381  17.297  0.00  0.00    +0.000 C 
BRANCH  12  13
ATOM     13  C   UNL     1       4.821   4.905  17.599  0.00  0.00    +0.000 A 
ATOM     14  C   UNL     1       4.612   6.287  17.535  0.00  0.00    +0.000 A 
ATOM     15  C   UNL     1       3.378   6.785  17.894  0.00  0.00    +0.000 A 
ATOM     16  N   UNL     1       2.353   6.019  18.314  0.00  0.00    +0.000 NA
ATOM     17  C   UNL     1       2.535   4.690  18.365  0.00  0.00    +0.000 A 
ATOM     18  C   UNL     1       1.484   3.904  18.815  0.00  0.00    +0.000 A 
ATOM     19  C   UNL     1       1.577   2.512  18.887  0.00  0.00    +0.000 A 
ATOM     20  C   UNL     1       2.745   1.882  18.486  0.00  0.00    +0.000 A 
ATOM     21  C   UNL     1       3.821   2.649  18.041  0.00  0.00    +0.000 A 
ATOM     22  C   UNL     1       3.748   4.065  17.990  0.00  0.00    +0.000 A 
ENDBRANCH  12  13
ENDBRANCH   1  12
TORSDOF 6
ENDMDL
MODEL 3
REMARK VINA RESULT:      -7.6      0.925      1.211
REMARK  Name = 
REMARK  7 active torsions:
REMARK  status: ('A' for Active; 'I' for Inactive)
REMARK    1  A    between atoms: C_1  and  C_2
REMARK    2  A    between atoms: C_2  and  O_3
REMARK    3  A    between atoms: O_3  and  C_4
REMARK    4  A    between atoms: C_4  and  C_6
REMARK    5  A    between atoms: C_8  and  C_9
REMARK    6  A    between atoms: C_9  and  C_10
REMARK    7  A    between atoms: C_10  and  C_11
REMARK                            x       y       z     vdW  Elec       q    Type
REMARK                         _______ _______ _______ _____ _____    ______ ____
ROOT
ATOM      1  C   UNL     1       5.284   5.440  16.987  0.00  0.00    +0.000 C 
ENDROOT
BRANCH   1   4
ATOM      2  C   UNL     1       6.677   4.493  13.705  0.00  0.00    +0.000 A 
ATOM      3  C   UNL     1       5.576   4.389  14.589  0.00  0.00    +0.000 A 
ATOM      4  C   UNL     1       5.932   5.133  15.687  0.00  0.00    +0.000 A 
ATOM      5  O   UNL     1       7.159   5.676  15.473  0.00  0.00    +0.000 OA
ATOM      6  N   UNL     1       7.631   5.280  14.233  0.00  0.00    +0.000 NA
BRANCH   2   7
ATOM      7  C   UNL     1       6.824   3.801  12.429  0.00  0.00    +0.000 C 
ATOM      8  O   UNL     1       7.401   4.301  11.470  0.00  0.00    +0.000 OA
BRANCH   7   9
ATOM      9  O   UNL     1       6.182   2.597  12.400  0.00  0.00    +0.000 OA
BRANCH   9  11
ATOM     10  C   UNL     1       4.149   3.237  11.323  0.00  0.00    +0.000 C 
ATOM     11  C   UNL     1       5.383   2.355  11.239  0.00  0.00    +0.000 C 
ENDBRANCH   9  11
ENDBRANCH   7   9
ENDBRANCH   2   7
ENDBRANCH   1   4
BRANCH   1  12
ATOM     12  C   UNL     1       3.908   4.777  17.087  0.00  0.00    +0.000 C 
BRANCH  12  13
ATOM     13  C   UNL     1       3.109   5.216  18.290  0.00  0.00    +0.000 A 
ATOM     14  C   UNL     1       3.017   6.588  18.554  0.00  0.00    +0.000 A 
ATOM     15  C   UNL     1       2.365   6.996  19.698  0.00  0.00    +0.000 A 
ATOM     16  N   UNL     1       1.814   6.151  20.590  0.00  0.00    +0.000 NA
ATOM     17  C   UNL     1       1.882   4.834  20.341  0.00  0.00    +0.000 A 
ATOM     18  C   UNL     1       1.329   3.964  21.270  0.00  0.00    +0.000 A 
ATOM     19  C   UNL     1       1.340   2.580  21.087  0.00  0.00    +0.000 A 
ATOM     20  C   UNL     1       1.904   2.044  19.940  0.00  0.00    +0.000 A 
ATOM     21  C   UNL     1       2.477   2.895  18.995  0.00  0.00    +0.000 A 
ATOM     22  C   UNL     1       2.497   4.301  19.183  0.00  0.00    +0.000 A 
ENDBRANCH  12  13
ENDBRANCH   1  12
TORSDOF 6
ENDMDL
MODEL 4
REMARK VINA RESULT:      -7.6      1.066      1.289
REMARK  Name = 
REMARK  7 active torsions:
REMARK  status: ('A' for Active; 'I' for Inactive)
REMARK    1  A    between atoms: C_1  and  C_2
REMARK    2  A    between atoms: C_2  and  O_3
REMARK    3  A    between atoms: O_3  and  C_4
REMARK    4  A    between atoms: C_4  and  C_6
REMARK    5  A    between atoms: C_8  and  C_9
REMARK    6  A    between atoms: C_9  and  C_10
REMARK    7  A    between atoms: C_10  and  C_11
REMARK                            x       y       z     vdW  Elec       q    Type
REMARK                         _______ _______ _______ _____ _____    ______ ____
ROOT
ATOM      1  C   UNL     1       5.761   6.411  17.102  0.00  0.00    +0.000 C 
ENDROOT
BRANCH   1   4
ATOM      2  C   UNL     1       6.294   4.598  13.935  0.00  0.00    +0.000 A 
ATOM      3  C   UNL     1       5.368   4.949  14.947  0.00  0.00    +0.000 A 
ATOM      4  C   UNL     1       6.081   5.730  15.822  0.00  0.00    +0.000 A 
ATOM      5  O   UNL     1       7.351   5.868  15.358  0.00  0.00    +0.000 OA
ATOM      6  N   UNL     1       7.490   5.163  14.176  0.00  0.00    +0.000 NA
BRANCH   2   7
ATOM      7  C   UNL     1       6.044   3.696  12.816  0.00  0.00    +0.000 C 
ATOM      8  O   UNL     1       6.945   3.107  12.228  0.00  0.00    +0.000 OA
BRANCH   7   9
ATOM      9  O   UNL     1       4.730   3.654  12.450  0.00  0.00    +0.000 OA
BRANCH   9  11
ATOM     10  C   UNL     1       3.369   3.671  10.486  0.00  0.00    +0.000 C 
ATOM     11  C   UNL     1       4.449   2.925  11.251  0.00  0.00    +0.000 C 
ENDBRANCH   9  11
ENDBRANCH   7   9
ENDBRANCH   2   7
ENDBRANCH   1   4
BRANCH   1  12
ATOM     12  C   UNL     1       5.545   5.397  18.228  0.00  0.00    +0.000 C 
BRANCH  12  13
ATOM     13  C   UNL     1       4.122   5.336  18.726  0.00  0.00    +0.000 A 
ATOM     14  C   UNL     1       3.590   6.477  19.337  0.00  0.00    +0.000 A 
ATOM     15  C   UNL     1       2.322   6.407  19.875  0.00  0.00    +0.000 A 
ATOM     16  N   UNL     1       1.561   5.296  19.857  0.00  0.00    +0.000 NA
ATOM     17  C   UNL     1       2.053   4.200  19.260  0.00  0.00    +0.000 A 
ATOM     18  C   UNL     1       1.274   3.051  19.259  0.00  0.00    +0.000 A 
ATOM     19  C   UNL     1       1.698   1.869  18.650  0.00  0.00    +0.000 A 
ATOM     20  C   UNL     1       2.927   1.830  18.010  0.00  0.00    +0.000 A 
ATOM     21  C   UNL     1       3.736   2.966  18.006  0.00  0.00    +0.000 A 
ATOM     22  C   UNL     1       3.328   4.165  18.647  0.00  0.00    +0.000 A 
ENDBRANCH  12  13
ENDBRANCH   1  12
TORSDOF 6
ENDMDL
MODEL 5
REMARK VINA RESULT:      -7.4      1.494      1.943
REMARK  Name = 
REMARK  7 active torsions:
REMARK  status: ('A' for Active; 'I' for Inactive)
REMARK    1  A    between atoms: C_1  and  C_2
REMARK    2  A    between atoms: C_2  and  O_3
REMARK    3  A    between atoms: O_3  and  C_4
REMARK    4  A    between atoms: C_4  and  C_6
REMARK    5  A    between atoms: C_8  and  C_9
REMARK    6  A    between atoms: C_9  and  C_10
REMARK    7  A    between atoms: C_10  and  C_11
REMARK                            x       y       z     vdW  Elec       q    Type
REMARK                         _______ _______ _______ _____ _____    ______ ____
ROOT
ATOM      1  C   UNL     1       6.571   5.028  17.000  0.00  0.00    +0.000 C 
ENDROOT
BRANCH   1   4
ATOM      2  C   UNL     1       6.354   4.055  13.449  0.00  0.00    +0.000 A 
ATOM      3  C   UNL     1       5.827   3.877  14.751  0.00  0.00    +0.000 A 
ATOM      4  C   UNL     1       6.560   4.721  15.548  0.00  0.00    +0.000 A 
ATOM      5  O   UNL     1       7.456   5.390  14.775  0.00  0.00    +0.000 OA
ATOM      6  N   UNL     1       7.331   4.978  13.460  0.00  0.00    +0.000 NA
BRANCH   2   7
ATOM      7  C   UNL     1       5.969   3.310  12.256  0.00  0.00    +0.000 C 
ATOM      8  O   UNL     1       4.826   3.321  11.811  0.00  0.00    +0.000 OA
BRANCH   7   9
ATOM      9  O   UNL     1       6.983   2.545  11.755  0.00  0.00    +0.000 OA
BRANCH   9  11
ATOM     10  C   UNL     1       6.336   0.280  11.360  0.00  0.00    +0.000 C 
ATOM     11  C   UNL     1       6.609   1.631  10.720  0.00  0.00    +0.000 C 
ENDBRANCH   9  11
ENDBRANCH   7   9
ENDBRANCH   2   7
ENDBRANCH   1   4
BRANCH   1  12
ATOM     12  C   UNL     1       5.539   4.183  17.750  0.00  0.00    +0.000 C 
BRANCH  12  13
ATOM     13  C   UNL     1       4.367   4.978  18.272  0.00  0.00    +0.000 A 
ATOM     14  C   UNL     1       4.163   6.263  17.758  0.00  0.00    +0.000 A 
ATOM     15  C   UNL     1       3.149   7.033  18.289  0.00  0.00    +0.000 A 
ATOM     16  N   UNL     1       2.342   6.624  19.286  0.00  0.00    +0.000 NA
ATOM     17  C   UNL     1       2.517   5.387  19.777  0.00  0.00    +0.000 A 
ATOM     18  C   UNL     1       1.695   4.975  20.817  0.00  0.00    +0.000 A 
ATOM     19  C   UNL     1       1.795   3.701  21.380  0.00  0.00    +0.000 A 
ATOM     20  C   UNL     1       2.730   2.805  20.886  0.00  0.00    +0.000 A 
ATOM     21  C   UNL     1       3.576   3.197  19.849  0.00  0.00    +0.000 A 
ATOM     22  C   UNL     1       3.503   4.498  19.288  0.00  0.00    +0.000 A 
ENDBRANCH  12  13
ENDBRANCH   1  12
TORSDOF 6
ENDMDL
MODEL 6
REMARK VINA RESULT:      -7.4      2.937      5.100
REMARK  Name = 
REMARK  7 active torsions:
REMARK  status: ('A' for Active; 'I' for Inactive)
REMARK    1  A    between atoms: C_1  and  C_2
REMARK    2  A    between atoms: C_2  and  O_3
REMARK    3  A    between atoms: O_3  and  C_4
REMARK    4  A    between atoms: C_4  and  C_6
REMARK    5  A    between atoms: C_8  and  C_9
REMARK    6  A    between atoms: C_9  and  C_10
REMARK    7  A    between atoms: C_10  and  C_11
REMARK                            x       y       z     vdW  Elec       q    Type
REMARK                         _______ _______ _______ _____ _____    ______ ____
ROOT
ATOM      1  C   UNL     1       2.431   5.744  18.921  0.00  0.00    +0.000 C 
ENDROOT
BRANCH   1   4
ATOM      2  C   UNL     1       5.886   5.252  17.730  0.00  0.00    +0.000 A 
ATOM      3  C   UNL     1       4.540   5.494  17.364  0.00  0.00    +0.000 A 
ATOM      4  C   UNL     1       3.856   5.551  18.552  0.00  0.00    +0.000 A 
ATOM      5  O   UNL     1       4.733   5.382  19.576  0.00  0.00    +0.000 OA
ATOM      6  N   UNL     1       6.007   5.196  19.067  0.00  0.00    +0.000 NA
BRANCH   2   7
ATOM      7  C   UNL     1       6.998   5.020  16.814  0.00  0.00    +0.000 C 
ATOM      8  O   UNL     1       7.992   4.376  17.133  0.00  0.00    +0.000 OA
BRANCH   7   9
ATOM      9  O   UNL     1       6.846   5.662  15.619  0.00  0.00    +0.000 OA
BRANCH   9  11
ATOM     10  C   UNL     1       5.806   4.107  14.134  0.00  0.00    +0.000 C 
ATOM     11  C   UNL     1       7.084   4.861  14.457  0.00  0.00    +0.000 C 
ENDBRANCH   9  11
ENDBRANCH   7   9
ENDBRANCH   2   7
ENDBRANCH   1   4
BRANCH   1  12
ATOM     12  C   UNL     1       2.289   6.744  20.070  0.00  0.00    +0.000 C 
BRANCH  12  13
ATOM     13  C   UNL     1       1.760   8.091  19.642  0.00  0.00    +0.000 A 
ATOM     14  C   UNL     1       2.057   8.534  18.348  0.00  0.00    +0.000 A 
ATOM     15  C   UNL     1       1.655   9.799  17.975  0.00  0.00    +0.000 A 
ATOM     16  N   UNL     1       0.996  10.646  18.788  0.00  0.00    +0.000 NA
ATOM     17  C   UNL     1       0.691  10.228  20.026  0.00  0.00    +0.000 A 
ATOM     18  C   UNL     1       0.028  11.110  20.868  0.00  0.00    +0.000 A 
ATOM     19  C   UNL     1      -0.343  10.757  22.167  0.00  0.00    +0.000 A 
ATOM     20  C   UNL     1      -0.059   9.485  22.639  0.00  0.00    +0.000 A 
ATOM     21  C   UNL     1       0.617   8.583  21.819  0.00  0.00    +0.000 A 
ATOM     22  C   UNL     1       1.024   8.940  20.507  0.00  0.00    +0.000 A 
ENDBRANCH  12  13
ENDBRANCH   1  12
TORSDOF 6
ENDMDL
MODEL 7
REMARK VINA RESULT:      -7.4      1.499      2.529
REMARK  Name = 
REMARK  7 active torsions:
REMARK  status: ('A' for Active; 'I' for Inactive)
REMARK    1  A    between atoms: C_1  and  C_2
REMARK    2  A    between atoms: C_2  and  O_3
REMARK    3  A    between atoms: O_3  and  C_4
REMARK    4  A    between atoms: C_4  and  C_6
REMARK    5  A    between atoms: C_8  and  C_9
REMARK    6  A    between atoms: C_9  and  C_10
REMARK    7  A    between atoms: C_10  and  C_11
REMARK                            x       y       z     vdW  Elec       q    Type
REMARK                         _______ _______ _______ _____ _____    ______ ____
ROOT
ATOM      1  C   UNL     1       5.972   5.395  16.895  0.00  0.00    +0.000 C 
ENDROOT
BRANCH   1   4
ATOM      2  C   UNL     1       6.615   4.344  13.418  0.00  0.00    +0.000 A 
ATOM      3  C   UNL     1       5.730   4.278  14.522  0.00  0.00    +0.000 A 
ATOM      4  C   UNL     1       6.321   5.045  15.495  0.00  0.00    +0.000 A 
ATOM      5  O   UNL     1       7.477   5.566  15.005  0.00  0.00    +0.000 OA
ATOM      6  N   UNL     1       7.666   5.132  13.705  0.00  0.00    +0.000 NA
BRANCH   2   7
ATOM      7  C   UNL     1       6.478   3.617  12.161  0.00  0.00    +0.000 C 
ATOM      8  O   UNL     1       7.339   2.849  11.745  0.00  0.00    +0.000 OA
BRANCH   7   9
ATOM      9  O   UNL     1       5.347   3.951  11.474  0.00  0.00    +0.000 OA
BRANCH   9  11
ATOM     10  C   UNL     1       3.286   3.396  10.402  0.00  0.00    +0.000 C 
ATOM     11  C   UNL     1       4.383   2.904  11.330  0.00  0.00    +0.000 C 
ENDBRANCH   9  11
ENDBRANCH   7   9
ENDBRANCH   2   7
ENDBRANCH   1   4
BRANCH   1  12
ATOM     12  C   UNL     1       4.458   5.530  17.068  0.00  0.00    +0.000 C 
BRANCH  12  13
ATOM     13  C   UNL     1       3.820   4.355  17.769  0.00  0.00    +0.000 A 
ATOM     14  C   UNL     1       4.091   3.071  17.282  0.00  0.00    +0.000 A 
ATOM     15  C   UNL     1       3.446   1.998  17.858  0.00  0.00    +0.000 A 
ATOM     16  N   UNL     1       2.556   2.108  18.863  0.00  0.00    +0.000 NA
ATOM     17  C   UNL     1       2.299   3.332  19.350  0.00  0.00    +0.000 A 
ATOM     18  C   UNL     1       1.369   3.446  20.373  0.00  0.00    +0.000 A 
ATOM     19  C   UNL     1       1.049   4.676  20.951  0.00  0.00    +0.000 A 
ATOM     20  C   UNL     1       1.683   5.827  20.508  0.00  0.00    +0.000 A 
ATOM     21  C   UNL     1       2.613   5.743  19.473  0.00  0.00    +0.000 A 
ATOM     22  C   UNL     1       2.926   4.502  18.859  0.00  0.00    +0.000 A 
ENDBRANCH  12  13
ENDBRANCH   1  12
TORSDOF 6
ENDMDL
MODEL 8
REMARK VINA RESULT:      -7.3      6.661      9.250
REMARK  Name = 
REMARK  7 active torsions:
REMARK  status: ('A' for Active; 'I' for Inactive)
REMARK    1  A    between atoms: C_1  and  C_2
REMARK    2  A    between atoms: C_2  and  O_3
REMARK    3  A    between atoms: O_3  and  C_4
REMARK    4  A    between atoms: C_4  and  C_6
REMARK    5  A    between atoms: C_8  and  C_9
REMARK    6  A    between atoms: C_9  and  C_10
REMARK    7  A    between atoms: C_10  and  C_11
REMARK                            x       y       z     vdW  Elec       q    Type
REMARK                         _______ _______ _______ _____ _____    ______ ____
ROOT
ATOM      1  C   UNL     1       8.915   9.568  18.820  0.00  0.00    +0.000 C 
ENDROOT
BRANCH   1   4
ATOM      2  C   UNL     1       7.541   6.321  17.736  0.00  0.00    +0.000 A 
ATOM      3  C   UNL     1       8.257   7.019  18.739  0.00  0.00    +0.000 A 
ATOM      4  C   UNL     1       8.309   8.318  18.297  0.00  0.00    +0.000 A 
ATOM      5  O   UNL     1       7.644   8.409  17.115  0.00  0.00    +0.000 OA
ATOM      6  N   UNL     1       7.159   7.163  16.760  0.00  0.00    +0.000 NA
BRANCH   2   7
ATOM      7  C   UNL     1       7.295   4.884  17.697  0.00  0.00    +0.000 C 
ATOM      8  O   UNL     1       7.937   4.124  16.978  0.00  0.00    +0.000 OA
BRANCH   7   9
ATOM      9  O   UNL     1       6.234   4.504  18.467  0.00  0.00    +0.000 OA
BRANCH   9  11
ATOM     10  C   UNL     1       4.158   5.043  17.416  0.00  0.00    +0.000 C 
ATOM     11  C   UNL     1       5.134   3.929  17.756  0.00  0.00    +0.000 C 
ENDBRANCH   9  11
ENDBRANCH   7   9
ENDBRANCH   2   7
ENDBRANCH   1   4
BRANCH   1  12
ATOM     12  C   UNL     1       8.421  10.788  18.040  0.00  0.00    +0.000 C 
BRANCH  12  13
ATOM     13  C   UNL     1       9.451  11.885  17.912  0.00  0.00    +0.000 A 
ATOM     14  C   UNL     1      10.802  11.520  17.901  0.00  0.00    +0.000 A 
ATOM     15  C   UNL     1      11.754  12.518  17.873  0.00  0.00    +0.000 A 
ATOM     16  N   UNL     1      11.462  13.832  17.865  0.00  0.00    +0.000 NA
ATOM     17  C   UNL     1      10.170  14.195  17.860  0.00  0.00    +0.000 A 
ATOM     18  C   UNL     1       9.872  15.550  17.870  0.00  0.00    +0.000 A 
ATOM     19  C   UNL     1       8.557  16.020  17.850  0.00  0.00    +0.000 A 
ATOM     20  C   UNL     1       7.507  15.116  17.805  0.00  0.00    +0.000 A 
ATOM     21  C   UNL     1       7.777  13.748  17.806  0.00  0.00    +0.000 A 
ATOM     22  C   UNL     1       9.109  13.259  17.854  0.00  0.00    +0.000 A 
ENDBRANCH  12  13
ENDBRANCH   1  12
TORSDOF 6
ENDMDL
MODEL 9
REMARK VINA RESULT:      -7.3      1.386      2.472
REMARK  Name = 
REMARK  7 active torsions:
REMARK  status: ('A' for Active; 'I' for Inactive)
REMARK    1  A    between atoms: C_1  and  C_2
REMARK    2  A    between atoms: C_2  and  O_3
REMARK    3  A    between atoms: O_3  and  C_4
REMARK    4  A    between atoms: C_4  and  C_6
REMARK    5  A    between atoms: C_8  and  C_9
REMARK    6  A    between atoms: C_9  and  C_10
REMARK    7  A    between atoms: C_10  and  C_11
REMARK                            x       y       z     vdW  Elec       q    Type
REMARK                         _______ _______ _______ _____ _____    ______ ____
ROOT
ATOM      1  C   UNL     1       5.646   5.780  17.818  0.00  0.00    +0.000 C 
ENDROOT
BRANCH   1   4
ATOM      2  C   UNL     1       6.659   4.844  14.397  0.00  0.00    +0.000 A 
ATOM      3  C   UNL     1       5.645   4.776  15.383  0.00  0.00    +0.000 A 
ATOM      4  C   UNL     1       6.147   5.472  16.454  0.00  0.00    +0.000 A 
ATOM      5  O   UNL     1       7.375   5.956  16.131  0.00  0.00    +0.000 OA
ATOM      6  N   UNL     1       7.700   5.567  14.843  0.00  0.00    +0.000 NA
BRANCH   2   7
ATOM      7  C   UNL     1       6.643   4.178  13.099  0.00  0.00    +0.000 C 
ATOM      8  O   UNL     1       7.456   4.431  12.217  0.00  0.00    +0.000 OA
BRANCH   7   9
ATOM      9  O   UNL     1       5.588   3.324  12.952  0.00  0.00    +0.000 OA
BRANCH   9  11
ATOM     10  C   UNL     1       5.753   1.575  11.334  0.00  0.00    +0.000 C 
ATOM     11  C   UNL     1       5.256   2.985  11.603  0.00  0.00    +0.000 C 
ENDBRANCH   9  11
ENDBRANCH   7   9
ENDBRANCH   2   7
ENDBRANCH   1   4
BRANCH   1  12
ATOM     12  C   UNL     1       5.776   4.565  18.740  0.00  0.00    +0.000 C 
BRANCH  12  13
ATOM     13  C   UNL     1       4.553   3.680  18.754  0.00  0.00    +0.000 A 
ATOM     14  C   UNL     1       4.626   2.448  18.094  0.00  0.00    +0.000 A 
ATOM     15  C   UNL     1       3.489   1.670  18.024  0.00  0.00    +0.000 A 
ATOM     16  N   UNL     1       2.302   2.028  18.548  0.00  0.00    +0.000 NA
ATOM     17  C   UNL     1       2.223   3.201  19.197  0.00  0.00    +0.000 A 
ATOM     18  C   UNL     1       0.994   3.576  19.720  0.00  0.00    +0.000 A 
ATOM     19  C   UNL     1       0.821   4.770  20.423  0.00  0.00    +0.000 A 
ATOM     20  C   UNL     1       1.905   5.610  20.624  0.00  0.00    +0.000 A 
ATOM     21  C   UNL     1       3.150   5.263  20.099  0.00  0.00    +0.000 A 
ATOM     22  C   UNL     1       3.331   4.066  19.359  0.00  0.00    +0.000 A 
ENDBRANCH  12  13
ENDBRANCH   1  12
TORSDOF 6
ENDMDL
