MODEL 1
REMARK VINA RESULT:      -7.6      0.000      0.000
REMARK  Name = 
REMARK  5 active torsions:
REMARK  status: ('A' for Active; 'I' for Inactive)
REMARK    1  A    between atoms: C_2  and  C_3
REMARK    2  A    between atoms: C_3  and  C_4
REMARK    3  A    between atoms: N_6  and  C_7
REMARK    4  A    between atoms: C_11  and  C_12
REMARK    5  A    between atoms: N_17  and  O_18
REMARK                            x       y       z     vdW  Elec       q    Type
REMARK                         _______ _______ _______ _____ _____    ______ ____
ROOT
ATOM      1  C   UNL     1       6.086   4.664  17.650  0.00  0.00    +0.000 C 
ATOM      2  O   UNL     1       5.357   5.263  16.858  0.00  0.00    +0.000 OA
ATOM      3  N   UNL     1       5.645   3.757  18.604  0.00  0.00    +0.000 N 
ATOM      4  H   UNL     1       6.268   3.546  19.373  0.00  0.00    +0.000 HD
ENDROOT
BRANCH   3   5
ATOM      5  C   UNL     1       4.330   3.236  18.673  0.00  0.00    +0.000 A 
ATOM      6  C   UNL     1       3.808   2.379  17.699  0.00  0.00    +0.000 A 
ATOM      7  C   UNL     1       2.498   1.909  17.783  0.00  0.00    +0.000 A 
ATOM      8  C   UNL     1       1.689   2.286  18.849  0.00  0.00    +0.000 A 
ATOM      9  C   UNL     1       2.192   3.125  19.853  0.00  0.00    +0.000 A 
ATOM     10  C   UNL     1       3.525   3.581  19.766  0.00  0.00    +0.000 A 
BRANCH   9  11
ATOM     11  C   UNL     1       1.314   3.551  21.002  0.00  0.00    +0.000 C 
ATOM     12  F   UNL     1       0.349   4.445  20.650  0.00  0.00    +0.000 F 
ATOM     13  F   UNL     1       0.661   2.503  21.576  0.00  0.00    +0.000 F 
ATOM     14  F   UNL     1       2.022   4.144  22.004  0.00  0.00    +0.000 F 
ENDBRANCH   9  11
ENDBRANCH   3   5
BRANCH   1  15
ATOM     15  C   UNL     1       7.577   4.924  17.678  0.00  0.00    +0.000 C 
BRANCH  15  17
ATOM     16  N   UNL     1       8.397   5.583  19.962  0.00  0.00    +0.000 N 
ATOM     17  C   UNL     1       8.035   5.967  18.695  0.00  0.00    +0.000 C 
ATOM     18  N   UNL     1       8.098   7.242  18.419  0.00  0.00    +0.000 NA
ATOM     19  H   UNL     1       8.761   4.630  20.036  0.00  0.00    +0.000 HD
ATOM     20  H   UNL     1       8.981   6.265  20.431  0.00  0.00    +0.000 HD
BRANCH  18  21
ATOM     21  O   UNL     1       7.693   7.514  17.109  0.00  0.00    +0.000 OA
ATOM     22  H   UNL     1       6.750   7.265  17.136  0.00  0.00    +0.000 HD
ENDBRANCH  18  21
ENDBRANCH  15  17
ENDBRANCH   1  15
TORSDOF 5
ENDMDL
MODEL 2
REMARK VINA RESULT:      -7.5      2.002      2.323
REMARK  Name = 
REMARK  5 active torsions:
REMARK  status: ('A' for Active; 'I' for Inactive)
REMARK    1  A    between atoms: C_2  and  C_3
REMARK    2  A    between atoms: C_3  and  C_4
REMARK    3  A    between atoms: N_6  and  C_7
REMARK    4  A    between atoms: C_11  and  C_12
REMARK    5  A    between atoms: N_17  and  O_18
REMARK                            x       y       z     vdW  Elec       q    Type
REMARK                         _______ _______ _______ _____ _____    ______ ____
ROOT
ATOM      1  C   UNL     1       5.261   6.133  17.335  0.00  0.00    +0.000 C 
ATOM      2  O   UNL     1       4.387   6.965  17.090  0.00  0.00    +0.000 OA
ATOM      3  N   UNL     1       5.058   4.952  18.036  0.00  0.00    +0.000 N 
ATOM      4  H   UNL     1       5.871   4.491  18.423  0.00  0.00    +0.000 HD
ENDROOT
BRANCH   3   5
ATOM      5  C   UNL     1       3.789   4.434  18.390  0.00  0.00    +0.000 A 
ATOM      6  C   UNL     1       2.726   4.360  17.485  0.00  0.00    +0.000 A 
ATOM      7  C   UNL     1       1.479   3.872  17.877  0.00  0.00    +0.000 A 
ATOM      8  C   UNL     1       1.278   3.446  19.185  0.00  0.00    +0.000 A 
ATOM      9  C   UNL     1       2.331   3.487  20.109  0.00  0.00    +0.000 A 
ATOM     10  C   UNL     1       3.593   3.966  19.696  0.00  0.00    +0.000 A 
BRANCH   9  11
ATOM     11  C   UNL     1       2.113   3.042  21.534  0.00  0.00    +0.000 C 
ATOM     12  F   UNL     1       0.851   2.593  21.780  0.00  0.00    +0.000 F 
ATOM     13  F   UNL     1       2.947   2.029  21.896  0.00  0.00    +0.000 F 
ATOM     14  F   UNL     1       2.332   4.045  22.429  0.00  0.00    +0.000 F 
ENDBRANCH   9  11
ENDBRANCH   3   5
BRANCH   1  15
ATOM     15  C   UNL     1       6.696   6.372  16.918  0.00  0.00    +0.000 C 
BRANCH  15  17
ATOM     16  N   UNL     1       7.347   5.223  14.779  0.00  0.00    +0.000 N 
ATOM     17  C   UNL     1       7.348   5.224  16.151  0.00  0.00    +0.000 C 
ATOM     18  N   UNL     1       7.920   4.211  16.746  0.00  0.00    +0.000 NA
ATOM     19  H   UNL     1       7.316   6.150  14.346  0.00  0.00    +0.000 HD
ATOM     20  H   UNL     1       8.064   4.627  14.381  0.00  0.00    +0.000 HD
BRANCH  18  21
ATOM     21  O   UNL     1       7.848   4.314  18.138  0.00  0.00    +0.000 OA
ATOM     22  H   UNL     1       8.790   4.385  18.382  0.00  0.00    +0.000 HD
ENDBRANCH  18  21
ENDBRANCH  15  17
ENDBRANCH   1  15
TORSDOF 5
ENDMDL
MODEL 3
REMARK VINA RESULT:      -7.4      2.320      3.003
REMARK  Name = 
REMARK  5 active torsions:
REMARK  status: ('A' for Active; 'I' for Inactive)
REMARK    1  A    between atoms: C_2  and  C_3
REMARK    2  A    between atoms: C_3  and  C_4
REMARK    3  A    between atoms: N_6  and  C_7
REMARK    4  A    between atoms: C_11  and  C_12
REMARK    5  A    between atoms: N_17  and  O_18
REMARK                            x       y       z     vdW  Elec       q    Type
REMARK                         _______ _______ _______ _____ _____    ______ ____
ROOT
ATOM      1  C   UNL     1       6.482   5.461  19.138  0.00  0.00    +0.000 C 
ATOM      2  O   UNL     1       6.561   4.834  20.196  0.00  0.00    +0.000 OA
ATOM      3  N   UNL     1       5.316   5.632  18.403  0.00  0.00    +0.000 N 
ATOM      4  H   UNL     1       5.410   5.906  17.433  0.00  0.00    +0.000 HD
ENDROOT
BRANCH   3   5
ATOM      5  C   UNL     1       4.020   5.292  18.858  0.00  0.00    +0.000 A 
ATOM      6  C   UNL     1       3.261   6.140  19.671  0.00  0.00    +0.000 A 
ATOM      7  C   UNL     1       1.998   5.759  20.127  0.00  0.00    +0.000 A 
ATOM      8  C   UNL     1       1.473   4.522  19.771  0.00  0.00    +0.000 A 
ATOM      9  C   UNL     1       2.200   3.661  18.937  0.00  0.00    +0.000 A 
ATOM     10  C   UNL     1       3.469   4.064  18.469  0.00  0.00    +0.000 A 
BRANCH   9  11
ATOM     11  C   UNL     1       1.643   2.311  18.562  0.00  0.00    +0.000 C 
ATOM     12  F   UNL     1       2.113   1.837  17.375  0.00  0.00    +0.000 F 
ATOM     13  F   UNL     1       1.928   1.354  19.486  0.00  0.00    +0.000 F 
ATOM     14  F   UNL     1       0.286   2.325  18.445  0.00  0.00    +0.000 F 
ENDBRANCH   9  11
ENDBRANCH   3   5
BRANCH   1  15
ATOM     15  C   UNL     1       7.714   6.072  18.506  0.00  0.00    +0.000 C 
BRANCH  15  17
ATOM     16  N   UNL     1       7.334   8.193  17.209  0.00  0.00    +0.000 N 
ATOM     17  C   UNL     1       7.466   6.827  17.202  0.00  0.00    +0.000 C 
ATOM     18  N   UNL     1       7.365   6.226  16.046  0.00  0.00    +0.000 NA
ATOM     19  H   UNL     1       7.827   8.670  17.968  0.00  0.00    +0.000 HD
ATOM     20  H   UNL     1       7.506   8.613  16.303  0.00  0.00    +0.000 HD
BRANCH  18  21
ATOM     21  O   UNL     1       7.502   4.840  16.165  0.00  0.00    +0.000 OA
ATOM     22  H   UNL     1       8.129   4.764  16.908  0.00  0.00    +0.000 HD
ENDBRANCH  18  21
ENDBRANCH  15  17
ENDBRANCH   1  15
TORSDOF 5
ENDMDL
MODEL 4
REMARK VINA RESULT:      -7.4      1.811      2.319
REMARK  Name = 
REMARK  5 active torsions:
REMARK  status: ('A' for Active; 'I' for Inactive)
REMARK    1  A    between atoms: C_2  and  C_3
REMARK    2  A    between atoms: C_3  and  C_4
REMARK    3  A    between atoms: N_6  and  C_7
REMARK    4  A    between atoms: C_11  and  C_12
REMARK    5  A    between atoms: N_17  and  O_18
REMARK                            x       y       z     vdW  Elec       q    Type
REMARK                         _______ _______ _______ _____ _____    ______ ____
ROOT
ATOM      1  C   UNL     1       5.242   5.876  17.586  0.00  0.00    +0.000 C 
ATOM      2  O   UNL     1       4.365   6.699  17.849  0.00  0.00    +0.000 OA
ATOM      3  N   UNL     1       5.143   4.509  17.812  0.00  0.00    +0.000 N 
ATOM      4  H   UNL     1       6.001   3.974  17.830  0.00  0.00    +0.000 HD
ENDROOT
BRANCH   3   5
ATOM      5  C   UNL     1       3.952   3.840  18.186  0.00  0.00    +0.000 A 
ATOM      6  C   UNL     1       3.074   3.287  17.248  0.00  0.00    +0.000 A 
ATOM      7  C   UNL     1       1.894   2.660  17.651  0.00  0.00    +0.000 A 
ATOM      8  C   UNL     1       1.577   2.574  19.002  0.00  0.00    +0.000 A 
ATOM      9  C   UNL     1       2.450   3.097  19.965  0.00  0.00    +0.000 A 
ATOM     10  C   UNL     1       3.649   3.714  19.547  0.00  0.00    +0.000 A 
BRANCH   9  11
ATOM     11  C   UNL     1       2.103   3.021  21.431  0.00  0.00    +0.000 C 
ATOM     12  F   UNL     1       2.821   2.088  22.115  0.00  0.00    +0.000 F 
ATOM     13  F   UNL     1       2.311   4.201  22.078  0.00  0.00    +0.000 F 
ATOM     14  F   UNL     1       0.794   2.707  21.638  0.00  0.00    +0.000 F 
ENDBRANCH   9  11
ENDBRANCH   3   5
BRANCH   1  15
ATOM     15  C   UNL     1       6.574   6.319  17.018  0.00  0.00    +0.000 C 
BRANCH  15  17
ATOM     16  N   UNL     1       7.268   5.307  14.823  0.00  0.00    +0.000 N 
ATOM     17  C   UNL     1       7.310   5.264  16.194  0.00  0.00    +0.000 C 
ATOM     18  N   UNL     1       7.993   4.293  16.738  0.00  0.00    +0.000 NA
ATOM     19  H   UNL     1       7.136   6.241  14.425  0.00  0.00    +0.000 HD
ATOM     20  H   UNL     1       8.027   4.797  14.386  0.00  0.00    +0.000 HD
BRANCH  18  21
ATOM     21  O   UNL     1       7.952   4.343  18.134  0.00  0.00    +0.000 OA
ATOM     22  H   UNL     1       8.827   3.983  18.372  0.00  0.00    +0.000 HD
ENDBRANCH  18  21
ENDBRANCH  15  17
ENDBRANCH   1  15
TORSDOF 5
ENDMDL
MODEL 5
REMARK VINA RESULT:      -7.4      2.393      3.108
REMARK  Name = 
REMARK  5 active torsions:
REMARK  status: ('A' for Active; 'I' for Inactive)
REMARK    1  A    between atoms: C_2  and  C_3
REMARK    2  A    between atoms: C_3  and  C_4
REMARK    3  A    between atoms: N_6  and  C_7
REMARK    4  A    between atoms: C_11  and  C_12
REMARK    5  A    between atoms: N_17  and  O_18
REMARK                            x       y       z     vdW  Elec       q    Type
REMARK                         _______ _______ _______ _____ _____    ______ ____
ROOT
ATOM      1  C   UNL     1       5.288   6.313  17.473  0.00  0.00    +0.000 C 
ATOM      2  O   UNL     1       4.416   6.748  16.721  0.00  0.00    +0.000 OA
ATOM      3  N   UNL     1       5.047   5.690  18.691  0.00  0.00    +0.000 N 
ATOM      4  H   UNL     1       5.815   5.631  19.347  0.00  0.00    +0.000 HD
ENDROOT
BRANCH   3   5
ATOM      5  C   UNL     1       3.770   5.284  19.148  0.00  0.00    +0.000 A 
ATOM      6  C   UNL     1       3.007   6.054  20.031  0.00  0.00    +0.000 A 
ATOM      7  C   UNL     1       1.765   5.608  20.486  0.00  0.00    +0.000 A 
ATOM      8  C   UNL     1       1.266   4.382  20.059  0.00  0.00    +0.000 A 
ATOM      9  C   UNL     1       1.999   3.600  19.156  0.00  0.00    +0.000 A 
ATOM     10  C   UNL     1       3.245   4.069  18.690  0.00  0.00    +0.000 A 
BRANCH   9  11
ATOM     11  C   UNL     1       1.470   2.262  18.702  0.00  0.00    +0.000 C 
ATOM     12  F   UNL     1       0.121   2.244  18.508  0.00  0.00    +0.000 F 
ATOM     13  F   UNL     1       2.022   1.855  17.526  0.00  0.00    +0.000 F 
ATOM     14  F   UNL     1       1.728   1.271  19.600  0.00  0.00    +0.000 F 
ENDBRANCH   9  11
ENDBRANCH   3   5
BRANCH   1  15
ATOM     15  C   UNL     1       6.755   6.478  17.137  0.00  0.00    +0.000 C 
BRANCH  15  17
ATOM     16  N   UNL     1       7.318   5.485  14.897  0.00  0.00    +0.000 N 
ATOM     17  C   UNL     1       7.348   5.374  16.264  0.00  0.00    +0.000 C 
ATOM     18  N   UNL     1       7.894   4.297  16.761  0.00  0.00    +0.000 NA
ATOM     19  H   UNL     1       7.312   6.444  14.541  0.00  0.00    +0.000 HD
ATOM     20  H   UNL     1       8.004   4.899  14.435  0.00  0.00    +0.000 HD
BRANCH  18  21
ATOM     21  O   UNL     1       7.855   4.288  18.158  0.00  0.00    +0.000 OA
ATOM     22  H   UNL     1       8.465   3.557  18.371  0.00  0.00    +0.000 HD
ENDBRANCH  18  21
ENDBRANCH  15  17
ENDBRANCH   1  15
TORSDOF 5
ENDMDL
MODEL 6
REMARK VINA RESULT:      -7.4      0.966      1.527
REMARK  Name = 
REMARK  5 active torsions:
REMARK  status: ('A' for Active; 'I' for Inactive)
REMARK    1  A    between atoms: C_2  and  C_3
REMARK    2  A    between atoms: C_3  and  C_4
REMARK    3  A    between atoms: N_6  and  C_7
REMARK    4  A    between atoms: C_11  and  C_12
REMARK    5  A    between atoms: N_17  and  O_18
REMARK                            x       y       z     vdW  Elec       q    Type
REMARK                         _______ _______ _______ _____ _____    ______ ____
ROOT
ATOM      1  C   UNL     1       5.880   4.773  17.276  0.00  0.00    +0.000 C 
ATOM      2  O   UNL     1       5.048   5.227  16.490  0.00  0.00    +0.000 OA
ATOM      3  N   UNL     1       5.589   3.931  18.342  0.00  0.00    +0.000 N 
ATOM      4  H   UNL     1       6.280   3.850  19.077  0.00  0.00    +0.000 HD
ENDROOT
BRANCH   3   5
ATOM      5  C   UNL     1       4.334   3.312  18.559  0.00  0.00    +0.000 A 
ATOM      6  C   UNL     1       3.815   2.341  17.698  0.00  0.00    +0.000 A 
ATOM      7  C   UNL     1       2.561   1.773  17.927  0.00  0.00    +0.000 A 
ATOM      8  C   UNL     1       1.807   2.168  19.026  0.00  0.00    +0.000 A 
ATOM      9  C   UNL     1       2.312   3.123  19.920  0.00  0.00    +0.000 A 
ATOM     10  C   UNL     1       3.589   3.677  19.688  0.00  0.00    +0.000 A 
BRANCH   9  11
ATOM     11  C   UNL     1       1.492   3.568  21.105  0.00  0.00    +0.000 C 
ATOM     12  F   UNL     1       2.224   4.179  22.078  0.00  0.00    +0.000 F 
ATOM     13  F   UNL     1       0.516   4.451  20.761  0.00  0.00    +0.000 F 
ATOM     14  F   UNL     1       0.858   2.528  21.716  0.00  0.00    +0.000 F 
ENDBRANCH   9  11
ENDBRANCH   3   5
BRANCH   1  15
ATOM     15  C   UNL     1       7.340   5.156  17.165  0.00  0.00    +0.000 C 
BRANCH  15  17
ATOM     16  N   UNL     1       7.596   7.654  17.035  0.00  0.00    +0.000 N 
ATOM     17  C   UNL     1       7.704   6.507  17.779  0.00  0.00    +0.000 C 
ATOM     18  N   UNL     1       8.130   6.632  19.007  0.00  0.00    +0.000 NA
ATOM     19  H   UNL     1       6.890   7.624  16.294  0.00  0.00    +0.000 HD
ATOM     20  H   UNL     1       7.534   8.491  17.602  0.00  0.00    +0.000 HD
BRANCH  18  21
ATOM     21  O   UNL     1       8.212   5.400  19.660  0.00  0.00    +0.000 OA
ATOM     22  H   UNL     1       9.121   5.422  20.015  0.00  0.00    +0.000 HD
ENDBRANCH  18  21
ENDBRANCH  15  17
ENDBRANCH   1  15
TORSDOF 5
ENDMDL
MODEL 7
REMARK VINA RESULT:      -7.4      1.508      1.968
REMARK  Name = 
REMARK  5 active torsions:
REMARK  status: ('A' for Active; 'I' for Inactive)
REMARK    1  A    between atoms: C_2  and  C_3
REMARK    2  A    between atoms: C_3  and  C_4
REMARK    3  A    between atoms: N_6  and  C_7
REMARK    4  A    between atoms: C_11  and  C_12
REMARK    5  A    between atoms: N_17  and  O_18
REMARK                            x       y       z     vdW  Elec       q    Type
REMARK                         _______ _______ _______ _____ _____    ______ ____
ROOT
ATOM      1  C   UNL     1       6.418   4.887  18.882  0.00  0.00    +0.000 C 
ATOM      2  O   UNL     1       6.273   4.800  20.102  0.00  0.00    +0.000 OA
ATOM      3  N   UNL     1       5.594   4.287  17.940  0.00  0.00    +0.000 N 
ATOM      4  H   UNL     1       5.955   4.182  17.000  0.00  0.00    +0.000 HD
ENDROOT
BRANCH   3   5
ATOM      5  C   UNL     1       4.358   3.661  18.233  0.00  0.00    +0.000 A 
ATOM      6  C   UNL     1       3.803   2.671  17.416  0.00  0.00    +0.000 A 
ATOM      7  C   UNL     1       2.568   2.097  17.719  0.00  0.00    +0.000 A 
ATOM      8  C   UNL     1       1.869   2.505  18.850  0.00  0.00    +0.000 A 
ATOM      9  C   UNL     1       2.411   3.479  19.700  0.00  0.00    +0.000 A 
ATOM     10  C   UNL     1       3.669   4.039  19.392  0.00  0.00    +0.000 A 
BRANCH   9  11
ATOM     11  C   UNL     1       1.649   3.937  20.918  0.00  0.00    +0.000 C 
ATOM     12  F   UNL     1       2.443   4.456  21.896  0.00  0.00    +0.000 F 
ATOM     13  F   UNL     1       0.734   4.902  20.628  0.00  0.00    +0.000 F 
ATOM     14  F   UNL     1       0.952   2.925  21.505  0.00  0.00    +0.000 F 
ENDBRANCH   9  11
ENDBRANCH   3   5
BRANCH   1  15
ATOM     15  C   UNL     1       7.588   5.646  18.294  0.00  0.00    +0.000 C 
BRANCH  15  17
ATOM     16  N   UNL     1       6.852   7.735  17.104  0.00  0.00    +0.000 N 
ATOM     17  C   UNL     1       7.277   6.433  17.023  0.00  0.00    +0.000 C 
ATOM     18  N   UNL     1       7.393   5.919  15.827  0.00  0.00    +0.000 NA
ATOM     19  H   UNL     1       7.173   8.243  17.932  0.00  0.00    +0.000 HD
ATOM     20  H   UNL     1       6.993   8.254  16.245  0.00  0.00    +0.000 HD
BRANCH  18  21
ATOM     21  O   UNL     1       7.818   4.589  15.870  0.00  0.00    +0.000 OA
ATOM     22  H   UNL     1       8.222   4.536  16.757  0.00  0.00    +0.000 HD
ENDBRANCH  18  21
ENDBRANCH  15  17
ENDBRANCH   1  15
TORSDOF 5
ENDMDL
MODEL 8
REMARK VINA RESULT:      -7.3      4.487      6.574
REMARK  Name = 
REMARK  5 active torsions:
REMARK  status: ('A' for Active; 'I' for Inactive)
REMARK    1  A    between atoms: C_2  and  C_3
REMARK    2  A    between atoms: C_3  and  C_4
REMARK    3  A    between atoms: N_6  and  C_7
REMARK    4  A    between atoms: C_11  and  C_12
REMARK    5  A    between atoms: N_17  and  O_18
REMARK                            x       y       z     vdW  Elec       q    Type
REMARK                         _______ _______ _______ _____ _____    ______ ____
ROOT
ATOM      1  C   UNL     1       3.924   2.761  19.950  0.00  0.00    +0.000 C 
ATOM      2  O   UNL     1       4.922   2.097  20.231  0.00  0.00    +0.000 OA
ATOM      3  N   UNL     1       3.940   3.957  19.244  0.00  0.00    +0.000 N 
ATOM      4  H   UNL     1       3.125   4.553  19.314  0.00  0.00    +0.000 HD
ENDROOT
BRANCH   3   5
ATOM      5  C   UNL     1       5.071   4.481  18.573  0.00  0.00    +0.000 A 
ATOM      6  C   UNL     1       6.080   5.186  19.236  0.00  0.00    +0.000 A 
ATOM      7  C   UNL     1       7.166   5.714  18.538  0.00  0.00    +0.000 A 
ATOM      8  C   UNL     1       7.260   5.542  17.161  0.00  0.00    +0.000 A 
ATOM      9  C   UNL     1       6.276   4.820  16.473  0.00  0.00    +0.000 A 
ATOM     10  C   UNL     1       5.191   4.275  17.193  0.00  0.00    +0.000 A 
BRANCH   9  11
ATOM     11  C   UNL     1       6.364   4.644  14.977  0.00  0.00    +0.000 C 
ATOM     12  F   UNL     1       7.497   5.166  14.432  0.00  0.00    +0.000 F 
ATOM     13  F   UNL     1       6.338   3.335  14.605  0.00  0.00    +0.000 F 
ATOM     14  F   UNL     1       5.328   5.239  14.323  0.00  0.00    +0.000 F 
ENDBRANCH   9  11
ENDBRANCH   3   5
BRANCH   1  15
ATOM     15  C   UNL     1       2.550   2.331  20.418  0.00  0.00    +0.000 C 
BRANCH  15  17
ATOM     16  N   UNL     1       0.528   3.818  20.267  0.00  0.00    +0.000 N 
ATOM     17  C   UNL     1       1.382   2.942  19.646  0.00  0.00    +0.000 C 
ATOM     18  N   UNL     1       1.142   2.664  18.392  0.00  0.00    +0.000 NA
ATOM     19  H   UNL     1       0.939   4.349  21.039  0.00  0.00    +0.000 HD
ATOM     20  H   UNL     1       0.016   4.403  19.616  0.00  0.00    +0.000 HD
BRANCH  18  21
ATOM     21  O   UNL     1       2.066   1.754  17.873  0.00  0.00    +0.000 OA
ATOM     22  H   UNL     1       2.640   1.589  18.645  0.00  0.00    +0.000 HD
ENDBRANCH  18  21
ENDBRANCH  15  17
ENDBRANCH   1  15
TORSDOF 5
ENDMDL
MODEL 9
REMARK VINA RESULT:      -7.3      4.418      6.555
REMARK  Name = 
REMARK  5 active torsions:
REMARK  status: ('A' for Active; 'I' for Inactive)
REMARK    1  A    between atoms: C_2  and  C_3
REMARK    2  A    between atoms: C_3  and  C_4
REMARK    3  A    between atoms: N_6  and  C_7
REMARK    4  A    between atoms: C_11  and  C_12
REMARK    5  A    between atoms: N_17  and  O_18
REMARK                            x       y       z     vdW  Elec       q    Type
REMARK                         _______ _______ _______ _____ _____    ______ ____
ROOT
ATOM      1  C   UNL     1       2.693   5.411  19.732  0.00  0.00    +0.000 C 
ATOM      2  O   UNL     1       2.734   6.586  19.366  0.00  0.00    +0.000 OA
ATOM      3  N   UNL     1       3.622   4.439  19.385  0.00  0.00    +0.000 N 
ATOM      4  H   UNL     1       3.350   3.471  19.495  0.00  0.00    +0.000 HD
ENDROOT
BRANCH   3   5
ATOM      5  C   UNL     1       4.854   4.698  18.736  0.00  0.00    +0.000 A 
ATOM      6  C   UNL     1       5.973   5.189  19.414  0.00  0.00    +0.000 A 
ATOM      7  C   UNL     1       7.162   5.461  18.737  0.00  0.00    +0.000 A 
ATOM      8  C   UNL     1       7.249   5.241  17.367  0.00  0.00    +0.000 A 
ATOM      9  C   UNL     1       6.151   4.726  16.665  0.00  0.00    +0.000 A 
ATOM     10  C   UNL     1       4.959   4.439  17.364  0.00  0.00    +0.000 A 
BRANCH   9  11
ATOM     11  C   UNL     1       6.235   4.501  15.175  0.00  0.00    +0.000 C 
ATOM     12  F   UNL     1       5.276   5.162  14.468  0.00  0.00    +0.000 F 
ATOM     13  F   UNL     1       7.427   4.901  14.654  0.00  0.00    +0.000 F 
ATOM     14  F   UNL     1       6.103   3.187  14.841  0.00  0.00    +0.000 F 
ENDBRANCH   9  11
ENDBRANCH   3   5
BRANCH   1  15
ATOM     15  C   UNL     1       1.547   4.904  20.581  0.00  0.00    +0.000 C 
BRANCH  15  17
ATOM     16  N   UNL     1       0.408   2.981  19.428  0.00  0.00    +0.000 N 
ATOM     17  C   UNL     1       1.238   3.416  20.430  0.00  0.00    +0.000 C 
ATOM     18  N   UNL     1       1.731   2.508  21.230  0.00  0.00    +0.000 NA
ATOM     19  H   UNL     1       0.391   3.574  18.594  0.00  0.00    +0.000 HD
ATOM     20  H   UNL     1       0.531   1.999  19.209  0.00  0.00    +0.000 HD
BRANCH  18  21
ATOM     21  O   UNL     1       2.547   3.068  22.216  0.00  0.00    +0.000 OA
ATOM     22  H   UNL     1       2.187   3.973  22.284  0.00  0.00    +0.000 HD
ENDBRANCH  18  21
ENDBRANCH  15  17
ENDBRANCH   1  15
TORSDOF 5
ENDMDL
