MODEL 1
REMARK VINA RESULT:      -7.3      0.000      0.000
REMARK  Name = 
REMARK  7 active torsions:
REMARK  status: ('A' for Active; 'I' for Inactive)
REMARK    1  A    between atoms: C_1  and  C_2
REMARK    2  A    between atoms: C_2  and  C_3
REMARK    3  A    between atoms: N_5  and  C_6
REMARK    4  A    between atoms: C_8  and  N_9
REMARK    5  A    between atoms: N_12  and  C_13
REMARK    6  A    between atoms: C_13  and  C_14
REMARK    7  A    between atoms: C_16  and  C_17
REMARK                            x       y       z     vdW  Elec       q    Type
REMARK                         _______ _______ _______ _____ _____    ______ ____
ROOT
ATOM      1  N   UNL     1       6.387   7.236  16.850  0.00  0.00    +0.000 N 
ATOM      2  C   UNL     1       7.388   7.399  17.782  0.00  0.00    +0.000 C 
ATOM      3  O   UNL     1       7.789   6.546  18.569  0.00  0.00    +0.000 OA
ATOM      4  N   UNL     1       7.916   8.671  17.784  0.00  0.00    +0.000 N 
ATOM      5  H   UNL     1       6.135   8.017  16.270  0.00  0.00    +0.000 HD
ATOM      6  H   UNL     1       7.873   9.203  16.928  0.00  0.00    +0.000 HD
ENDROOT
BRANCH   1  12
ATOM      7  C   UNL     1       5.847   5.021  15.729  0.00  0.00    +0.000 A 
ATOM      8  N   UNL     1       4.949   4.034  15.888  0.00  0.00    +0.000 NA
ATOM      9  N   UNL     1       4.209   4.437  16.932  0.00  0.00    +0.000 N 
ATOM     10  C   UNL     1       3.150   3.605  17.449  0.00  0.00    +0.000 C 
ATOM     11  C   UNL     1       4.588   5.641  17.433  0.00  0.00    +0.000 A 
ATOM     12  C   UNL     1       5.664   6.063  16.688  0.00  0.00    +0.000 A 
BRANCH   7  14
ATOM     13  C   UNL     1       6.440   3.955  13.539  0.00  0.00    +0.000 C 
ATOM     14  C   UNL     1       6.874   4.893  14.654  0.00  0.00    +0.000 C 
ENDBRANCH   7  14
ENDBRANCH   1  12
BRANCH   4  15
ATOM     15  C   UNL     1       9.016   8.956  18.682  0.00  0.00    +0.000 C 
BRANCH  15  16
ATOM     16  C   UNL     1       9.136  10.421  18.982  0.00  0.00    +0.000 A 
ATOM     17  C   UNL     1       9.305  10.880  20.289  0.00  0.00    +0.000 A 
ATOM     18  C   UNL     1       9.362  12.251  20.517  0.00  0.00    +0.000 A 
ATOM     19  C   UNL     1       9.552  12.789  21.903  0.00  0.00    +0.000 C 
ATOM     20  N   UNL     1       9.259  13.164  19.519  0.00  0.00    +0.000 NA
ATOM     21  C   UNL     1       9.087  12.712  18.266  0.00  0.00    +0.000 A 
ATOM     22  N   UNL     1       9.034  13.669  17.256  0.00  0.00    +0.000 N 
ATOM     23  C   UNL     1       9.023  11.363  17.957  0.00  0.00    +0.000 A 
ATOM     24  H   UNL     1       9.033  14.578  17.709  0.00  0.00    +0.000 HD
ATOM     25  H   UNL     1       8.231  13.538  16.653  0.00  0.00    +0.000 HD
ENDBRANCH  15  16
ENDBRANCH   4  15
TORSDOF 4
ENDMDL
MODEL 2
REMARK VINA RESULT:      -7.2      4.821      6.815
REMARK  Name = 
REMARK  7 active torsions:
REMARK  status: ('A' for Active; 'I' for Inactive)
REMARK    1  A    between atoms: C_1  and  C_2
REMARK    2  A    between atoms: C_2  and  C_3
REMARK    3  A    between atoms: N_5  and  C_6
REMARK    4  A    between atoms: C_8  and  N_9
REMARK    5  A    between atoms: N_12  and  C_13
REMARK    6  A    between atoms: C_13  and  C_14
REMARK    7  A    between atoms: C_16  and  C_17
REMARK                            x       y       z     vdW  Elec       q    Type
REMARK                         _______ _______ _______ _____ _____    ______ ____
ROOT
ATOM      1  N   UNL     1       4.349   7.020  16.994  0.00  0.00    +0.000 N 
ATOM      2  C   UNL     1       3.801   6.631  18.197  0.00  0.00    +0.000 C 
ATOM      3  O   UNL     1       4.129   5.650  18.858  0.00  0.00    +0.000 OA
ATOM      4  N   UNL     1       2.779   7.457  18.610  0.00  0.00    +0.000 N 
ATOM      5  H   UNL     1       3.983   7.837  16.537  0.00  0.00    +0.000 HD
ATOM      6  H   UNL     1       2.788   8.416  18.297  0.00  0.00    +0.000 HD
ENDROOT
BRANCH   1  12
ATOM      7  C   UNL     1       6.738   6.212  16.685  0.00  0.00    +0.000 A 
ATOM      8  N   UNL     1       7.409   5.443  15.812  0.00  0.00    +0.000 NA
ATOM      9  N   UNL     1       6.471   5.066  14.929  0.00  0.00    +0.000 N 
ATOM     10  C   UNL     1       6.796   4.172  13.845  0.00  0.00    +0.000 C 
ATOM     11  C   UNL     1       5.240   5.573  15.197  0.00  0.00    +0.000 A 
ATOM     12  C   UNL     1       5.357   6.324  16.342  0.00  0.00    +0.000 A 
BRANCH   7  14
ATOM     13  C   UNL     1       7.808   8.264  17.651  0.00  0.00    +0.000 C 
ATOM     14  C   UNL     1       7.475   6.793  17.846  0.00  0.00    +0.000 C 
ENDBRANCH   7  14
ENDBRANCH   1  12
BRANCH   4  15
ATOM     15  C   UNL     1       2.154   7.187  19.890  0.00  0.00    +0.000 C 
BRANCH  15  16
ATOM     16  C   UNL     1       1.332   8.344  20.373  0.00  0.00    +0.000 A 
ATOM     17  C   UNL     1       1.065   9.437  19.547  0.00  0.00    +0.000 A 
ATOM     18  C   UNL     1       0.338  10.506  20.061  0.00  0.00    +0.000 A 
ATOM     19  C   UNL     1       0.019  11.696  19.206  0.00  0.00    +0.000 C 
ATOM     20  N   UNL     1      -0.124  10.532  21.335  0.00  0.00    +0.000 NA
ATOM     21  C   UNL     1       0.147   9.481  22.126  0.00  0.00    +0.000 A 
ATOM     22  N   UNL     1      -0.380   9.511  23.414  0.00  0.00    +0.000 N 
ATOM     23  C   UNL     1       0.862   8.377  21.688  0.00  0.00    +0.000 A 
ATOM     24  H   UNL     1      -0.804  10.426  23.539  0.00  0.00    +0.000 HD
ATOM     25  H   UNL     1       0.323   9.313  24.115  0.00  0.00    +0.000 HD
ENDBRANCH  15  16
ENDBRANCH   4  15
TORSDOF 4
ENDMDL
MODEL 3
REMARK VINA RESULT:      -7.1      0.990      1.005
REMARK  Name = 
REMARK  7 active torsions:
REMARK  status: ('A' for Active; 'I' for Inactive)
REMARK    1  A    between atoms: C_1  and  C_2
REMARK    2  A    between atoms: C_2  and  C_3
REMARK    3  A    between atoms: N_5  and  C_6
REMARK    4  A    between atoms: C_8  and  N_9
REMARK    5  A    between atoms: N_12  and  C_13
REMARK    6  A    between atoms: C_13  and  C_14
REMARK    7  A    between atoms: C_16  and  C_17
REMARK                            x       y       z     vdW  Elec       q    Type
REMARK                         _______ _______ _______ _____ _____    ______ ____
ROOT
ATOM      1  N   UNL     1       6.277   7.280  16.859  0.00  0.00    +0.000 N 
ATOM      2  C   UNL     1       7.297   7.504  17.758  0.00  0.00    +0.000 C 
ATOM      3  O   UNL     1       7.733   6.695  18.573  0.00  0.00    +0.000 OA
ATOM      4  N   UNL     1       7.798   8.785  17.691  0.00  0.00    +0.000 N 
ATOM      5  H   UNL     1       5.995   8.029  16.251  0.00  0.00    +0.000 HD
ATOM      6  H   UNL     1       7.724   9.277  16.813  0.00  0.00    +0.000 HD
ENDROOT
BRANCH   1  12
ATOM      7  C   UNL     1       5.906   4.904  16.041  0.00  0.00    +0.000 A 
ATOM      8  N   UNL     1       4.978   3.945  16.198  0.00  0.00    +0.000 NA
ATOM      9  N   UNL     1       4.072   4.505  17.014  0.00  0.00    +0.000 N 
ATOM     10  C   UNL     1       2.925   3.757  17.466  0.00  0.00    +0.000 C 
ATOM     11  C   UNL     1       4.378   5.780  17.370  0.00  0.00    +0.000 A 
ATOM     12  C   UNL     1       5.574   6.087  16.767  0.00  0.00    +0.000 A 
BRANCH   7  14
ATOM     13  C   UNL     1       6.779   4.565  13.714  0.00  0.00    +0.000 C 
ATOM     14  C   UNL     1       7.104   4.614  15.199  0.00  0.00    +0.000 C 
ENDBRANCH   7  14
ENDBRANCH   1  12
BRANCH   4  15
ATOM     15  C   UNL     1       8.913   9.131  18.549  0.00  0.00    +0.000 C 
BRANCH  15  16
ATOM     16  C   UNL     1       9.237  10.594  18.492  0.00  0.00    +0.000 A 
ATOM     17  C   UNL     1      10.363  11.111  19.134  0.00  0.00    +0.000 A 
ATOM     18  C   UNL     1      10.590  12.483  19.090  0.00  0.00    +0.000 A 
ATOM     19  C   UNL     1      11.793  13.081  19.757  0.00  0.00    +0.000 C 
ATOM     20  N   UNL     1       9.761  13.342  18.449  0.00  0.00    +0.000 NA
ATOM     21  C   UNL     1       8.674  12.837  17.843  0.00  0.00    +0.000 A 
ATOM     22  N   UNL     1       7.866  13.734  17.151  0.00  0.00    +0.000 N 
ATOM     23  C   UNL     1       8.380  11.482  17.839  0.00  0.00    +0.000 A 
ATOM     24  H   UNL     1       8.227  14.665  17.341  0.00  0.00    +0.000 HD
ATOM     25  H   UNL     1       6.890  13.640  17.406  0.00  0.00    +0.000 HD
ENDBRANCH  15  16
ENDBRANCH   4  15
TORSDOF 4
ENDMDL
MODEL 4
REMARK VINA RESULT:      -7.1      4.772      6.549
REMARK  Name = 
REMARK  7 active torsions:
REMARK  status: ('A' for Active; 'I' for Inactive)
REMARK    1  A    between atoms: C_1  and  C_2
REMARK    2  A    between atoms: C_2  and  C_3
REMARK    3  A    between atoms: N_5  and  C_6
REMARK    4  A    between atoms: C_8  and  N_9
REMARK    5  A    between atoms: N_12  and  C_13
REMARK    6  A    between atoms: C_13  and  C_14
REMARK    7  A    between atoms: C_16  and  C_17
REMARK                            x       y       z     vdW  Elec       q    Type
REMARK                         _______ _______ _______ _____ _____    ______ ____
ROOT
ATOM      1  N   UNL     1       4.383   7.030  16.895  0.00  0.00    +0.000 N 
ATOM      2  C   UNL     1       3.811   6.665  18.093  0.00  0.00    +0.000 C 
ATOM      3  O   UNL     1       4.110   5.683  18.768  0.00  0.00    +0.000 OA
ATOM      4  N   UNL     1       2.801   7.515  18.485  0.00  0.00    +0.000 N 
ATOM      5  H   UNL     1       4.040   7.850  16.425  0.00  0.00    +0.000 HD
ATOM      6  H   UNL     1       2.834   8.470  18.164  0.00  0.00    +0.000 HD
ENDROOT
BRANCH   1  12
ATOM      7  C   UNL     1       6.772   6.224  16.586  0.00  0.00    +0.000 A 
ATOM      8  N   UNL     1       7.433   5.413  15.743  0.00  0.00    +0.000 NA
ATOM      9  N   UNL     1       6.483   4.982  14.899  0.00  0.00    +0.000 N 
ATOM     10  C   UNL     1       6.796   4.034  13.859  0.00  0.00    +0.000 C 
ATOM     11  C   UNL     1       5.253   5.495  15.161  0.00  0.00    +0.000 A 
ATOM     12  C   UNL     1       5.384   6.307  16.262  0.00  0.00    +0.000 A 
BRANCH   7  14
ATOM     13  C   UNL     1       7.715   5.948  18.893  0.00  0.00    +0.000 C 
ATOM     14  C   UNL     1       7.525   6.871  17.700  0.00  0.00    +0.000 C 
ENDBRANCH   7  14
ENDBRANCH   1  12
BRANCH   4  15
ATOM     15  C   UNL     1       2.154   7.271  19.759  0.00  0.00    +0.000 C 
BRANCH  15  16
ATOM     16  C   UNL     1       1.366   8.457  20.230  0.00  0.00    +0.000 A 
ATOM     17  C   UNL     1       0.882   8.532  21.536  0.00  0.00    +0.000 A 
ATOM     18  C   UNL     1       0.116   9.632  21.906  0.00  0.00    +0.000 A 
ATOM     19  C   UNL     1      -0.416   9.759  23.303  0.00  0.00    +0.000 C 
ATOM     20  N   UNL     1      -0.185  10.637  21.048  0.00  0.00    +0.000 NA
ATOM     21  C   UNL     1       0.276  10.551  19.790  0.00  0.00    +0.000 A 
ATOM     22  N   UNL     1      -0.005  11.620  18.943  0.00  0.00    +0.000 N 
ATOM     23  C   UNL     1       1.049   9.490  19.345  0.00  0.00    +0.000 A 
ATOM     24  H   UNL     1      -0.629  12.242  19.449  0.00  0.00    +0.000 HD
ATOM     25  H   UNL     1      -0.399  11.312  18.062  0.00  0.00    +0.000 HD
ENDBRANCH  15  16
ENDBRANCH   4  15
TORSDOF 4
ENDMDL
MODEL 5
REMARK VINA RESULT:      -7.1      5.011      8.150
REMARK  Name = 
REMARK  7 active torsions:
REMARK  status: ('A' for Active; 'I' for Inactive)
REMARK    1  A    between atoms: C_1  and  C_2
REMARK    2  A    between atoms: C_2  and  C_3
REMARK    3  A    between atoms: N_5  and  C_6
REMARK    4  A    between atoms: C_8  and  N_9
REMARK    5  A    between atoms: N_12  and  C_13
REMARK    6  A    between atoms: C_13  and  C_14
REMARK    7  A    between atoms: C_16  and  C_17
REMARK                            x       y       z     vdW  Elec       q    Type
REMARK                         _______ _______ _______ _____ _____    ______ ____
ROOT
ATOM      1  N   UNL     1       2.133   7.573  20.402  0.00  0.00    +0.000 N 
ATOM      2  C   UNL     1       2.421   6.648  19.423  0.00  0.00    +0.000 C 
ATOM      3  O   UNL     1       2.057   6.697  18.252  0.00  0.00    +0.000 OA
ATOM      4  N   UNL     1       3.166   5.588  19.891  0.00  0.00    +0.000 N 
ATOM      5  H   UNL     1       2.475   7.414  21.333  0.00  0.00    +0.000 HD
ATOM      6  H   UNL     1       3.763   5.744  20.690  0.00  0.00    +0.000 HD
ENDROOT
BRANCH   1  12
ATOM      7  C   UNL     1       0.249   9.184  20.959  0.00  0.00    +0.000 A 
ATOM      8  N   UNL     1      -0.254  10.320  20.449  0.00  0.00    +0.000 NA
ATOM      9  N   UNL     1       0.519  10.563  19.379  0.00  0.00    +0.000 N 
ATOM     10  C   UNL     1       0.322  11.747  18.581  0.00  0.00    +0.000 C 
ATOM     11  C   UNL     1       1.480   9.623  19.182  0.00  0.00    +0.000 A 
ATOM     12  C   UNL     1       1.353   8.702  20.194  0.00  0.00    +0.000 A 
BRANCH   7  14
ATOM     13  C   UNL     1      -0.329   9.601  23.364  0.00  0.00    +0.000 C 
ATOM     14  C   UNL     1      -0.360   8.622  22.201  0.00  0.00    +0.000 C 
ENDBRANCH   7  14
ENDBRANCH   1  12
BRANCH   4  15
ATOM     15  C   UNL     1       3.583   4.572  18.946  0.00  0.00    +0.000 C 
BRANCH  15  16
ATOM     16  C   UNL     1       4.976   4.804  18.443  0.00  0.00    +0.000 A 
ATOM     17  C   UNL     1       5.298   4.632  17.097  0.00  0.00    +0.000 A 
ATOM     18  C   UNL     1       6.616   4.813  16.693  0.00  0.00    +0.000 A 
ATOM     19  C   UNL     1       7.005   4.648  15.254  0.00  0.00    +0.000 C 
ATOM     20  N   UNL     1       7.606   5.151  17.555  0.00  0.00    +0.000 NA
ATOM     21  C   UNL     1       7.290   5.304  18.850  0.00  0.00    +0.000 A 
ATOM     22  N   UNL     1       8.315   5.699  19.706  0.00  0.00    +0.000 N 
ATOM     23  C   UNL     1       6.000   5.144  19.332  0.00  0.00    +0.000 A 
ATOM     24  H   UNL     1       9.173   5.691  19.162  0.00  0.00    +0.000 HD
ATOM     25  H   UNL     1       8.373   5.107  20.525  0.00  0.00    +0.000 HD
ENDBRANCH  15  16
ENDBRANCH   4  15
TORSDOF 4
ENDMDL
MODEL 6
REMARK VINA RESULT:      -7.0      5.939      8.807
REMARK  Name = 
REMARK  7 active torsions:
REMARK  status: ('A' for Active; 'I' for Inactive)
REMARK    1  A    between atoms: C_1  and  C_2
REMARK    2  A    between atoms: C_2  and  C_3
REMARK    3  A    between atoms: N_5  and  C_6
REMARK    4  A    between atoms: C_8  and  N_9
REMARK    5  A    between atoms: N_12  and  C_13
REMARK    6  A    between atoms: C_13  and  C_14
REMARK    7  A    between atoms: C_16  and  C_17
REMARK                            x       y       z     vdW  Elec       q    Type
REMARK                         _______ _______ _______ _____ _____    ______ ____
ROOT
ATOM      1  N   UNL     1       0.929   9.337  19.267  0.00  0.00    +0.000 N 
ATOM      2  C   UNL     1       1.852   8.979  18.308  0.00  0.00    +0.000 C 
ATOM      3  O   UNL     1       2.113   9.607  17.286  0.00  0.00    +0.000 OA
ATOM      4  N   UNL     1       2.472   7.781  18.584  0.00  0.00    +0.000 N 
ATOM      5  H   UNL     1       0.791   8.730  20.055  0.00  0.00    +0.000 HD
ATOM      6  H   UNL     1       2.548   7.498  19.550  0.00  0.00    +0.000 HD
ENDROOT
BRANCH   1  12
ATOM      7  C   UNL     1      -0.993  10.726  18.356  0.00  0.00    +0.000 A 
ATOM      8  N   UNL     1      -1.510  11.947  18.571  0.00  0.00    +0.000 NA
ATOM      9  N   UNL     1      -0.727  12.464  19.531  0.00  0.00    +0.000 N 
ATOM     10  C   UNL     1      -0.998  13.769  20.079  0.00  0.00    +0.000 C 
ATOM     11  C   UNL     1       0.271  11.630  19.923  0.00  0.00    +0.000 A 
ATOM     12  C   UNL     1       0.136  10.474  19.191  0.00  0.00    +0.000 A 
BRANCH   7  14
ATOM     13  C   UNL     1      -3.158   9.992  17.324  0.00  0.00    +0.000 C 
ATOM     14  C   UNL     1      -1.645   9.836  17.351  0.00  0.00    +0.000 C 
ENDBRANCH   7  14
ENDBRANCH   1  12
BRANCH   4  15
ATOM     15  C   UNL     1       3.506   7.319  17.679  0.00  0.00    +0.000 C 
BRANCH  15  16
ATOM     16  C   UNL     1       4.146   6.049  18.154  0.00  0.00    +0.000 A 
ATOM     17  C   UNL     1       3.431   5.114  18.903  0.00  0.00    +0.000 A 
ATOM     18  C   UNL     1       4.088   3.976  19.359  0.00  0.00    +0.000 A 
ATOM     19  C   UNL     1       3.356   2.940  20.159  0.00  0.00    +0.000 C 
ATOM     20  N   UNL     1       5.398   3.735  19.107  0.00  0.00    +0.000 NA
ATOM     21  C   UNL     1       6.080   4.646  18.394  0.00  0.00    +0.000 A 
ATOM     22  N   UNL     1       7.411   4.351  18.108  0.00  0.00    +0.000 N 
ATOM     23  C   UNL     1       5.498   5.803  17.902  0.00  0.00    +0.000 A 
ATOM     24  H   UNL     1       7.641   3.501  18.615  0.00  0.00    +0.000 HD
ATOM     25  H   UNL     1       8.028   5.119  18.343  0.00  0.00    +0.000 HD
ENDBRANCH  15  16
ENDBRANCH   4  15
TORSDOF 4
ENDMDL
MODEL 7
REMARK VINA RESULT:      -7.0      6.177      8.356
REMARK  Name = 
REMARK  7 active torsions:
REMARK  status: ('A' for Active; 'I' for Inactive)
REMARK    1  A    between atoms: C_1  and  C_2
REMARK    2  A    between atoms: C_2  and  C_3
REMARK    3  A    between atoms: N_5  and  C_6
REMARK    4  A    between atoms: C_8  and  N_9
REMARK    5  A    between atoms: N_12  and  C_13
REMARK    6  A    between atoms: C_13  and  C_14
REMARK    7  A    between atoms: C_16  and  C_17
REMARK                            x       y       z     vdW  Elec       q    Type
REMARK                         _______ _______ _______ _____ _____    ______ ____
ROOT
ATOM      1  N   UNL     1       2.931   7.646  17.564  0.00  0.00    +0.000 N 
ATOM      2  C   UNL     1       2.170   8.174  18.584  0.00  0.00    +0.000 C 
ATOM      3  O   UNL     1       2.092   7.739  19.729  0.00  0.00    +0.000 OA
ATOM      4  N   UNL     1       1.439   9.273  18.191  0.00  0.00    +0.000 N 
ATOM      5  H   UNL     1       2.899   8.083  16.660  0.00  0.00    +0.000 HD
ATOM      6  H   UNL     1       1.792   9.829  17.427  0.00  0.00    +0.000 HD
ENDROOT
BRANCH   1  12
ATOM      7  C   UNL     1       3.305   5.146  17.815  0.00  0.00    +0.000 A 
ATOM      8  N   UNL     1       4.356   4.315  17.915  0.00  0.00    +0.000 NA
ATOM      9  N   UNL     1       5.419   5.133  17.854  0.00  0.00    +0.000 N 
ATOM     10  C   UNL     1       6.759   4.603  17.878  0.00  0.00    +0.000 C 
ATOM     11  C   UNL     1       5.087   6.445  17.733  0.00  0.00    +0.000 A 
ATOM     12  C   UNL     1       3.714   6.508  17.693  0.00  0.00    +0.000 A 
BRANCH   7  14
ATOM     13  C   UNL     1       1.526   4.018  19.176  0.00  0.00    +0.000 C 
ATOM     14  C   UNL     1       1.929   4.567  17.816  0.00  0.00    +0.000 C 
ENDBRANCH   7  14
ENDBRANCH   1  12
BRANCH   4  15
ATOM     15  C   UNL     1       0.638   9.956  19.187  0.00  0.00    +0.000 C 
BRANCH  15  16
ATOM     16  C   UNL     1      -0.692  10.389  18.644  0.00  0.00    +0.000 A 
ATOM     17  C   UNL     1      -1.169   9.902  17.427  0.00  0.00    +0.000 A 
ATOM     18  C   UNL     1      -2.386  10.373  16.946  0.00  0.00    +0.000 A 
ATOM     19  C   UNL     1      -2.943   9.870  15.647  0.00  0.00    +0.000 C 
ATOM     20  N   UNL     1      -3.131  11.290  17.611  0.00  0.00    +0.000 NA
ATOM     21  C   UNL     1      -2.659  11.760  18.777  0.00  0.00    +0.000 A 
ATOM     22  N   UNL     1      -3.466  12.663  19.464  0.00  0.00    +0.000 N 
ATOM     23  C   UNL     1      -1.457  11.339  19.324  0.00  0.00    +0.000 A 
ATOM     24  H   UNL     1      -4.253  12.877  18.857  0.00  0.00    +0.000 HD
ATOM     25  H   UNL     1      -2.956  13.494  19.739  0.00  0.00    +0.000 HD
ENDBRANCH  15  16
ENDBRANCH   4  15
TORSDOF 4
ENDMDL
MODEL 8
REMARK VINA RESULT:      -6.9      1.670      2.686
REMARK  Name = 
REMARK  7 active torsions:
REMARK  status: ('A' for Active; 'I' for Inactive)
REMARK    1  A    between atoms: C_1  and  C_2
REMARK    2  A    between atoms: C_2  and  C_3
REMARK    3  A    between atoms: N_5  and  C_6
REMARK    4  A    between atoms: C_8  and  N_9
REMARK    5  A    between atoms: N_12  and  C_13
REMARK    6  A    between atoms: C_13  and  C_14
REMARK    7  A    between atoms: C_16  and  C_17
REMARK                            x       y       z     vdW  Elec       q    Type
REMARK                         _______ _______ _______ _____ _____    ______ ____
ROOT
ATOM      1  N   UNL     1       6.784   8.156  17.069  0.00  0.00    +0.000 N 
ATOM      2  C   UNL     1       7.827   8.344  17.948  0.00  0.00    +0.000 C 
ATOM      3  O   UNL     1       8.380   7.472  18.613  0.00  0.00    +0.000 OA
ATOM      4  N   UNL     1       8.206   9.664  18.054  0.00  0.00    +0.000 N 
ATOM      5  H   UNL     1       6.402   8.954  16.593  0.00  0.00    +0.000 HD
ATOM      6  H   UNL     1       8.040  10.269  17.264  0.00  0.00    +0.000 HD
ENDROOT
BRANCH   1  12
ATOM      7  C   UNL     1       4.846   6.513  17.085  0.00  0.00    +0.000 A 
ATOM      8  N   UNL     1       4.634   5.241  16.708  0.00  0.00    +0.000 NA
ATOM      9  N   UNL     1       5.819   4.850  16.215  0.00  0.00    +0.000 N 
ATOM     10  C   UNL     1       5.985   3.533  15.652  0.00  0.00    +0.000 C 
ATOM     11  C   UNL     1       6.775   5.813  16.275  0.00  0.00    +0.000 A 
ATOM     12  C   UNL     1       6.188   6.926  16.827  0.00  0.00    +0.000 A 
BRANCH   7  14
ATOM     13  C   UNL     1       2.837   6.453  18.584  0.00  0.00    +0.000 C 
ATOM     14  C   UNL     1       3.711   7.290  17.663  0.00  0.00    +0.000 C 
ENDBRANCH   7  14
ENDBRANCH   1  12
BRANCH   4  15
ATOM     15  C   UNL     1       9.332   9.988  18.907  0.00  0.00    +0.000 C 
BRANCH  15  16
ATOM     16  C   UNL     1       9.890  11.349  18.614  0.00  0.00    +0.000 A 
ATOM     17  C   UNL     1       9.416  12.483  19.275  0.00  0.00    +0.000 A 
ATOM     18  C   UNL     1       9.935  13.727  18.930  0.00  0.00    +0.000 A 
ATOM     19  C   UNL     1       9.463  14.971  19.621  0.00  0.00    +0.000 C 
ATOM     20  N   UNL     1      10.883  13.885  17.974  0.00  0.00    +0.000 NA
ATOM     21  C   UNL     1      11.325  12.789  17.336  0.00  0.00    +0.000 A 
ATOM     22  N   UNL     1      12.333  12.974  16.394  0.00  0.00    +0.000 N 
ATOM     23  C   UNL     1      10.861  11.515  17.624  0.00  0.00    +0.000 A 
ATOM     24  H   UNL     1      12.469  13.977  16.298  0.00  0.00    +0.000 HD
ATOM     25  H   UNL     1      12.113  12.530  15.511  0.00  0.00    +0.000 HD
ENDBRANCH  15  16
ENDBRANCH   4  15
TORSDOF 4
ENDMDL
MODEL 9
REMARK VINA RESULT:      -6.9      5.573      7.900
REMARK  Name = 
REMARK  7 active torsions:
REMARK  status: ('A' for Active; 'I' for Inactive)
REMARK    1  A    between atoms: C_1  and  C_2
REMARK    2  A    between atoms: C_2  and  C_3
REMARK    3  A    between atoms: N_5  and  C_6
REMARK    4  A    between atoms: C_8  and  N_9
REMARK    5  A    between atoms: N_12  and  C_13
REMARK    6  A    between atoms: C_13  and  C_14
REMARK    7  A    between atoms: C_16  and  C_17
REMARK                            x       y       z     vdW  Elec       q    Type
REMARK                         _______ _______ _______ _____ _____    ______ ____
ROOT
ATOM      1  N   UNL     1       2.827   6.102  18.010  0.00  0.00    +0.000 N 
ATOM      2  C   UNL     1       4.090   5.552  17.981  0.00  0.00    +0.000 C 
ATOM      3  O   UNL     1       4.888   5.523  18.913  0.00  0.00    +0.000 OA
ATOM      4  N   UNL     1       4.418   5.032  16.749  0.00  0.00    +0.000 N 
ATOM      5  H   UNL     1       2.270   6.080  17.174  0.00  0.00    +0.000 HD
ATOM      6  H   UNL     1       3.669   4.715  16.153  0.00  0.00    +0.000 HD
ENDROOT
BRANCH   1  12
ATOM      7  C   UNL     1       1.902   6.172  20.375  0.00  0.00    +0.000 A 
ATOM      8  N   UNL     1       1.416   7.105  21.212  0.00  0.00    +0.000 NA
ATOM      9  N   UNL     1       1.490   8.242  20.504  0.00  0.00    +0.000 N 
ATOM     10  C   UNL     1       1.100   9.501  21.089  0.00  0.00    +0.000 C 
ATOM     11  C   UNL     1       1.989   8.070  19.252  0.00  0.00    +0.000 A 
ATOM     12  C   UNL     1       2.284   6.734  19.120  0.00  0.00    +0.000 A 
BRANCH   7  14
ATOM     13  C   UNL     1       0.914   3.871  20.265  0.00  0.00    +0.000 C 
ATOM     14  C   UNL     1       1.999   4.761  20.850  0.00  0.00    +0.000 C 
ENDBRANCH   7  14
ENDBRANCH   1  12
BRANCH   4  15
ATOM     15  C   UNL     1       5.701   4.374  16.601  0.00  0.00    +0.000 C 
BRANCH  15  16
ATOM     16  C   UNL     1       6.191   4.400  15.184  0.00  0.00    +0.000 A 
ATOM     17  C   UNL     1       5.606   3.601  14.201  0.00  0.00    +0.000 A 
ATOM     18  C   UNL     1       6.131   3.628  12.913  0.00  0.00    +0.000 A 
ATOM     19  C   UNL     1       5.528   2.793  11.824  0.00  0.00    +0.000 C 
ATOM     20  N   UNL     1       7.192   4.400  12.571  0.00  0.00    +0.000 NA
ATOM     21  C   UNL     1       7.754   5.159  13.526  0.00  0.00    +0.000 A 
ATOM     22  N   UNL     1       8.809   5.979  13.136  0.00  0.00    +0.000 N 
ATOM     23  C   UNL     1       7.288   5.189  14.831  0.00  0.00    +0.000 A 
ATOM     24  H   UNL     1       9.023   5.748  12.170  0.00  0.00    +0.000 HD
ATOM     25  H   UNL     1       9.614   5.874  13.743  0.00  0.00    +0.000 HD
ENDBRANCH  15  16
ENDBRANCH   4  15
TORSDOF 4
ENDMDL
