MODEL 1
REMARK VINA RESULT:      -7.0      0.000      0.000
REMARK  Name = 
REMARK  1 active torsions:
REMARK  status: ('A' for Active; 'I' for Inactive)
REMARK    1  A    between atoms: N_5  and  C_6
REMARK                            x       y       z     vdW  Elec       q    Type
REMARK                         _______ _______ _______ _____ _____    ______ ____
ROOT
ATOM      1  C   UNL     1       0.625   3.739  20.335  0.00  0.00    +0.000 A 
ATOM      2  C   UNL     1       1.415   4.007  19.187  0.00  0.00    +0.000 A 
ATOM      3  C   UNL     1       2.656   3.445  19.412  0.00  0.00    +0.000 A 
ATOM      4  C   UNL     1       3.879   3.401  18.664  0.00  0.00    +0.000 A 
ATOM      5  N   UNL     1       3.995   3.980  17.416  0.00  0.00    +0.000 N 
ATOM      6  N   UNL     1       4.879   2.770  19.213  0.00  0.00    +0.000 NA
ATOM      7  C   UNL     1       4.735   2.191  20.444  0.00  0.00    +0.000 A 
ATOM      8  N   UNL     1       3.674   2.198  21.189  0.00  0.00    +0.000 NA
ATOM      9  N   UNL     1       2.640   2.846  20.637  0.00  0.00    +0.000 N 
ATOM     10  C   UNL     1       1.411   3.020  21.210  0.00  0.00    +0.000 A 
ATOM     11  H   UNL     1       3.148   4.303  16.968  0.00  0.00    +0.000 HD
ENDROOT
BRANCH   5  12
ATOM     12  C   UNL     1       5.180   4.499  16.860  0.00  0.00    +0.000 A 
ATOM     13  C   UNL     1       5.771   5.630  17.427  0.00  0.00    +0.000 A 
ATOM     14  C   UNL     1       6.904   6.164  16.828  0.00  0.00    +0.000 A 
ATOM     15  N   UNL     1       7.485   5.649  15.725  0.00  0.00    +0.000 NA
ATOM     16  C   UNL     1       6.898   4.563  15.187  0.00  0.00    +0.000 A 
ATOM     17  C   UNL     1       5.761   3.968  15.706  0.00  0.00    +0.000 A 
ENDBRANCH   5  12
TORSDOF 1
ENDMDL
MODEL 2
REMARK VINA RESULT:      -7.0      0.091      1.175
REMARK  Name = 
REMARK  1 active torsions:
REMARK  status: ('A' for Active; 'I' for Inactive)
REMARK    1  A    between atoms: N_5  and  C_6
REMARK                            x       y       z     vdW  Elec       q    Type
REMARK                         _______ _______ _______ _____ _____    ______ ____
ROOT
ATOM      1  C   UNL     1       0.590   3.612  20.305  0.00  0.00    +0.000 A 
ATOM      2  C   UNL     1       1.370   3.933  19.163  0.00  0.00    +0.000 A 
ATOM      3  C   UNL     1       2.635   3.423  19.383  0.00  0.00    +0.000 A 
ATOM      4  C   UNL     1       3.860   3.444  18.638  0.00  0.00    +0.000 A 
ATOM      5  N   UNL     1       3.953   4.047  17.400  0.00  0.00    +0.000 N 
ATOM      6  N   UNL     1       4.885   2.850  19.181  0.00  0.00    +0.000 NA
ATOM      7  C   UNL     1       4.764   2.245  20.402  0.00  0.00    +0.000 A 
ATOM      8  N   UNL     1       3.702   2.195  21.143  0.00  0.00    +0.000 NA
ATOM      9  N   UNL     1       2.642   2.805  20.599  0.00  0.00    +0.000 N 
ATOM     10  C   UNL     1       1.405   2.916  21.171  0.00  0.00    +0.000 A 
ATOM     11  H   UNL     1       3.094   4.339  16.954  0.00  0.00    +0.000 HD
ENDROOT
BRANCH   5  12
ATOM     12  C   UNL     1       5.115   4.626  16.855  0.00  0.00    +0.000 A 
ATOM     13  C   UNL     1       5.735   4.029  15.756  0.00  0.00    +0.000 A 
ATOM     14  C   UNL     1       6.914   4.580  15.272  0.00  0.00    +0.000 A 
ATOM     15  N   UNL     1       7.502   5.676  15.793  0.00  0.00    +0.000 NA
ATOM     16  C   UNL     1       6.895   6.235  16.858  0.00  0.00    +0.000 A 
ATOM     17  C   UNL     1       5.725   5.751  17.417  0.00  0.00    +0.000 A 
ENDBRANCH   5  12
TORSDOF 1
ENDMDL
MODEL 3
REMARK VINA RESULT:      -6.8      1.402      5.804
REMARK  Name = 
REMARK  1 active torsions:
REMARK  status: ('A' for Active; 'I' for Inactive)
REMARK    1  A    between atoms: N_5  and  C_6
REMARK                            x       y       z     vdW  Elec       q    Type
REMARK                         _______ _______ _______ _____ _____    ______ ____
ROOT
ATOM      1  C   UNL     1       5.876   4.341  14.329  0.00  0.00    +0.000 A 
ATOM      2  C   UNL     1       4.919   4.351  15.377  0.00  0.00    +0.000 A 
ATOM      3  C   UNL     1       5.616   4.507  16.559  0.00  0.00    +0.000 A 
ATOM      4  C   UNL     1       5.234   4.558  17.940  0.00  0.00    +0.000 A 
ATOM      5  N   UNL     1       3.916   4.470  18.339  0.00  0.00    +0.000 N 
ATOM      6  N   UNL     1       6.195   4.709  18.808  0.00  0.00    +0.000 NA
ATOM      7  C   UNL     1       7.493   4.810  18.388  0.00  0.00    +0.000 A 
ATOM      8  N   UNL     1       7.921   4.759  17.166  0.00  0.00    +0.000 NA
ATOM      9  N   UNL     1       6.944   4.600  16.264  0.00  0.00    +0.000 N 
ATOM     10  C   UNL     1       7.115   4.498  14.911  0.00  0.00    +0.000 A 
ATOM     11  H   UNL     1       3.204   4.527  17.623  0.00  0.00    +0.000 HD
ENDROOT
BRANCH   5  12
ATOM     12  C   UNL     1       3.463   3.949  19.567  0.00  0.00    +0.000 A 
ATOM     13  C   UNL     1       3.834   2.658  19.948  0.00  0.00    +0.000 A 
ATOM     14  C   UNL     1       3.328   2.139  21.132  0.00  0.00    +0.000 A 
ATOM     15  N   UNL     1       2.499   2.812  21.955  0.00  0.00    +0.000 NA
ATOM     16  C   UNL     1       2.145   4.053  21.569  0.00  0.00    +0.000 A 
ATOM     17  C   UNL     1       2.589   4.649  20.401  0.00  0.00    +0.000 A 
ENDBRANCH   5  12
TORSDOF 1
ENDMDL
MODEL 4
REMARK VINA RESULT:      -6.8      1.283      1.718
REMARK  Name = 
REMARK  1 active torsions:
REMARK  status: ('A' for Active; 'I' for Inactive)
REMARK    1  A    between atoms: N_5  and  C_6
REMARK                            x       y       z     vdW  Elec       q    Type
REMARK                         _______ _______ _______ _____ _____    ______ ____
ROOT
ATOM      1  C   UNL     1       1.002   4.260  20.641  0.00  0.00    +0.000 A 
ATOM      2  C   UNL     1       1.771   4.921  19.648  0.00  0.00    +0.000 A 
ATOM      3  C   UNL     1       2.470   3.946  18.964  0.00  0.00    +0.000 A 
ATOM      4  C   UNL     1       3.424   3.971  17.894  0.00  0.00    +0.000 A 
ATOM      5  N   UNL     1       3.816   5.149  17.290  0.00  0.00    +0.000 N 
ATOM      6  N   UNL     1       3.895   2.821  17.502  0.00  0.00    +0.000 NA
ATOM      7  C   UNL     1       3.479   1.665  18.104  0.00  0.00    +0.000 A 
ATOM      8  N   UNL     1       2.636   1.558  19.083  0.00  0.00    +0.000 NA
ATOM      9  N   UNL     1       2.147   2.733  19.497  0.00  0.00    +0.000 N 
ATOM     10  C   UNL     1       1.257   2.911  20.521  0.00  0.00    +0.000 A 
ATOM     11  H   UNL     1       3.296   5.987  17.514  0.00  0.00    +0.000 HD
ENDROOT
BRANCH   5  12
ATOM     12  C   UNL     1       5.068   5.387  16.691  0.00  0.00    +0.000 A 
ATOM     13  C   UNL     1       5.337   4.867  15.423  0.00  0.00    +0.000 A 
ATOM     14  C   UNL     1       6.598   5.059  14.876  0.00  0.00    +0.000 A 
ATOM     15  N   UNL     1       7.590   5.733  15.490  0.00  0.00    +0.000 NA
ATOM     16  C   UNL     1       7.317   6.222  16.715  0.00  0.00    +0.000 A 
ATOM     17  C   UNL     1       6.094   6.071  17.347  0.00  0.00    +0.000 A 
ENDBRANCH   5  12
TORSDOF 1
ENDMDL
MODEL 5
REMARK VINA RESULT:      -6.7      1.473      5.978
REMARK  Name = 
REMARK  1 active torsions:
REMARK  status: ('A' for Active; 'I' for Inactive)
REMARK    1  A    between atoms: N_5  and  C_6
REMARK                            x       y       z     vdW  Elec       q    Type
REMARK                         _______ _______ _______ _____ _____    ______ ____
ROOT
ATOM      1  C   UNL     1       6.279   4.091  13.948  0.00  0.00    +0.000 A 
ATOM      2  C   UNL     1       5.192   4.042  14.860  0.00  0.00    +0.000 A 
ATOM      3  C   UNL     1       5.526   4.851  15.928  0.00  0.00    +0.000 A 
ATOM      4  C   UNL     1       4.878   5.185  17.163  0.00  0.00    +0.000 A 
ATOM      5  N   UNL     1       3.632   4.691  17.493  0.00  0.00    +0.000 N 
ATOM      6  N   UNL     1       5.516   5.998  17.958  0.00  0.00    +0.000 NA
ATOM      7  C   UNL     1       6.743   6.488  17.600  0.00  0.00    +0.000 A 
ATOM      8  N   UNL     1       7.400   6.224  16.516  0.00  0.00    +0.000 NA
ATOM      9  N   UNL     1       6.757   5.388  15.692  0.00  0.00    +0.000 N 
ATOM     10  C   UNL     1       7.227   4.931  14.491  0.00  0.00    +0.000 A 
ATOM     11  H   UNL     1       3.112   4.208  16.773  0.00  0.00    +0.000 HD
ENDROOT
BRANCH   5  12
ATOM     12  C   UNL     1       3.162   4.461  18.800  0.00  0.00    +0.000 A 
ATOM     13  C   UNL     1       3.449   3.250  19.435  0.00  0.00    +0.000 A 
ATOM     14  C   UNL     1       2.924   3.017  20.699  0.00  0.00    +0.000 A 
ATOM     15  N   UNL     1       2.155   3.898  21.369  0.00  0.00    +0.000 NA
ATOM     16  C   UNL     1       1.881   5.058  20.740  0.00  0.00    +0.000 A 
ATOM     17  C   UNL     1       2.349   5.374  19.476  0.00  0.00    +0.000 A 
ENDBRANCH   5  12
TORSDOF 1
ENDMDL
MODEL 6
REMARK VINA RESULT:      -6.7      1.267      1.287
REMARK  Name = 
REMARK  1 active torsions:
REMARK  status: ('A' for Active; 'I' for Inactive)
REMARK    1  A    between atoms: N_5  and  C_6
REMARK                            x       y       z     vdW  Elec       q    Type
REMARK                         _______ _______ _______ _____ _____    ______ ____
ROOT
ATOM      1  C   UNL     1       1.039   4.203  20.747  0.00  0.00    +0.000 A 
ATOM      2  C   UNL     1       1.820   4.870  19.768  0.00  0.00    +0.000 A 
ATOM      3  C   UNL     1       2.486   3.896  19.051  0.00  0.00    +0.000 A 
ATOM      4  C   UNL     1       3.433   3.926  17.974  0.00  0.00    +0.000 A 
ATOM      5  N   UNL     1       3.855   5.109  17.403  0.00  0.00    +0.000 N 
ATOM      6  N   UNL     1       3.868   2.774  17.546  0.00  0.00    +0.000 NA
ATOM      7  C   UNL     1       3.423   1.614  18.117  0.00  0.00    +0.000 A 
ATOM      8  N   UNL     1       2.584   1.502  19.099  0.00  0.00    +0.000 NA
ATOM      9  N   UNL     1       2.132   2.678  19.551  0.00  0.00    +0.000 N 
ATOM     10  C   UNL     1       1.254   2.851  20.586  0.00  0.00    +0.000 A 
ATOM     11  H   UNL     1       3.361   5.955  17.655  0.00  0.00    +0.000 HD
ENDROOT
BRANCH   5  12
ATOM     12  C   UNL     1       5.109   5.328  16.801  0.00  0.00    +0.000 A 
ATOM     13  C   UNL     1       6.093   6.037  17.494  0.00  0.00    +0.000 A 
ATOM     14  C   UNL     1       7.301   6.296  16.861  0.00  0.00    +0.000 A 
ATOM     15  N   UNL     1       7.596   5.893  15.608  0.00  0.00    +0.000 NA
ATOM     16  C   UNL     1       6.633   5.218  14.951  0.00  0.00    +0.000 A 
ATOM     17  C   UNL     1       5.395   4.923  15.495  0.00  0.00    +0.000 A 
ENDBRANCH   5  12
TORSDOF 1
ENDMDL
MODEL 7
REMARK VINA RESULT:      -6.7      1.580      5.847
REMARK  Name = 
REMARK  1 active torsions:
REMARK  status: ('A' for Active; 'I' for Inactive)
REMARK    1  A    between atoms: N_5  and  C_6
REMARK                            x       y       z     vdW  Elec       q    Type
REMARK                         _______ _______ _______ _____ _____    ______ ____
ROOT
ATOM      1  C   UNL     1       6.274   4.440  14.115  0.00  0.00    +0.000 A 
ATOM      2  C   UNL     1       5.098   4.468  14.909  0.00  0.00    +0.000 A 
ATOM      3  C   UNL     1       5.499   4.650  16.218  0.00  0.00    +0.000 A 
ATOM      4  C   UNL     1       4.804   4.728  17.470  0.00  0.00    +0.000 A 
ATOM      5  N   UNL     1       3.428   4.644  17.549  0.00  0.00    +0.000 N 
ATOM      6  N   UNL     1       5.534   4.899  18.535  0.00  0.00    +0.000 NA
ATOM      7  C   UNL     1       6.895   4.996  18.429  0.00  0.00    +0.000 A 
ATOM      8  N   UNL     1       7.598   4.921  17.343  0.00  0.00    +0.000 NA
ATOM      9  N   UNL     1       6.859   4.742  16.241  0.00  0.00    +0.000 N 
ATOM     10  C   UNL     1       7.343   4.612  14.968  0.00  0.00    +0.000 A 
ATOM     11  H   UNL     1       2.904   4.683  16.685  0.00  0.00    +0.000 HD
ENDROOT
BRANCH   5  12
ATOM     12  C   UNL     1       2.699   4.146  18.647  0.00  0.00    +0.000 A 
ATOM     13  C   UNL     1       2.552   2.767  18.810  0.00  0.00    +0.000 A 
ATOM     14  C   UNL     1       1.778   2.298  19.863  0.00  0.00    +0.000 A 
ATOM     15  N   UNL     1       1.160   3.095  20.757  0.00  0.00    +0.000 NA
ATOM     16  C   UNL     1       1.306   4.423  20.581  0.00  0.00    +0.000 A 
ATOM     17  C   UNL     1       2.047   4.984  19.555  0.00  0.00    +0.000 A 
ENDBRANCH   5  12
TORSDOF 1
ENDMDL
MODEL 8
REMARK VINA RESULT:      -6.7      1.466      5.891
REMARK  Name = 
REMARK  1 active torsions:
REMARK  status: ('A' for Active; 'I' for Inactive)
REMARK    1  A    between atoms: N_5  and  C_6
REMARK                            x       y       z     vdW  Elec       q    Type
REMARK                         _______ _______ _______ _____ _____    ______ ____
ROOT
ATOM      1  C   UNL     1       6.289   4.106  13.898  0.00  0.00    +0.000 A 
ATOM      2  C   UNL     1       5.186   4.031  14.789  0.00  0.00    +0.000 A 
ATOM      3  C   UNL     1       5.498   4.815  15.882  0.00  0.00    +0.000 A 
ATOM      4  C   UNL     1       4.827   5.117  17.113  0.00  0.00    +0.000 A 
ATOM      5  N   UNL     1       3.578   4.611  17.409  0.00  0.00    +0.000 N 
ATOM      6  N   UNL     1       5.449   5.912  17.939  0.00  0.00    +0.000 NA
ATOM      7  C   UNL     1       6.680   6.414  17.616  0.00  0.00    +0.000 A 
ATOM      8  N   UNL     1       7.357   6.179  16.536  0.00  0.00    +0.000 NA
ATOM      9  N   UNL     1       6.731   5.361  15.681  0.00  0.00    +0.000 N 
ATOM     10  C   UNL     1       7.224   4.935  14.478  0.00  0.00    +0.000 A 
ATOM     11  H   UNL     1       3.072   4.145  16.668  0.00  0.00    +0.000 HD
ENDROOT
BRANCH   5  12
ATOM     12  C   UNL     1       3.085   4.348  18.702  0.00  0.00    +0.000 A 
ATOM     13  C   UNL     1       2.274   5.290  19.338  0.00  0.00    +0.000 A 
ATOM     14  C   UNL     1       1.849   5.039  20.635  0.00  0.00    +0.000 A 
ATOM     15  N   UNL     1       2.163   3.926  21.328  0.00  0.00    +0.000 NA
ATOM     16  C   UNL     1       2.952   3.031  20.704  0.00  0.00    +0.000 A 
ATOM     17  C   UNL     1       3.434   3.199  19.417  0.00  0.00    +0.000 A 
ENDBRANCH   5  12
TORSDOF 1
ENDMDL
MODEL 9
REMARK VINA RESULT:      -6.6      1.775      5.998
REMARK  Name = 
REMARK  1 active torsions:
REMARK  status: ('A' for Active; 'I' for Inactive)
REMARK    1  A    between atoms: N_5  and  C_6
REMARK                            x       y       z     vdW  Elec       q    Type
REMARK                         _______ _______ _______ _____ _____    ______ ____
ROOT
ATOM      1  C   UNL     1       8.188   6.626  18.998  0.00  0.00    +0.000 A 
ATOM      2  C   UNL     1       7.237   5.634  19.355  0.00  0.00    +0.000 A 
ATOM      3  C   UNL     1       6.269   5.630  18.370  0.00  0.00    +0.000 A 
ATOM      4  C   UNL     1       5.052   4.897  18.174  0.00  0.00    +0.000 A 
ATOM      5  N   UNL     1       4.630   3.929  19.064  0.00  0.00    +0.000 N 
ATOM      6  N   UNL     1       4.367   5.176  17.101  0.00  0.00    +0.000 NA
ATOM      7  C   UNL     1       4.815   6.128  16.227  0.00  0.00    +0.000 A 
ATOM      8  N   UNL     1       5.890   6.842  16.338  0.00  0.00    +0.000 NA
ATOM      9  N   UNL     1       6.602   6.568  17.438  0.00  0.00    +0.000 N 
ATOM     10  C   UNL     1       7.766   7.183  17.810  0.00  0.00    +0.000 A 
ATOM     11  H   UNL     1       5.278   3.635  19.781  0.00  0.00    +0.000 HD
ENDROOT
BRANCH   5  12
ATOM     12  C   UNL     1       3.290   3.574  19.312  0.00  0.00    +0.000 A 
ATOM     13  C   UNL     1       2.739   2.463  18.670  0.00  0.00    +0.000 A 
ATOM     14  C   UNL     1       1.400   2.165  18.880  0.00  0.00    +0.000 A 
ATOM     15  N   UNL     1       0.587   2.880  19.684  0.00  0.00    +0.000 NA
ATOM     16  C   UNL     1       1.132   3.952  20.290  0.00  0.00    +0.000 A 
ATOM     17  C   UNL     1       2.453   4.334  20.132  0.00  0.00    +0.000 A 
ENDBRANCH   5  12
TORSDOF 1
ENDMDL
