MODEL 1
REMARK VINA RESULT:      -7.9      0.000      0.000
REMARK  Name = 
REMARK  5 active torsions:
REMARK  status: ('A' for Active; 'I' for Inactive)
REMARK    1  A    between atoms: C_1  and  N_2
REMARK    2  A    between atoms: N_7  and  S_8
REMARK    3  A    between atoms: S_8  and  C_11
REMARK    4  A    between atoms: C_14  and  N_15
REMARK    5  A    between atoms: C_16  and  C_18
REMARK                            x       y       z     vdW  Elec       q    Type
REMARK                         _______ _______ _______ _____ _____    ______ ____
ROOT
ATOM      1  C   UNL     1       6.178   5.979  18.064  0.00  0.00    +0.000 A 
ATOM      2  C   UNL     1       7.409   6.040  18.711  0.00  0.00    +0.000 A 
ATOM      3  C   UNL     1       8.203   7.181  18.566  0.00  0.00    +0.000 A 
ATOM      4  C   UNL     1       7.781   8.265  17.786  0.00  0.00    +0.000 A 
ATOM      5  C   UNL     1       6.517   8.212  17.184  0.00  0.00    +0.000 A 
ATOM      6  C   UNL     1       5.721   7.066  17.310  0.00  0.00    +0.000 A 
ENDROOT
BRANCH   4   7
ATOM      7  N   UNL     1       8.571   9.423  17.585  0.00  0.00    +0.000 N 
ATOM      8  C   UNL     1       9.099  10.216  18.593  0.00  0.00    +0.000 C 
ATOM      9  O   UNL     1       9.044   9.974  19.795  0.00  0.00    +0.000 OA
ATOM     10  H   UNL     1       8.778   9.655  16.625  0.00  0.00    +0.000 HD
BRANCH   8  11
ATOM     11  C   UNL     1       9.789  11.477  18.186  0.00  0.00    +0.000 A 
ATOM     12  C   UNL     1      11.196  11.459  18.187  0.00  0.00    +0.000 A 
ATOM     13  C   UNL     1      11.924  12.594  17.835  0.00  0.00    +0.000 A 
ATOM     14  C   UNL     1      11.246  13.749  17.473  0.00  0.00    +0.000 A 
ATOM     15  F   UNL     1      11.940  14.844  17.141  0.00  0.00    +0.000 F 
ATOM     16  C   UNL     1       9.854  13.781  17.443  0.00  0.00    +0.000 A 
ATOM     17  C   UNL     1       9.118  12.643  17.795  0.00  0.00    +0.000 A 
ENDBRANCH   8  11
ENDBRANCH   4   7
BRANCH   1  18
ATOM     18  S   UNL     1       5.184   4.502  18.127  0.00  0.00    +0.000 S 
ATOM     19  O   UNL     1       5.977   3.545  18.877  0.00  0.00    +0.000 OA
ATOM     20  O   UNL     1       4.803   4.229  16.753  0.00  0.00    +0.000 OA
BRANCH  18  27
ATOM     21  C   UNL     1       1.394   5.353  20.613  0.00  0.00    +0.000 C 
ATOM     22  N   UNL     1       1.703   4.247  19.745  0.00  0.00    +0.000 N 
ATOM     23  C   UNL     1       0.778   3.144  19.583  0.00  0.00    +0.000 C 
ATOM     24  C   UNL     1       1.718   1.968  19.351  0.00  0.00    +0.000 C 
ATOM     25  C   UNL     1       2.938   2.570  18.648  0.00  0.00    +0.000 C 
ATOM     26  C   UNL     1       2.917   4.013  19.134  0.00  0.00    +0.000 C 
ATOM     27  N   UNL     1       3.854   4.887  18.978  0.00  0.00    +0.000 NA
ENDBRANCH  18  27
ENDBRANCH   1  18
TORSDOF 4
ENDMDL
MODEL 2
REMARK VINA RESULT:      -7.9      0.494      1.068
REMARK  Name = 
REMARK  5 active torsions:
REMARK  status: ('A' for Active; 'I' for Inactive)
REMARK    1  A    between atoms: C_1  and  N_2
REMARK    2  A    between atoms: N_7  and  S_8
REMARK    3  A    between atoms: S_8  and  C_11
REMARK    4  A    between atoms: C_14  and  N_15
REMARK    5  A    between atoms: C_16  and  C_18
REMARK                            x       y       z     vdW  Elec       q    Type
REMARK                         _______ _______ _______ _____ _____    ______ ____
ROOT
ATOM      1  C   UNL     1       6.201   5.965  18.109  0.00  0.00    +0.000 A 
ATOM      2  C   UNL     1       5.797   6.987  17.255  0.00  0.00    +0.000 A 
ATOM      3  C   UNL     1       6.618   8.106  17.089  0.00  0.00    +0.000 A 
ATOM      4  C   UNL     1       7.840   8.216  17.765  0.00  0.00    +0.000 A 
ATOM      5  C   UNL     1       8.258   7.156  18.580  0.00  0.00    +0.000 A 
ATOM      6  C   UNL     1       7.436   6.038  18.764  0.00  0.00    +0.000 A 
ENDROOT
BRANCH   4   7
ATOM      7  N   UNL     1       8.683   9.348  17.652  0.00  0.00    +0.000 N 
ATOM      8  C   UNL     1       9.082  10.156  18.708  0.00  0.00    +0.000 C 
ATOM      9  O   UNL     1       8.846   9.950  19.894  0.00  0.00    +0.000 OA
ATOM     10  H   UNL     1       9.034   9.548  16.728  0.00  0.00    +0.000 HD
BRANCH   8  11
ATOM     11  C   UNL     1       9.859  11.387  18.375  0.00  0.00    +0.000 A 
ATOM     12  C   UNL     1      11.239  11.362  18.652  0.00  0.00    +0.000 A 
ATOM     13  C   UNL     1      12.040  12.471  18.388  0.00  0.00    +0.000 A 
ATOM     14  C   UNL     1      11.465  13.607  17.837  0.00  0.00    +0.000 A 
ATOM     15  F   UNL     1      12.229  14.677  17.588  0.00  0.00    +0.000 F 
ATOM     16  C   UNL     1      10.106  13.645  17.533  0.00  0.00    +0.000 A 
ATOM     17  C   UNL     1       9.297  12.533  17.796  0.00  0.00    +0.000 A 
ENDBRANCH   8  11
ENDBRANCH   4   7
BRANCH   1  18
ATOM     18  S   UNL     1       5.138   4.574  18.438  0.00  0.00    +0.000 S 
ATOM     19  O   UNL     1       5.895   3.725  19.340  0.00  0.00    +0.000 OA
ATOM     20  O   UNL     1       4.722   4.083  17.137  0.00  0.00    +0.000 OA
BRANCH  18  27
ATOM     21  C   UNL     1       1.447   6.047  20.779  0.00  0.00    +0.000 C 
ATOM     22  N   UNL     1       1.720   4.759  20.196  0.00  0.00    +0.000 N 
ATOM     23  C   UNL     1       0.788   3.660  20.342  0.00  0.00    +0.000 C 
ATOM     24  C   UNL     1       1.717   2.453  20.370  0.00  0.00    +0.000 C 
ATOM     25  C   UNL     1       2.910   2.852  19.497  0.00  0.00    +0.000 C 
ATOM     26  C   UNL     1       2.910   4.370  19.617  0.00  0.00    +0.000 C 
ATOM     27  N   UNL     1       3.842   5.169  19.218  0.00  0.00    +0.000 NA
ENDBRANCH  18  27
ENDBRANCH   1  18
TORSDOF 4
ENDMDL
MODEL 3
REMARK VINA RESULT:      -7.8      5.289      8.091
REMARK  Name = 
REMARK  5 active torsions:
REMARK  status: ('A' for Active; 'I' for Inactive)
REMARK    1  A    between atoms: C_1  and  N_2
REMARK    2  A    between atoms: N_7  and  S_8
REMARK    3  A    between atoms: S_8  and  C_11
REMARK    4  A    between atoms: C_14  and  N_15
REMARK    5  A    between atoms: C_16  and  C_18
REMARK                            x       y       z     vdW  Elec       q    Type
REMARK                         _______ _______ _______ _____ _____    ______ ____
ROOT
ATOM      1  C   UNL     1       2.672   5.110  18.805  0.00  0.00    +0.000 A 
ATOM      2  C   UNL     1       2.238   5.119  20.128  0.00  0.00    +0.000 A 
ATOM      3  C   UNL     1       1.816   6.322  20.702  0.00  0.00    +0.000 A 
ATOM      4  C   UNL     1       1.820   7.516  19.971  0.00  0.00    +0.000 A 
ATOM      5  C   UNL     1       2.210   7.483  18.626  0.00  0.00    +0.000 A 
ATOM      6  C   UNL     1       2.648   6.286  18.045  0.00  0.00    +0.000 A 
ENDROOT
BRANCH   4   7
ATOM      7  N   UNL     1       1.436   8.760  20.527  0.00  0.00    +0.000 N 
ATOM      8  C   UNL     1       0.255   8.999  21.216  0.00  0.00    +0.000 C 
ATOM      9  O   UNL     1      -0.573   8.149  21.530  0.00  0.00    +0.000 OA
ATOM     10  H   UNL     1       2.101   9.513  20.427  0.00  0.00    +0.000 HD
BRANCH   8  11
ATOM     11  C   UNL     1      -0.040  10.409  21.607  0.00  0.00    +0.000 A 
ATOM     12  C   UNL     1      -0.945  10.598  22.668  0.00  0.00    +0.000 A 
ATOM     13  C   UNL     1      -1.292  11.880  23.091  0.00  0.00    +0.000 A 
ATOM     14  C   UNL     1      -0.726  12.978  22.459  0.00  0.00    +0.000 A 
ATOM     15  F   UNL     1      -1.061  14.211  22.857  0.00  0.00    +0.000 F 
ATOM     16  C   UNL     1       0.190  12.814  21.423  0.00  0.00    +0.000 A 
ATOM     17  C   UNL     1       0.541  11.528  20.995  0.00  0.00    +0.000 A 
ENDBRANCH   8  11
ENDBRANCH   4   7
BRANCH   1  18
ATOM     18  S   UNL     1       3.324   3.627  18.066  0.00  0.00    +0.000 S 
ATOM     19  O   UNL     1       2.247   3.112  17.241  0.00  0.00    +0.000 OA
ATOM     20  O   UNL     1       3.851   2.840  19.167  0.00  0.00    +0.000 OA
BRANCH  18  27
ATOM     21  C   UNL     1       6.973   4.932  15.565  0.00  0.00    +0.000 C 
ATOM     22  N   UNL     1       6.608   5.268  16.917  0.00  0.00    +0.000 N 
ATOM     23  C   UNL     1       7.466   6.100  17.737  0.00  0.00    +0.000 C 
ATOM     24  C   UNL     1       7.212   5.544  19.132  0.00  0.00    +0.000 C 
ATOM     25  C   UNL     1       5.764   5.048  19.103  0.00  0.00    +0.000 C 
ATOM     26  C   UNL     1       5.557   4.730  17.629  0.00  0.00    +0.000 C 
ATOM     27  N   UNL     1       4.555   4.097  17.116  0.00  0.00    +0.000 NA
ENDBRANCH  18  27
ENDBRANCH   1  18
TORSDOF 4
ENDMDL
MODEL 4
REMARK VINA RESULT:      -7.8      5.923      8.383
REMARK  Name = 
REMARK  5 active torsions:
REMARK  status: ('A' for Active; 'I' for Inactive)
REMARK    1  A    between atoms: C_1  and  N_2
REMARK    2  A    between atoms: N_7  and  S_8
REMARK    3  A    between atoms: S_8  and  C_11
REMARK    4  A    between atoms: C_14  and  N_15
REMARK    5  A    between atoms: C_16  and  C_18
REMARK                            x       y       z     vdW  Elec       q    Type
REMARK                         _______ _______ _______ _____ _____    ______ ____
ROOT
ATOM      1  C   UNL     1       1.459   8.117  20.390  0.00  0.00    +0.000 A 
ATOM      2  C   UNL     1       1.892   6.818  20.640  0.00  0.00    +0.000 A 
ATOM      3  C   UNL     1       2.621   6.138  19.661  0.00  0.00    +0.000 A 
ATOM      4  C   UNL     1       2.927   6.741  18.435  0.00  0.00    +0.000 A 
ATOM      5  C   UNL     1       2.531   8.067  18.217  0.00  0.00    +0.000 A 
ATOM      6  C   UNL     1       1.786   8.751  19.185  0.00  0.00    +0.000 A 
ENDROOT
BRANCH   4   7
ATOM      7  N   UNL     1       3.632   6.074  17.403  0.00  0.00    +0.000 N 
ATOM      8  C   UNL     1       5.010   5.919  17.346  0.00  0.00    +0.000 C 
ATOM      9  O   UNL     1       5.802   6.246  18.225  0.00  0.00    +0.000 OA
ATOM     10  H   UNL     1       3.066   5.661  16.677  0.00  0.00    +0.000 HD
BRANCH   8  11
ATOM     11  C   UNL     1       5.582   5.309  16.110  0.00  0.00    +0.000 A 
ATOM     12  C   UNL     1       4.702   4.565  15.302  0.00  0.00    +0.000 A 
ATOM     13  C   UNL     1       5.151   3.948  14.136  0.00  0.00    +0.000 A 
ATOM     14  C   UNL     1       6.482   4.081  13.769  0.00  0.00    +0.000 A 
ATOM     15  F   UNL     1       6.921   3.484  12.655  0.00  0.00    +0.000 F 
ATOM     16  C   UNL     1       7.365   4.831  14.541  0.00  0.00    +0.000 A 
ATOM     17  C   UNL     1       6.918   5.454  15.713  0.00  0.00    +0.000 A 
ENDBRANCH   8  11
ENDBRANCH   4   7
BRANCH   1  18
ATOM     18  S   UNL     1       0.431   8.981  21.560  0.00  0.00    +0.000 S 
ATOM     19  O   UNL     1       1.333   9.398  22.618  0.00  0.00    +0.000 OA
ATOM     20  O   UNL     1      -0.676   8.085  21.845  0.00  0.00    +0.000 OA
BRANCH  18  27
ATOM     21  C   UNL     1      -1.157  12.829  19.576  0.00  0.00    +0.000 C 
ATOM     22  N   UNL     1      -1.454  12.262  20.866  0.00  0.00    +0.000 N 
ATOM     23  C   UNL     1      -2.338  12.938  21.793  0.00  0.00    +0.000 C 
ATOM     24  C   UNL     1      -1.753  12.539  23.142  0.00  0.00    +0.000 C 
ATOM     25  C   UNL     1      -1.154  11.148  22.918  0.00  0.00    +0.000 C 
ATOM     26  C   UNL     1      -0.835  11.166  21.429  0.00  0.00    +0.000 C 
ATOM     27  N   UNL     1      -0.136  10.292  20.785  0.00  0.00    +0.000 NA
ENDBRANCH  18  27
ENDBRANCH   1  18
TORSDOF 4
ENDMDL
MODEL 5
REMARK VINA RESULT:      -7.7      5.784      8.125
REMARK  Name = 
REMARK  5 active torsions:
REMARK  status: ('A' for Active; 'I' for Inactive)
REMARK    1  A    between atoms: C_1  and  N_2
REMARK    2  A    between atoms: N_7  and  S_8
REMARK    3  A    between atoms: S_8  and  C_11
REMARK    4  A    between atoms: C_14  and  N_15
REMARK    5  A    between atoms: C_16  and  C_18
REMARK                            x       y       z     vdW  Elec       q    Type
REMARK                         _______ _______ _______ _____ _____    ______ ____
ROOT
ATOM      1  C   UNL     1       2.631   5.124  18.808  0.00  0.00    +0.000 A 
ATOM      2  C   UNL     1       2.571   6.246  17.986  0.00  0.00    +0.000 A 
ATOM      3  C   UNL     1       2.202   7.477  18.535  0.00  0.00    +0.000 A 
ATOM      4  C   UNL     1       1.895   7.604  19.895  0.00  0.00    +0.000 A 
ATOM      5  C   UNL     1       2.011   6.478  20.720  0.00  0.00    +0.000 A 
ATOM      6  C   UNL     1       2.365   5.236  20.178  0.00  0.00    +0.000 A 
ENDROOT
BRANCH   4   7
ATOM      7  N   UNL     1       1.482   8.824  20.482  0.00  0.00    +0.000 N 
ATOM      8  C   UNL     1       0.288   9.023  21.160  0.00  0.00    +0.000 C 
ATOM      9  O   UNL     1      -0.530   8.150  21.436  0.00  0.00    +0.000 OA
ATOM     10  H   UNL     1       2.136   9.590  20.415  0.00  0.00    +0.000 HD
BRANCH   8  11
ATOM     11  C   UNL     1      -0.036  10.416  21.588  0.00  0.00    +0.000 A 
ATOM     12  C   UNL     1      -0.935  10.557  22.663  0.00  0.00    +0.000 A 
ATOM     13  C   UNL     1      -1.307  11.820  23.121  0.00  0.00    +0.000 A 
ATOM     14  C   UNL     1      -0.774  12.946  22.510  0.00  0.00    +0.000 A 
ATOM     15  F   UNL     1      -1.133  14.161  22.941  0.00  0.00    +0.000 F 
ATOM     16  C   UNL     1       0.134  12.829  21.461  0.00  0.00    +0.000 A 
ATOM     17  C   UNL     1       0.512  11.563  20.998  0.00  0.00    +0.000 A 
ENDBRANCH   8  11
ENDBRANCH   4   7
BRANCH   1  18
ATOM     18  S   UNL     1       2.986   3.514  18.133  0.00  0.00    +0.000 S 
ATOM     19  O   UNL     1       1.699   2.988  17.715  0.00  0.00    +0.000 OA
ATOM     20  O   UNL     1       3.769   2.830  19.146  0.00  0.00    +0.000 OA
BRANCH  18  27
ATOM     21  C   UNL     1       5.830   4.178  14.563  0.00  0.00    +0.000 C 
ATOM     22  N   UNL     1       5.954   4.594  15.937  0.00  0.00    +0.000 N 
ATOM     23  C   UNL     1       7.135   5.295  16.401  0.00  0.00    +0.000 C 
ATOM     24  C   UNL     1       7.248   4.813  17.841  0.00  0.00    +0.000 C 
ATOM     25  C   UNL     1       5.806   4.552  18.286  0.00  0.00    +0.000 C 
ATOM     26  C   UNL     1       5.109   4.243  16.968  0.00  0.00    +0.000 C 
ATOM     27  N   UNL     1       3.917   3.766  16.826  0.00  0.00    +0.000 NA
ENDBRANCH  18  27
ENDBRANCH   1  18
TORSDOF 4
ENDMDL
MODEL 6
REMARK VINA RESULT:      -7.7      5.427      8.210
REMARK  Name = 
REMARK  5 active torsions:
REMARK  status: ('A' for Active; 'I' for Inactive)
REMARK    1  A    between atoms: C_1  and  N_2
REMARK    2  A    between atoms: N_7  and  S_8
REMARK    3  A    between atoms: S_8  and  C_11
REMARK    4  A    between atoms: C_14  and  N_15
REMARK    5  A    between atoms: C_16  and  C_18
REMARK                            x       y       z     vdW  Elec       q    Type
REMARK                         _______ _______ _______ _____ _____    ______ ____
ROOT
ATOM      1  C   UNL     1       2.623   5.533  18.781  0.00  0.00    +0.000 A 
ATOM      2  C   UNL     1       2.633   6.716  18.048  0.00  0.00    +0.000 A 
ATOM      3  C   UNL     1       2.208   7.901  18.655  0.00  0.00    +0.000 A 
ATOM      4  C   UNL     1       1.775   7.921  19.986  0.00  0.00    +0.000 A 
ATOM      5  C   UNL     1       1.820   6.733  20.728  0.00  0.00    +0.000 A 
ATOM      6  C   UNL     1       2.230   5.537  20.125  0.00  0.00    +0.000 A 
ENDROOT
BRANCH   4   7
ATOM      7  N   UNL     1       1.303   9.092  20.626  0.00  0.00    +0.000 N 
ATOM      8  C   UNL     1       0.121   9.190  21.345  0.00  0.00    +0.000 C 
ATOM      9  O   UNL     1      -0.631   8.258  21.614  0.00  0.00    +0.000 OA
ATOM     10  H   UNL     1       1.904   9.901  20.566  0.00  0.00    +0.000 HD
BRANCH   8  11
ATOM     11  C   UNL     1      -0.280  10.545  21.829  0.00  0.00    +0.000 A 
ATOM     12  C   UNL     1       0.285  11.649  21.164  0.00  0.00    +0.000 A 
ATOM     13  C   UNL     1      -0.020  12.951  21.556  0.00  0.00    +0.000 A 
ATOM     14  C   UNL     1      -0.898  13.153  22.610  0.00  0.00    +0.000 A 
ATOM     15  F   UNL     1      -1.189  14.401  22.996  0.00  0.00    +0.000 F 
ATOM     16  C   UNL     1      -1.487  12.075  23.267  0.00  0.00    +0.000 A 
ATOM     17  C   UNL     1      -1.184  10.765  22.876  0.00  0.00    +0.000 A 
ENDBRANCH   8  11
ENDBRANCH   4   7
BRANCH   1  18
ATOM     18  S   UNL     1       3.047   3.980  18.018  0.00  0.00    +0.000 S 
ATOM     19  O   UNL     1       1.909   3.647  17.182  0.00  0.00    +0.000 OA
ATOM     20  O   UNL     1       3.445   3.105  19.107  0.00  0.00    +0.000 OA
BRANCH  18  27
ATOM     21  C   UNL     1       6.861   4.769  15.548  0.00  0.00    +0.000 C 
ATOM     22  N   UNL     1       6.532   5.160  16.894  0.00  0.00    +0.000 N 
ATOM     23  C   UNL     1       7.486   5.876  17.718  0.00  0.00    +0.000 C 
ATOM     24  C   UNL     1       7.147   5.369  19.114  0.00  0.00    +0.000 C 
ATOM     25  C   UNL     1       5.645   5.071  19.073  0.00  0.00    +0.000 C 
ATOM     26  C   UNL     1       5.412   4.773  17.598  0.00  0.00    +0.000 C 
ATOM     27  N   UNL     1       4.339   4.275  17.078  0.00  0.00    +0.000 NA
ENDBRANCH  18  27
ENDBRANCH   1  18
TORSDOF 4
ENDMDL
MODEL 7
REMARK VINA RESULT:      -7.6      5.928      8.219
REMARK  Name = 
REMARK  5 active torsions:
REMARK  status: ('A' for Active; 'I' for Inactive)
REMARK    1  A    between atoms: C_1  and  N_2
REMARK    2  A    between atoms: N_7  and  S_8
REMARK    3  A    between atoms: S_8  and  C_11
REMARK    4  A    between atoms: C_14  and  N_15
REMARK    5  A    between atoms: C_16  and  C_18
REMARK                            x       y       z     vdW  Elec       q    Type
REMARK                         _______ _______ _______ _____ _____    ______ ____
ROOT
ATOM      1  C   UNL     1       2.670   5.111  19.109  0.00  0.00    +0.000 A 
ATOM      2  C   UNL     1       2.143   5.114  20.397  0.00  0.00    +0.000 A 
ATOM      3  C   UNL     1       1.689   6.314  20.949  0.00  0.00    +0.000 A 
ATOM      4  C   UNL     1       1.751   7.514  20.229  0.00  0.00    +0.000 A 
ATOM      5  C   UNL     1       2.234   7.487  18.915  0.00  0.00    +0.000 A 
ATOM      6  C   UNL     1       2.707   6.292  18.358  0.00  0.00    +0.000 A 
ENDROOT
BRANCH   4   7
ATOM      7  N   UNL     1       1.335   8.756  20.765  0.00  0.00    +0.000 N 
ATOM      8  C   UNL     1       0.114   8.994  21.382  0.00  0.00    +0.000 C 
ATOM      9  O   UNL     1      -0.733   8.144  21.639  0.00  0.00    +0.000 OA
ATOM     10  H   UNL     1       2.005   9.508  20.711  0.00  0.00    +0.000 HD
BRANCH   8  11
ATOM     11  C   UNL     1      -0.203  10.403  21.759  0.00  0.00    +0.000 A 
ATOM     12  C   UNL     1      -1.065  10.588  22.856  0.00  0.00    +0.000 A 
ATOM     13  C   UNL     1      -1.428  11.869  23.271  0.00  0.00    +0.000 A 
ATOM     14  C   UNL     1      -0.922  12.969  22.594  0.00  0.00    +0.000 A 
ATOM     15  F   UNL     1      -1.273  14.200  22.984  0.00  0.00    +0.000 F 
ATOM     16  C   UNL     1      -0.049  12.809  21.521  0.00  0.00    +0.000 A 
ATOM     17  C   UNL     1       0.319  11.525  21.101  0.00  0.00    +0.000 A 
ENDBRANCH   8  11
ENDBRANCH   4   7
BRANCH   1  18
ATOM     18  S   UNL     1       3.365   3.629  18.408  0.00  0.00    +0.000 S 
ATOM     19  O   UNL     1       2.772   3.522  17.087  0.00  0.00    +0.000 OA
ATOM     20  O   UNL     1       3.152   2.590  19.399  0.00  0.00    +0.000 OA
BRANCH  18  27
ATOM     21  C   UNL     1       7.841   4.575  17.822  0.00  0.00    +0.000 C 
ATOM     22  N   UNL     1       6.788   4.436  16.848  0.00  0.00    +0.000 N 
ATOM     23  C   UNL     1       7.042   4.651  15.438  0.00  0.00    +0.000 C 
ATOM     24  C   UNL     1       5.711   5.213  14.955  0.00  0.00    +0.000 C 
ATOM     25  C   UNL     1       4.658   4.565  15.857  0.00  0.00    +0.000 C 
ATOM     26  C   UNL     1       5.448   4.272  17.126  0.00  0.00    +0.000 C 
ATOM     27  N   UNL     1       4.961   3.901  18.262  0.00  0.00    +0.000 NA
ENDBRANCH  18  27
ENDBRANCH   1  18
TORSDOF 4
ENDMDL
MODEL 8
REMARK VINA RESULT:      -7.5      6.222      8.841
REMARK  Name = 
REMARK  5 active torsions:
REMARK  status: ('A' for Active; 'I' for Inactive)
REMARK    1  A    between atoms: C_1  and  N_2
REMARK    2  A    between atoms: N_7  and  S_8
REMARK    3  A    between atoms: S_8  and  C_11
REMARK    4  A    between atoms: C_14  and  N_15
REMARK    5  A    between atoms: C_16  and  C_18
REMARK                            x       y       z     vdW  Elec       q    Type
REMARK                         _______ _______ _______ _____ _____    ______ ____
ROOT
ATOM      1  C   UNL     1       2.238   7.072  19.461  0.00  0.00    +0.000 A 
ATOM      2  C   UNL     1       2.014   8.199  18.676  0.00  0.00    +0.000 A 
ATOM      3  C   UNL     1       1.259   9.255  19.193  0.00  0.00    +0.000 A 
ATOM      4  C   UNL     1       0.726   9.202  20.487  0.00  0.00    +0.000 A 
ATOM      5  C   UNL     1       1.003   8.084  21.285  0.00  0.00    +0.000 A 
ATOM      6  C   UNL     1       1.746   7.014  20.770  0.00  0.00    +0.000 A 
ENDROOT
BRANCH   4   7
ATOM      7  N   UNL     1      -0.074  10.234  21.034  0.00  0.00    +0.000 N 
ATOM      8  C   UNL     1       0.391  11.476  21.442  0.00  0.00    +0.000 C 
ATOM      9  O   UNL     1       1.536  11.893  21.295  0.00  0.00    +0.000 OA
ATOM     10  H   UNL     1      -1.063  10.041  21.096  0.00  0.00    +0.000 HD
BRANCH   8  11
ATOM     11  C   UNL     1      -0.579  12.383  22.124  0.00  0.00    +0.000 A 
ATOM     12  C   UNL     1      -1.722  11.783  22.687  0.00  0.00    +0.000 A 
ATOM     13  C   UNL     1      -2.688  12.554  23.331  0.00  0.00    +0.000 A 
ATOM     14  C   UNL     1      -2.510  13.926  23.422  0.00  0.00    +0.000 A 
ATOM     15  F   UNL     1      -3.439  14.672  24.033  0.00  0.00    +0.000 F 
ATOM     16  C   UNL     1      -1.376  14.537  22.894  0.00  0.00    +0.000 A 
ATOM     17  C   UNL     1      -0.402  13.768  22.246  0.00  0.00    +0.000 A 
ENDBRANCH   8  11
ENDBRANCH   4   7
BRANCH   1  18
ATOM     18  S   UNL     1       3.097   5.656  18.806  0.00  0.00    +0.000 S 
ATOM     19  O   UNL     1       2.329   5.255  17.640  0.00  0.00    +0.000 OA
ATOM     20  O   UNL     1       3.266   4.748  19.926  0.00  0.00    +0.000 OA
BRANCH  18  27
ATOM     21  C   UNL     1       7.207   7.052  17.247  0.00  0.00    +0.000 C 
ATOM     22  N   UNL     1       6.564   5.768  17.142  0.00  0.00    +0.000 N 
ATOM     23  C   UNL     1       7.185   4.679  16.415  0.00  0.00    +0.000 C 
ATOM     24  C   UNL     1       5.977   3.933  15.862  0.00  0.00    +0.000 C 
ATOM     25  C   UNL     1       4.869   4.153  16.895  0.00  0.00    +0.000 C 
ATOM     26  C   UNL     1       5.275   5.475  17.533  0.00  0.00    +0.000 C 
ATOM     27  N   UNL     1       4.557   6.190  18.333  0.00  0.00    +0.000 NA
ENDBRANCH  18  27
ENDBRANCH   1  18
TORSDOF 4
ENDMDL
MODEL 9
REMARK VINA RESULT:      -7.5      7.138      9.828
REMARK  Name = 
REMARK  5 active torsions:
REMARK  status: ('A' for Active; 'I' for Inactive)
REMARK    1  A    between atoms: C_1  and  N_2
REMARK    2  A    between atoms: N_7  and  S_8
REMARK    3  A    between atoms: S_8  and  C_11
REMARK    4  A    between atoms: C_14  and  N_15
REMARK    5  A    between atoms: C_16  and  C_18
REMARK                            x       y       z     vdW  Elec       q    Type
REMARK                         _______ _______ _______ _____ _____    ______ ____
ROOT
ATOM      1  C   UNL     1       0.101  10.489  21.006  0.00  0.00    +0.000 A 
ATOM      2  C   UNL     1       0.066  10.733  19.637  0.00  0.00    +0.000 A 
ATOM      3  C   UNL     1       0.785   9.901  18.774  0.00  0.00    +0.000 A 
ATOM      4  C   UNL     1       1.536   8.825  19.261  0.00  0.00    +0.000 A 
ATOM      5  C   UNL     1       1.519   8.559  20.637  0.00  0.00    +0.000 A 
ATOM      6  C   UNL     1       0.815   9.396  21.511  0.00  0.00    +0.000 A 
ENDROOT
BRANCH   4   7
ATOM      7  N   UNL     1       2.306   7.981  18.425  0.00  0.00    +0.000 N 
ATOM      8  C   UNL     1       2.601   6.650  18.685  0.00  0.00    +0.000 C 
ATOM      9  O   UNL     1       2.157   5.989  19.619  0.00  0.00    +0.000 OA
ATOM     10  H   UNL     1       2.631   8.391  17.562  0.00  0.00    +0.000 HD
BRANCH   8  11
ATOM     11  C   UNL     1       3.545   5.961  17.755  0.00  0.00    +0.000 A 
ATOM     12  C   UNL     1       3.408   4.566  17.631  0.00  0.00    +0.000 A 
ATOM     13  C   UNL     1       4.255   3.837  16.797  0.00  0.00    +0.000 A 
ATOM     14  C   UNL     1       5.235   4.504  16.077  0.00  0.00    +0.000 A 
ATOM     15  F   UNL     1       6.055   3.808  15.281  0.00  0.00    +0.000 F 
ATOM     16  C   UNL     1       5.372   5.887  16.167  0.00  0.00    +0.000 A 
ATOM     17  C   UNL     1       4.524   6.623  17.003  0.00  0.00    +0.000 A 
ENDBRANCH   8  11
ENDBRANCH   4   7
BRANCH   1  18
ATOM     18  S   UNL     1      -0.705  11.588  22.153  0.00  0.00    +0.000 S 
ATOM     19  O   UNL     1       0.098  12.797  22.145  0.00  0.00    +0.000 OA
ATOM     20  O   UNL     1      -0.876  10.823  23.374  0.00  0.00    +0.000 OA
BRANCH  18  27
ATOM     21  C   UNL     1      -4.868  12.701  20.507  0.00  0.00    +0.000 C 
ATOM     22  N   UNL     1      -4.365  12.736  21.856  0.00  0.00    +0.000 N 
ATOM     23  C   UNL     1      -5.186  13.224  22.946  0.00  0.00    +0.000 C 
ATOM     24  C   UNL     1      -4.151  13.848  23.873  0.00  0.00    +0.000 C 
ATOM     25  C   UNL     1      -2.880  13.021  23.660  0.00  0.00    +0.000 C 
ATOM     26  C   UNL     1      -3.062  12.501  22.240  0.00  0.00    +0.000 C 
ATOM     27  N   UNL     1      -2.168  11.909  21.521  0.00  0.00    +0.000 NA
ENDBRANCH  18  27
ENDBRANCH   1  18
TORSDOF 4
ENDMDL
