MODEL 1
REMARK VINA RESULT:      -8.7      0.000      0.000
REMARK  Name = 
REMARK  8 active torsions:
REMARK  status: ('A' for Active; 'I' for Inactive)
REMARK    1  A    between atoms: C_1  and  C_2
REMARK    2  A    between atoms: C_5  and  C_6
REMARK    3  A    between atoms: C_6  and  C_7
REMARK    4  A    between atoms: C_7  and  O_9
REMARK    5  A    between atoms: C_14  and  O_15
REMARK    6  A    between atoms: O_15  and  C_16
REMARK    7  A    between atoms: C_16  and  C_17
REMARK    8  A    between atoms: C_19  and  C_20
REMARK                            x       y       z     vdW  Elec       q    Type
REMARK                         _______ _______ _______ _____ _____    ______ ____
ROOT
ATOM      1  C   UNL     1       2.696   7.848  18.332  0.00  0.00    +0.000 C 
ATOM      2  C   UNL     1       3.084   6.428  18.033  0.00  0.00    +0.000 A 
ATOM      3  C   UNL     1       2.318   5.438  18.688  0.00  0.00    +0.000 A 
ATOM      4  C   UNL     1       2.618   4.061  18.594  0.00  0.00    +0.000 A 
ATOM      5  C   UNL     1       2.019   2.920  19.257  0.00  0.00    +0.000 A 
ATOM      6  C   UNL     1       2.625   1.744  18.866  0.00  0.00    +0.000 A 
ATOM      7  S   UNL     1       3.901   1.991  17.763  0.00  0.00    +0.000 S 
ATOM      8  C   UNL     1       3.690   3.698  17.781  0.00  0.00    +0.000 A 
ATOM      9  C   UNL     1       4.462   4.665  17.101  0.00  0.00    +0.000 A 
ATOM     10  C   UNL     1       4.154   6.031  17.219  0.00  0.00    +0.000 A 
ENDROOT
BRANCH   5  11
ATOM     11  C   UNL     1       0.938   2.999  20.307  0.00  0.00    +0.000 C 
BRANCH  11  12
ATOM     12  C   UNL     1       1.405   2.985  21.748  0.00  0.00    +0.000 C 
ATOM     13  O   UNL     1       2.393   3.602  22.126  0.00  0.00    +0.000 OA
BRANCH  12  14
ATOM     14  O   UNL     1       0.709   2.188  22.587  0.00  0.00    +0.000 OA
ATOM     15  H   UNL     1       0.813   2.408  23.533  0.00  0.00    +0.000 HD
ENDBRANCH  12  14
ENDBRANCH  11  12
ENDBRANCH   5  11
BRANCH  10  16
ATOM     16  O   UNL     1       5.040   6.846  16.551  0.00  0.00    +0.000 OA
BRANCH  16  17
ATOM     17  C   UNL     1       6.421   6.476  16.605  0.00  0.00    +0.000 C 
BRANCH  17  18
ATOM     18  C   UNL     1       7.254   7.358  17.474  0.00  0.00    +0.000 A 
ATOM     19  C   UNL     1       7.505   8.743  17.380  0.00  0.00    +0.000 A 
ATOM     20  C   UNL     1       8.435   8.998  18.361  0.00  0.00    +0.000 A 
ATOM     21  O   UNL     1       8.704   7.835  19.017  0.00  0.00    +0.000 OA
ATOM     22  N   UNL     1       7.964   6.807  18.469  0.00  0.00    +0.000 NA
BRANCH  20  23
ATOM     23  C   UNL     1       9.171  10.180  18.797  0.00  0.00    +0.000 A 
ATOM     24  C   UNL     1       9.767  11.020  17.845  0.00  0.00    +0.000 A 
ATOM     25  C   UNL     1      10.488  12.150  18.238  0.00  0.00    +0.000 A 
ATOM     26  C   UNL     1      10.621  12.453  19.588  0.00  0.00    +0.000 A 
ATOM     27 CL   UNL     1      11.516  13.840  20.069  0.00  0.00    +0.000 Cl
ATOM     28  C   UNL     1      10.036  11.634  20.551  0.00  0.00    +0.000 A 
ATOM     29  C   UNL     1       9.313  10.503  20.156  0.00  0.00    +0.000 A 
ENDBRANCH  20  23
ENDBRANCH  17  18
ENDBRANCH  16  17
ENDBRANCH  10  16
TORSDOF 7
ENDMDL
MODEL 2
REMARK VINA RESULT:      -8.2      6.208      9.139
REMARK  Name = 
REMARK  8 active torsions:
REMARK  status: ('A' for Active; 'I' for Inactive)
REMARK    1  A    between atoms: C_1  and  C_2
REMARK    2  A    between atoms: C_5  and  C_6
REMARK    3  A    between atoms: C_6  and  C_7
REMARK    4  A    between atoms: C_7  and  O_9
REMARK    5  A    between atoms: C_14  and  O_15
REMARK    6  A    between atoms: O_15  and  C_16
REMARK    7  A    between atoms: C_16  and  C_17
REMARK    8  A    between atoms: C_19  and  C_20
REMARK                            x       y       z     vdW  Elec       q    Type
REMARK                         _______ _______ _______ _____ _____    ______ ____
ROOT
ATOM      1  C   UNL     1       1.729   9.316  18.002  0.00  0.00    +0.000 C 
ATOM      2  C   UNL     1       2.401   8.050  18.453  0.00  0.00    +0.000 A 
ATOM      3  C   UNL     1       3.338   7.503  17.548  0.00  0.00    +0.000 A 
ATOM      4  C   UNL     1       3.980   6.266  17.777  0.00  0.00    +0.000 A 
ATOM      5  C   UNL     1       4.883   5.505  16.937  0.00  0.00    +0.000 A 
ATOM      6  C   UNL     1       5.279   4.340  17.563  0.00  0.00    +0.000 A 
ATOM      7  S   UNL     1       4.567   4.135  19.097  0.00  0.00    +0.000 S 
ATOM      8  C   UNL     1       3.687   5.608  18.971  0.00  0.00    +0.000 A 
ATOM      9  C   UNL     1       2.767   6.140  19.901  0.00  0.00    +0.000 A 
ATOM     10  C   UNL     1       2.130   7.367  19.647  0.00  0.00    +0.000 A 
ENDROOT
BRANCH   5  11
ATOM     11  C   UNL     1       5.276   5.878  15.529  0.00  0.00    +0.000 C 
BRANCH  11  12
ATOM     12  C   UNL     1       6.382   5.053  14.905  0.00  0.00    +0.000 C 
ATOM     13  O   UNL     1       6.160   4.054  14.232  0.00  0.00    +0.000 OA
BRANCH  12  14
ATOM     14  O   UNL     1       7.643   5.439  15.194  0.00  0.00    +0.000 OA
ATOM     15  H   UNL     1       7.810   5.596  16.144  0.00  0.00    +0.000 HD
ENDBRANCH  12  14
ENDBRANCH  11  12
ENDBRANCH   5  11
BRANCH  10  16
ATOM     16  O   UNL     1       1.215   7.714  20.616  0.00  0.00    +0.000 OA
BRANCH  16  17
ATOM     17  C   UNL     1       1.641   8.674  21.588  0.00  0.00    +0.000 C 
BRANCH  17  18
ATOM     18  C   UNL     1       0.553   9.571  22.075  0.00  0.00    +0.000 A 
ATOM     19  C   UNL     1      -0.355  10.369  21.347  0.00  0.00    +0.000 A 
ATOM     20  C   UNL     1      -1.045  11.077  22.304  0.00  0.00    +0.000 A 
ATOM     21  O   UNL     1      -0.591  10.702  23.532  0.00  0.00    +0.000 OA
ATOM     22  N   UNL     1       0.405   9.757  23.395  0.00  0.00    +0.000 NA
BRANCH  20  23
ATOM     23  C   UNL     1      -2.079  12.104  22.274  0.00  0.00    +0.000 A 
ATOM     24  C   UNL     1      -2.330  12.808  21.087  0.00  0.00    +0.000 A 
ATOM     25  C   UNL     1      -3.306  13.806  21.037  0.00  0.00    +0.000 A 
ATOM     26  C   UNL     1      -4.043  14.112  22.175  0.00  0.00    +0.000 A 
ATOM     27 CL   UNL     1      -5.237  15.347  22.113  0.00  0.00    +0.000 Cl
ATOM     28  C   UNL     1      -3.813  13.426  23.365  0.00  0.00    +0.000 A 
ATOM     29  C   UNL     1      -2.836  12.425  23.413  0.00  0.00    +0.000 A 
ENDBRANCH  20  23
ENDBRANCH  17  18
ENDBRANCH  16  17
ENDBRANCH  10  16
TORSDOF 7
ENDMDL
MODEL 3
REMARK VINA RESULT:      -8.1      6.087      9.054
REMARK  Name = 
REMARK  8 active torsions:
REMARK  status: ('A' for Active; 'I' for Inactive)
REMARK    1  A    between atoms: C_1  and  C_2
REMARK    2  A    between atoms: C_5  and  C_6
REMARK    3  A    between atoms: C_6  and  C_7
REMARK    4  A    between atoms: C_7  and  O_9
REMARK    5  A    between atoms: C_14  and  O_15
REMARK    6  A    between atoms: O_15  and  C_16
REMARK    7  A    between atoms: C_16  and  C_17
REMARK    8  A    between atoms: C_19  and  C_20
REMARK                            x       y       z     vdW  Elec       q    Type
REMARK                         _______ _______ _______ _____ _____    ______ ____
ROOT
ATOM      1  C   UNL     1       2.029   9.044  17.945  0.00  0.00    +0.000 C 
ATOM      2  C   UNL     1       2.570   7.741  18.462  0.00  0.00    +0.000 A 
ATOM      3  C   UNL     1       3.509   7.098  17.625  0.00  0.00    +0.000 A 
ATOM      4  C   UNL     1       4.035   5.820  17.917  0.00  0.00    +0.000 A 
ATOM      5  C   UNL     1       4.920   4.969  17.147  0.00  0.00    +0.000 A 
ATOM      6  C   UNL     1       5.185   3.792  17.819  0.00  0.00    +0.000 A 
ATOM      7  S   UNL     1       4.373   3.685  19.314  0.00  0.00    +0.000 S 
ATOM      8  C   UNL     1       3.623   5.219  19.106  0.00  0.00    +0.000 A 
ATOM      9  C   UNL     1       2.698   5.846  19.969  0.00  0.00    +0.000 A 
ATOM     10  C   UNL     1       2.178   7.113  19.652  0.00  0.00    +0.000 A 
ENDROOT
BRANCH   5  11
ATOM     11  C   UNL     1       5.420   5.272  15.757  0.00  0.00    +0.000 C 
BRANCH  11  12
ATOM     12  C   UNL     1       6.888   5.623  15.637  0.00  0.00    +0.000 C 
ATOM     13  O   UNL     1       7.482   6.273  16.488  0.00  0.00    +0.000 OA
BRANCH  12  14
ATOM     14  O   UNL     1       7.496   5.239  14.494  0.00  0.00    +0.000 OA
ATOM     15  H   UNL     1       7.010   4.563  13.985  0.00  0.00    +0.000 HD
ENDBRANCH  12  14
ENDBRANCH  11  12
ENDBRANCH   5  11
BRANCH  10  16
ATOM     16  O   UNL     1       1.241   7.556  20.559  0.00  0.00    +0.000 OA
BRANCH  16  17
ATOM     17  C   UNL     1       1.696   8.478  21.555  0.00  0.00    +0.000 C 
BRANCH  17  18
ATOM     18  C   UNL     1       0.643   9.414  22.044  0.00  0.00    +0.000 A 
ATOM     19  C   UNL     1      -0.282  10.195  21.318  0.00  0.00    +0.000 A 
ATOM     20  C   UNL     1      -0.920  10.956  22.269  0.00  0.00    +0.000 A 
ATOM     21  O   UNL     1      -0.421  10.629  23.494  0.00  0.00    +0.000 OA
ATOM     22  N   UNL     1       0.553   9.662  23.359  0.00  0.00    +0.000 NA
BRANCH  20  23
ATOM     23  C   UNL     1      -1.939  11.999  22.235  0.00  0.00    +0.000 A 
ATOM     24  C   UNL     1      -2.795  12.173  23.333  0.00  0.00    +0.000 A 
ATOM     25  C   UNL     1      -3.787  13.156  23.319  0.00  0.00    +0.000 A 
ATOM     26  C   UNL     1      -3.936  13.977  22.206  0.00  0.00    +0.000 A 
ATOM     27 CL   UNL     1      -5.164  15.180  22.189  0.00  0.00    +0.000 Cl
ATOM     28  C   UNL     1      -3.096  13.824  21.106  0.00  0.00    +0.000 A 
ATOM     29  C   UNL     1      -2.102  12.839  21.121  0.00  0.00    +0.000 A 
ENDBRANCH  20  23
ENDBRANCH  17  18
ENDBRANCH  16  17
ENDBRANCH  10  16
TORSDOF 7
ENDMDL
MODEL 4
REMARK VINA RESULT:      -8.1      0.755      1.098
REMARK  Name = 
REMARK  8 active torsions:
REMARK  status: ('A' for Active; 'I' for Inactive)
REMARK    1  A    between atoms: C_1  and  C_2
REMARK    2  A    between atoms: C_5  and  C_6
REMARK    3  A    between atoms: C_6  and  C_7
REMARK    4  A    between atoms: C_7  and  O_9
REMARK    5  A    between atoms: C_14  and  O_15
REMARK    6  A    between atoms: O_15  and  C_16
REMARK    7  A    between atoms: C_16  and  C_17
REMARK    8  A    between atoms: C_19  and  C_20
REMARK                            x       y       z     vdW  Elec       q    Type
REMARK                         _______ _______ _______ _____ _____    ______ ____
ROOT
ATOM      1  C   UNL     1       3.104   8.038  17.829  0.00  0.00    +0.000 C 
ATOM      2  C   UNL     1       3.445   6.600  17.556  0.00  0.00    +0.000 A 
ATOM      3  C   UNL     1       2.546   5.650  18.092  0.00  0.00    +0.000 A 
ATOM      4  C   UNL     1       2.777   4.259  18.012  0.00  0.00    +0.000 A 
ATOM      5  C   UNL     1       2.034   3.149  18.574  0.00  0.00    +0.000 A 
ATOM      6  C   UNL     1       2.618   1.942  18.241  0.00  0.00    +0.000 A 
ATOM      7  S   UNL     1       4.035   2.125  17.312  0.00  0.00    +0.000 S 
ATOM      8  C   UNL     1       3.922   3.842  17.334  0.00  0.00    +0.000 A 
ATOM      9  C   UNL     1       4.828   4.769  16.775  0.00  0.00    +0.000 A 
ATOM     10  C   UNL     1       4.585   6.149  16.877  0.00  0.00    +0.000 A 
ENDROOT
BRANCH   5  11
ATOM     11  C   UNL     1       0.835   3.279  19.480  0.00  0.00    +0.000 C 
BRANCH  11  12
ATOM     12  C   UNL     1       1.127   3.606  20.930  0.00  0.00    +0.000 C 
ATOM     13  O   UNL     1       1.504   4.713  21.293  0.00  0.00    +0.000 OA
BRANCH  12  14
ATOM     14  O   UNL     1       1.020   2.579  21.800  0.00  0.00    +0.000 OA
ATOM     15  H   UNL     1       0.707   1.743  21.403  0.00  0.00    +0.000 HD
ENDBRANCH  12  14
ENDBRANCH  11  12
ENDBRANCH   5  11
BRANCH  10  16
ATOM     16  O   UNL     1       5.593   6.918  16.341  0.00  0.00    +0.000 OA
BRANCH  16  17
ATOM     17  C   UNL     1       6.932   6.568  16.705  0.00  0.00    +0.000 C 
BRANCH  17  18
ATOM     18  C   UNL     1       7.614   7.578  17.565  0.00  0.00    +0.000 A 
ATOM     19  C   UNL     1       7.798   8.962  17.361  0.00  0.00    +0.000 A 
ATOM     20  C   UNL     1       8.598   9.367  18.405  0.00  0.00    +0.000 A 
ATOM     21  O   UNL     1       8.854   8.290  19.198  0.00  0.00    +0.000 OA
ATOM     22  N   UNL     1       8.237   7.170  18.680  0.00  0.00    +0.000 NA
BRANCH  20  23
ATOM     23  C   UNL     1       9.214  10.629  18.797  0.00  0.00    +0.000 A 
ATOM     24  C   UNL     1      10.029  10.682  19.938  0.00  0.00    +0.000 A 
ATOM     25  C   UNL     1      10.621  11.881  20.341  0.00  0.00    +0.000 A 
ATOM     26  C   UNL     1      10.402  13.043  19.608  0.00  0.00    +0.000 A 
ATOM     27 CL   UNL     1      11.124  14.520  20.113  0.00  0.00    +0.000 Cl
ATOM     28  C   UNL     1       9.599  13.014  18.472  0.00  0.00    +0.000 A 
ATOM     29  C   UNL     1       9.008  11.812  18.067  0.00  0.00    +0.000 A 
ENDBRANCH  20  23
ENDBRANCH  17  18
ENDBRANCH  16  17
ENDBRANCH  10  16
TORSDOF 7
ENDMDL
MODEL 5
REMARK VINA RESULT:      -8.1      6.401      9.069
REMARK  Name = 
REMARK  8 active torsions:
REMARK  status: ('A' for Active; 'I' for Inactive)
REMARK    1  A    between atoms: C_1  and  C_2
REMARK    2  A    between atoms: C_5  and  C_6
REMARK    3  A    between atoms: C_6  and  C_7
REMARK    4  A    between atoms: C_7  and  O_9
REMARK    5  A    between atoms: C_14  and  O_15
REMARK    6  A    between atoms: O_15  and  C_16
REMARK    7  A    between atoms: C_16  and  C_17
REMARK    8  A    between atoms: C_19  and  C_20
REMARK                            x       y       z     vdW  Elec       q    Type
REMARK                         _______ _______ _______ _____ _____    ______ ____
ROOT
ATOM      1  C   UNL     1       1.846   9.403  18.054  0.00  0.00    +0.000 C 
ATOM      2  C   UNL     1       2.314   8.080  18.594  0.00  0.00    +0.000 A 
ATOM      3  C   UNL     1       3.302   7.425  17.825  0.00  0.00    +0.000 A 
ATOM      4  C   UNL     1       3.772   6.131  18.140  0.00  0.00    +0.000 A 
ATOM      5  C   UNL     1       4.696   5.268  17.431  0.00  0.00    +0.000 A 
ATOM      6  C   UNL     1       4.879   4.077  18.106  0.00  0.00    +0.000 A 
ATOM      7  S   UNL     1       3.947   3.971  19.529  0.00  0.00    +0.000 S 
ATOM      8  C   UNL     1       3.252   5.525  19.283  0.00  0.00    +0.000 A 
ATOM      9  C   UNL     1       2.277   6.165  20.079  0.00  0.00    +0.000 A 
ATOM     10  C   UNL     1       1.813   7.448  19.739  0.00  0.00    +0.000 A 
ENDROOT
BRANCH   5  11
ATOM     11  C   UNL     1       5.313   5.576  16.090  0.00  0.00    +0.000 C 
BRANCH  11  12
ATOM     12  C   UNL     1       6.826   5.555  16.030  0.00  0.00    +0.000 C 
ATOM     13  O   UNL     1       7.454   4.608  15.573  0.00  0.00    +0.000 OA
BRANCH  12  14
ATOM     14  O   UNL     1       7.454   6.615  16.583  0.00  0.00    +0.000 OA
ATOM     15  H   UNL     1       8.142   7.017  16.018  0.00  0.00    +0.000 HD
ENDBRANCH  12  14
ENDBRANCH  11  12
ENDBRANCH   5  11
BRANCH  10  16
ATOM     16  O   UNL     1       0.817   7.902  20.575  0.00  0.00    +0.000 OA
BRANCH  16  17
ATOM     17  C   UNL     1       1.234   8.492  21.810  0.00  0.00    +0.000 C 
BRANCH  17  18
ATOM     18  C   UNL     1       0.604   9.814  22.097  0.00  0.00    +0.000 A 
ATOM     19  C   UNL     1      -0.581  10.117  22.800  0.00  0.00    +0.000 A 
ATOM     20  C   UNL     1      -0.742  11.474  22.647  0.00  0.00    +0.000 A 
ATOM     21  O   UNL     1       0.301  11.955  21.915  0.00  0.00    +0.000 OA
ATOM     22  N   UNL     1       1.148  10.921  21.573  0.00  0.00    +0.000 NA
BRANCH  20  23
ATOM     23  C   UNL     1      -1.754  12.442  23.057  0.00  0.00    +0.000 A 
ATOM     24  C   UNL     1      -1.444  13.810  23.074  0.00  0.00    +0.000 A 
ATOM     25  C   UNL     1      -2.392  14.754  23.475  0.00  0.00    +0.000 A 
ATOM     26  C   UNL     1      -3.660  14.341  23.865  0.00  0.00    +0.000 A 
ATOM     27 CL   UNL     1      -4.821  15.506  24.368  0.00  0.00    +0.000 Cl
ATOM     28  C   UNL     1      -3.991  12.989  23.855  0.00  0.00    +0.000 A 
ATOM     29  C   UNL     1      -3.042  12.043  23.452  0.00  0.00    +0.000 A 
ENDBRANCH  20  23
ENDBRANCH  17  18
ENDBRANCH  16  17
ENDBRANCH  10  16
TORSDOF 7
ENDMDL
MODEL 6
REMARK VINA RESULT:      -7.9      6.353      8.925
REMARK  Name = 
REMARK  8 active torsions:
REMARK  status: ('A' for Active; 'I' for Inactive)
REMARK    1  A    between atoms: C_1  and  C_2
REMARK    2  A    between atoms: C_5  and  C_6
REMARK    3  A    between atoms: C_6  and  C_7
REMARK    4  A    between atoms: C_7  and  O_9
REMARK    5  A    between atoms: C_14  and  O_15
REMARK    6  A    between atoms: O_15  and  C_16
REMARK    7  A    between atoms: C_16  and  C_17
REMARK    8  A    between atoms: C_19  and  C_20
REMARK                            x       y       z     vdW  Elec       q    Type
REMARK                         _______ _______ _______ _____ _____    ______ ____
ROOT
ATOM      1  C   UNL     1       2.290   9.162  17.865  0.00  0.00    +0.000 C 
ATOM      2  C   UNL     1       2.584   7.847  18.531  0.00  0.00    +0.000 A 
ATOM      3  C   UNL     1       3.550   7.042  17.887  0.00  0.00    +0.000 A 
ATOM      4  C   UNL     1       3.865   5.738  18.328  0.00  0.00    +0.000 A 
ATOM      5  C   UNL     1       4.743   4.738  17.754  0.00  0.00    +0.000 A 
ATOM      6  C   UNL     1       4.759   3.591  18.522  0.00  0.00    +0.000 A 
ATOM      7  S   UNL     1       3.728   3.686  19.876  0.00  0.00    +0.000 S 
ATOM      8  C   UNL     1       3.211   5.276  19.469  0.00  0.00    +0.000 A 
ATOM      9  C   UNL     1       2.254   6.065  20.142  0.00  0.00    +0.000 A 
ATOM     10  C   UNL     1       1.946   7.356  19.679  0.00  0.00    +0.000 A 
ENDROOT
BRANCH   5  11
ATOM     11  C   UNL     1       5.477   4.880  16.443  0.00  0.00    +0.000 C 
BRANCH  11  12
ATOM     12  C   UNL     1       6.958   5.179  16.537  0.00  0.00    +0.000 C 
ATOM     13  O   UNL     1       7.424   6.285  16.295  0.00  0.00    +0.000 OA
BRANCH  12  14
ATOM     14  O   UNL     1       7.755   4.129  16.832  0.00  0.00    +0.000 OA
ATOM     15  H   UNL     1       7.277   3.298  17.018  0.00  0.00    +0.000 HD
ENDBRANCH  12  14
ENDBRANCH  11  12
ENDBRANCH   5  11
BRANCH  10  16
ATOM     16  O   UNL     1       0.947   7.968  20.403  0.00  0.00    +0.000 OA
BRANCH  16  17
ATOM     17  C   UNL     1       1.323   8.546  21.657  0.00  0.00    +0.000 C 
BRANCH  17  18
ATOM     18  C   UNL     1       0.694   9.870  21.931  0.00  0.00    +0.000 A 
ATOM     19  C   UNL     1      -0.457  10.186  22.684  0.00  0.00    +0.000 A 
ATOM     20  C   UNL     1      -0.641  11.535  22.494  0.00  0.00    +0.000 A 
ATOM     21  O   UNL     1       0.358  12.001  21.693  0.00  0.00    +0.000 OA
ATOM     22  N   UNL     1       1.198  10.964  21.342  0.00  0.00    +0.000 NA
BRANCH  20  23
ATOM     23  C   UNL     1      -1.642  12.506  22.922  0.00  0.00    +0.000 A 
ATOM     24  C   UNL     1      -3.001  12.263  22.674  0.00  0.00    +0.000 A 
ATOM     25  C   UNL     1      -3.976  13.183  23.063  0.00  0.00    +0.000 A 
ATOM     26  C   UNL     1      -3.604  14.359  23.705  0.00  0.00    +0.000 A 
ATOM     27 CL   UNL     1      -4.807  15.494  24.174  0.00  0.00    +0.000 Cl
ATOM     28  C   UNL     1      -2.262  14.621  23.964  0.00  0.00    +0.000 A 
ATOM     29  C   UNL     1      -1.285  13.698  23.575  0.00  0.00    +0.000 A 
ENDBRANCH  20  23
ENDBRANCH  17  18
ENDBRANCH  16  17
ENDBRANCH  10  16
TORSDOF 7
ENDMDL
MODEL 7
REMARK VINA RESULT:      -7.8      6.394      9.115
REMARK  Name = 
REMARK  8 active torsions:
REMARK  status: ('A' for Active; 'I' for Inactive)
REMARK    1  A    between atoms: C_1  and  C_2
REMARK    2  A    between atoms: C_5  and  C_6
REMARK    3  A    between atoms: C_6  and  C_7
REMARK    4  A    between atoms: C_7  and  O_9
REMARK    5  A    between atoms: C_14  and  O_15
REMARK    6  A    between atoms: O_15  and  C_16
REMARK    7  A    between atoms: C_16  and  C_17
REMARK    8  A    between atoms: C_19  and  C_20
REMARK                            x       y       z     vdW  Elec       q    Type
REMARK                         _______ _______ _______ _____ _____    ______ ____
ROOT
ATOM      1  C   UNL     1       2.029   9.373  17.826  0.00  0.00    +0.000 C 
ATOM      2  C   UNL     1       2.488   8.062  18.400  0.00  0.00    +0.000 A 
ATOM      3  C   UNL     1       3.431   7.355  17.621  0.00  0.00    +0.000 A 
ATOM      4  C   UNL     1       3.885   6.064  17.969  0.00  0.00    +0.000 A 
ATOM      5  C   UNL     1       4.762   5.152  17.261  0.00  0.00    +0.000 A 
ATOM      6  C   UNL     1       4.945   3.985  17.975  0.00  0.00    +0.000 A 
ATOM      7  S   UNL     1       4.067   3.956  19.436  0.00  0.00    +0.000 S 
ATOM      8  C   UNL     1       3.397   5.515  19.155  0.00  0.00    +0.000 A 
ATOM      9  C   UNL     1       2.467   6.207  19.961  0.00  0.00    +0.000 A 
ATOM     10  C   UNL     1       2.019   7.487  19.588  0.00  0.00    +0.000 A 
ENDROOT
BRANCH   5  11
ATOM     11  C   UNL     1       5.333   5.394  15.886  0.00  0.00    +0.000 C 
BRANCH  11  12
ATOM     12  C   UNL     1       6.839   5.524  15.802  0.00  0.00    +0.000 C 
ATOM     13  O   UNL     1       7.479   5.159  14.824  0.00  0.00    +0.000 OA
BRANCH  12  14
ATOM     14  O   UNL     1       7.453   6.000  16.907  0.00  0.00    +0.000 OA
ATOM     15  H   UNL     1       8.171   6.637  16.727  0.00  0.00    +0.000 HD
ENDBRANCH  12  14
ENDBRANCH  11  12
ENDBRANCH   5  11
BRANCH  10  16
ATOM     16  O   UNL     1       1.066   7.996  20.442  0.00  0.00    +0.000 OA
BRANCH  16  17
ATOM     17  C   UNL     1       1.500   9.004  21.361  0.00  0.00    +0.000 C 
BRANCH  17  18
ATOM     18  C   UNL     1       0.387   9.768  21.996  0.00  0.00    +0.000 A 
ATOM     19  C   UNL     1       0.033  11.127  21.865  0.00  0.00    +0.000 A 
ATOM     20  C   UNL     1      -0.988  11.313  22.768  0.00  0.00    +0.000 A 
ATOM     21  O   UNL     1      -1.243  10.125  23.384  0.00  0.00    +0.000 OA
ATOM     22  N   UNL     1      -0.390   9.154  22.901  0.00  0.00    +0.000 NA
BRANCH  20  23
ATOM     23  C   UNL     1      -1.785  12.457  23.198  0.00  0.00    +0.000 A 
ATOM     24  C   UNL     1      -3.134  12.277  23.539  0.00  0.00    +0.000 A 
ATOM     25  C   UNL     1      -3.921  13.359  23.940  0.00  0.00    +0.000 A 
ATOM     26  C   UNL     1      -3.368  14.633  24.004  0.00  0.00    +0.000 A 
ATOM     27 CL   UNL     1      -4.343  15.964  24.490  0.00  0.00    +0.000 Cl
ATOM     28  C   UNL     1      -2.031  14.835  23.672  0.00  0.00    +0.000 A 
ATOM     29  C   UNL     1      -1.243  13.750  23.272  0.00  0.00    +0.000 A 
ENDBRANCH  20  23
ENDBRANCH  17  18
ENDBRANCH  16  17
ENDBRANCH  10  16
TORSDOF 7
ENDMDL
MODEL 8
REMARK VINA RESULT:      -7.6      6.218      8.877
REMARK  Name = 
REMARK  8 active torsions:
REMARK  status: ('A' for Active; 'I' for Inactive)
REMARK    1  A    between atoms: C_1  and  C_2
REMARK    2  A    between atoms: C_5  and  C_6
REMARK    3  A    between atoms: C_6  and  C_7
REMARK    4  A    between atoms: C_7  and  O_9
REMARK    5  A    between atoms: C_14  and  O_15
REMARK    6  A    between atoms: O_15  and  C_16
REMARK    7  A    between atoms: C_16  and  C_17
REMARK    8  A    between atoms: C_19  and  C_20
REMARK                            x       y       z     vdW  Elec       q    Type
REMARK                         _______ _______ _______ _____ _____    ______ ____
ROOT
ATOM      1  C   UNL     1       2.526   9.302  17.443  0.00  0.00    +0.000 C 
ATOM      2  C   UNL     1       2.739   8.021  18.200  0.00  0.00    +0.000 A 
ATOM      3  C   UNL     1       3.641   7.109  17.610  0.00  0.00    +0.000 A 
ATOM      4  C   UNL     1       3.874   5.821  18.141  0.00  0.00    +0.000 A 
ATOM      5  C   UNL     1       4.676   4.726  17.635  0.00  0.00    +0.000 A 
ATOM      6  C   UNL     1       4.624   3.639  18.484  0.00  0.00    +0.000 A 
ATOM      7  S   UNL     1       3.618   3.900  19.835  0.00  0.00    +0.000 S 
ATOM      8  C   UNL     1       3.204   5.488  19.318  0.00  0.00    +0.000 A 
ATOM      9  C   UNL     1       2.310   6.386  19.938  0.00  0.00    +0.000 A 
ATOM     10  C   UNL     1       2.083   7.659  19.385  0.00  0.00    +0.000 A 
ENDROOT
BRANCH   5  11
ATOM     11  C   UNL     1       5.402   4.723  16.312  0.00  0.00    +0.000 C 
BRANCH  11  12
ATOM     12  C   UNL     1       6.797   5.313  16.316  0.00  0.00    +0.000 C 
ATOM     13  O   UNL     1       7.006   6.513  16.194  0.00  0.00    +0.000 OA
BRANCH  12  14
ATOM     14  O   UNL     1       7.813   4.426  16.386  0.00  0.00    +0.000 OA
ATOM     15  H   UNL     1       7.809   3.869  17.189  0.00  0.00    +0.000 HD
ENDBRANCH  12  14
ENDBRANCH  11  12
ENDBRANCH   5  11
BRANCH  10  16
ATOM     16  O   UNL     1       1.136   8.387  20.070  0.00  0.00    +0.000 OA
BRANCH  16  17
ATOM     17  C   UNL     1       1.245   8.402  21.496  0.00  0.00    +0.000 C 
BRANCH  17  18
ATOM     18  C   UNL     1       0.375   9.414  22.163  0.00  0.00    +0.000 A 
ATOM     19  C   UNL     1      -0.392  10.457  21.602  0.00  0.00    +0.000 A 
ATOM     20  C   UNL     1      -0.887  11.149  22.683  0.00  0.00    +0.000 A 
ATOM     21  O   UNL     1      -0.459  10.537  23.823  0.00  0.00    +0.000 OA
ATOM     22  N   UNL     1       0.326   9.449  23.503  0.00  0.00    +0.000 NA
BRANCH  20  23
ATOM     23  C   UNL     1      -1.702  12.346  22.850  0.00  0.00    +0.000 A 
ATOM     24  C   UNL     1      -1.100  13.612  22.798  0.00  0.00    +0.000 A 
ATOM     25  C   UNL     1      -1.857  14.774  22.969  0.00  0.00    +0.000 A 
ATOM     26  C   UNL     1      -3.226  14.682  23.195  0.00  0.00    +0.000 A 
ATOM     27 CL   UNL     1      -4.153  16.114  23.414  0.00  0.00    +0.000 Cl
ATOM     28  C   UNL     1      -3.846  13.437  23.249  0.00  0.00    +0.000 A 
ATOM     29  C   UNL     1      -3.087  12.274  23.076  0.00  0.00    +0.000 A 
ENDBRANCH  20  23
ENDBRANCH  17  18
ENDBRANCH  16  17
ENDBRANCH  10  16
TORSDOF 7
ENDMDL
MODEL 9
REMARK VINA RESULT:      -7.5      7.420      9.745
REMARK  Name = 
REMARK  8 active torsions:
REMARK  status: ('A' for Active; 'I' for Inactive)
REMARK    1  A    between atoms: C_1  and  C_2
REMARK    2  A    between atoms: C_5  and  C_6
REMARK    3  A    between atoms: C_6  and  C_7
REMARK    4  A    between atoms: C_7  and  O_9
REMARK    5  A    between atoms: C_14  and  O_15
REMARK    6  A    between atoms: O_15  and  C_16
REMARK    7  A    between atoms: C_16  and  C_17
REMARK    8  A    between atoms: C_19  and  C_20
REMARK                            x       y       z     vdW  Elec       q    Type
REMARK                         _______ _______ _______ _____ _____    ______ ____
ROOT
ATOM      1  C   UNL     1      -0.522   9.584  23.241  0.00  0.00    +0.000 C 
ATOM      2  C   UNL     1      -0.698  10.938  22.613  0.00  0.00    +0.000 A 
ATOM      3  C   UNL     1      -1.730  11.732  23.162  0.00  0.00    +0.000 A 
ATOM      4  C   UNL     1      -2.090  12.986  22.620  0.00  0.00    +0.000 A 
ATOM      5  C   UNL     1      -3.165  13.890  22.977  0.00  0.00    +0.000 A 
ATOM      6  C   UNL     1      -3.147  15.019  22.181  0.00  0.00    +0.000 A 
ATOM      7  S   UNL     1      -1.905  14.989  21.015  0.00  0.00    +0.000 S 
ATOM      8  C   UNL     1      -1.350  13.445  21.531  0.00  0.00    +0.000 A 
ATOM      9  C   UNL     1      -0.303  12.679  20.974  0.00  0.00    +0.000 A 
ATOM     10  C   UNL     1       0.030  11.428  21.521  0.00  0.00    +0.000 A 
ENDROOT
BRANCH   5  11
ATOM     11  C   UNL     1      -4.225  13.610  24.013  0.00  0.00    +0.000 C 
BRANCH  11  12
ATOM     12  C   UNL     1      -5.326  12.657  23.599  0.00  0.00    +0.000 C 
ATOM     13  O   UNL     1      -6.071  12.119  24.409  0.00  0.00    +0.000 OA
BRANCH  12  14
ATOM     14  O   UNL     1      -5.395  12.370  22.282  0.00  0.00    +0.000 OA
ATOM     15  H   UNL     1      -4.535  12.165  21.867  0.00  0.00    +0.000 HD
ENDBRANCH  12  14
ENDBRANCH  11  12
ENDBRANCH   5  11
BRANCH  10  16
ATOM     16  O   UNL     1       1.025  10.780  20.824  0.00  0.00    +0.000 OA
BRANCH  16  17
ATOM     17  C   UNL     1       0.616   9.993  19.701  0.00  0.00    +0.000 C 
BRANCH  17  18
ATOM     18  C   UNL     1       1.529   8.856  19.389  0.00  0.00    +0.000 A 
ATOM     19  C   UNL     1       2.197   8.535  18.188  0.00  0.00    +0.000 A 
ATOM     20  C   UNL     1       2.795   7.321  18.433  0.00  0.00    +0.000 A 
ATOM     21  O   UNL     1       2.520   6.952  19.715  0.00  0.00    +0.000 OA
ATOM     22  N   UNL     1       1.733   7.911  20.319  0.00  0.00    +0.000 NA
BRANCH  20  23
ATOM     23  C   UNL     1       3.591   6.390  17.641  0.00  0.00    +0.000 A 
ATOM     24  C   UNL     1       4.573   6.880  16.767  0.00  0.00    +0.000 A 
ATOM     25  C   UNL     1       5.339   6.009  15.989  0.00  0.00    +0.000 A 
ATOM     26  C   UNL     1       5.130   4.637  16.074  0.00  0.00    +0.000 A 
ATOM     27 CL   UNL     1       6.069   3.568  15.108  0.00  0.00    +0.000 Cl
ATOM     28  C   UNL     1       4.163   4.127  16.936  0.00  0.00    +0.000 A 
ATOM     29  C   UNL     1       3.397   5.001  17.717  0.00  0.00    +0.000 A 
ENDBRANCH  20  23
ENDBRANCH  17  18
ENDBRANCH  16  17
ENDBRANCH  10  16
TORSDOF 7
ENDMDL
