MODEL 1
REMARK VINA RESULT:      -6.8      0.000      0.000
REMARK  Name = 
REMARK  11 active torsions:
REMARK  status: ('A' for Active; 'I' for Inactive)
REMARK    1  A    between atoms: C_1  and  C_2
REMARK    2  A    between atoms: C_2  and  N_3
REMARK    3  A    between atoms: N_3  and  C_4
REMARK    4  A    between atoms: C_4  and  C_5
REMARK    5  A    between atoms: C_6  and  C_8
REMARK    6  A    between atoms: C_8  and  N_9
REMARK    7  A    between atoms: C_10  and  C_12
REMARK    8  A    between atoms: C_12  and  C_13
REMARK    9  A    between atoms: C_13  and  C_14
REMARK   10  A    between atoms: C_15  and  C_16
REMARK   11  A    between atoms: C_19  and  C_20
REMARK                            x       y       z     vdW  Elec       q    Type
REMARK                         _______ _______ _______ _____ _____    ______ ____
ROOT
ATOM      1  C   UNL     1       4.019   5.581  18.427  0.00  0.00    +0.000 C 
ATOM      2  C   UNL     1       4.254   5.213  16.947  0.00  0.00    +0.000 C 
ATOM      3  C   UNL     1       5.521   5.923  16.416  0.00  0.00    +0.000 C 
ATOM      4  C   UNL     1       6.763   5.404  17.122  0.00  0.00    +0.000 C 
ATOM      5  C   UNL     1       6.647   5.512  18.636  0.00  0.00    +0.000 C 
ATOM      6  C   UNL     1       5.292   5.097  19.190  0.00  0.00    +0.000 C 
ENDROOT
BRANCH   1   7
ATOM      7  N   UNL     1       3.771   7.040  18.477  0.00  0.00    +0.000 N 
ATOM      8  C   UNL     1       2.600   7.563  17.910  0.00  0.00    +0.000 C 
ATOM      9  O   UNL     1       1.739   6.861  17.380  0.00  0.00    +0.000 OA
ATOM     10  H   UNL     1       4.015   7.444  19.373  0.00  0.00    +0.000 HD
BRANCH   8  11
ATOM     11  C   UNL     1       2.410   9.052  18.028  0.00  0.00    +0.000 C 
BRANCH  11  12
ATOM     12  C   UNL     1       0.997   9.385  18.475  0.00  0.00    +0.000 C 
BRANCH  12  13
ATOM     13  C   UNL     1       0.903  10.224  19.681  0.00  0.00    +0.000 A 
ATOM     14  C   UNL     1       0.645   9.819  21.017  0.00  0.00    +0.000 A 
ATOM     15  C   UNL     1       0.350   8.452  21.525  0.00  0.00    +0.000 C 
ATOM     16  N   UNL     1       0.733  10.853  21.862  0.00  0.00    +0.000 NA
ATOM     17  O   UNL     1       1.070  11.948  21.085  0.00  0.00    +0.000 OA
ATOM     18  C   UNL     1       1.171  11.567  19.784  0.00  0.00    +0.000 A 
ATOM     19  C   UNL     1       1.572  12.597  18.806  0.00  0.00    +0.000 C 
ENDBRANCH  12  13
ENDBRANCH  11  12
ENDBRANCH   8  11
ENDBRANCH   1   7
BRANCH   1  21
ATOM     20  N   UNL     1       2.113   4.021  19.308  0.00  0.00    +0.000 N 
ATOM     21  C   UNL     1       2.890   5.152  19.440  0.00  0.00    +0.000 C 
ATOM     22  O   UNL     1       2.732   5.893  20.434  0.00  0.00    +0.000 OA
BRANCH  20  24
ATOM     23  C   UNL     1       1.356   2.776  21.364  0.00  0.00    +0.000 C 
ATOM     24  C   UNL     1       1.057   3.851  20.320  0.00  0.00    +0.000 C 
ENDBRANCH  20  24
BRANCH  20  25
ATOM     25  C   UNL     1       2.080   3.279  18.059  0.00  0.00    +0.000 C 
ATOM     26  C   UNL     1       2.891   2.005  17.970  0.00  0.00    +0.000 C 
ENDBRANCH  20  25
ENDBRANCH   1  21
TORSDOF 7
ENDMDL
MODEL 2
REMARK VINA RESULT:      -6.7      0.445      1.632
REMARK  Name = 
REMARK  11 active torsions:
REMARK  status: ('A' for Active; 'I' for Inactive)
REMARK    1  A    between atoms: C_1  and  C_2
REMARK    2  A    between atoms: C_2  and  N_3
REMARK    3  A    between atoms: N_3  and  C_4
REMARK    4  A    between atoms: C_4  and  C_5
REMARK    5  A    between atoms: C_6  and  C_8
REMARK    6  A    between atoms: C_8  and  N_9
REMARK    7  A    between atoms: C_10  and  C_12
REMARK    8  A    between atoms: C_12  and  C_13
REMARK    9  A    between atoms: C_13  and  C_14
REMARK   10  A    between atoms: C_15  and  C_16
REMARK   11  A    between atoms: C_19  and  C_20
REMARK                            x       y       z     vdW  Elec       q    Type
REMARK                         _______ _______ _______ _____ _____    ______ ____
ROOT
ATOM      1  C   UNL     1       4.061   5.396  18.395  0.00  0.00    +0.000 C 
ATOM      2  C   UNL     1       4.217   4.984  16.916  0.00  0.00    +0.000 C 
ATOM      3  C   UNL     1       5.476   5.644  16.308  0.00  0.00    +0.000 C 
ATOM      4  C   UNL     1       6.736   5.108  16.971  0.00  0.00    +0.000 C 
ATOM      5  C   UNL     1       6.692   5.258  18.485  0.00  0.00    +0.000 C 
ATOM      6  C   UNL     1       5.354   4.896  19.112  0.00  0.00    +0.000 C 
ENDROOT
BRANCH   1   7
ATOM      7  N   UNL     1       3.855   6.862  18.417  0.00  0.00    +0.000 N 
ATOM      8  C   UNL     1       2.666   7.403  17.904  0.00  0.00    +0.000 C 
ATOM      9  O   UNL     1       1.757   6.711  17.447  0.00  0.00    +0.000 OA
ATOM     10  H   UNL     1       4.163   7.283  19.284  0.00  0.00    +0.000 HD
BRANCH   8  11
ATOM     11  C   UNL     1       2.524   8.899  17.991  0.00  0.00    +0.000 C 
BRANCH  11  12
ATOM     12  C   UNL     1       1.129   9.285  18.449  0.00  0.00    +0.000 C 
BRANCH  12  13
ATOM     13  C   UNL     1       1.075  10.087  19.683  0.00  0.00    +0.000 A 
ATOM     14  C   UNL     1       1.157  11.497  19.821  0.00  0.00    +0.000 A 
ATOM     15  C   UNL     1       1.375  12.516  18.758  0.00  0.00    +0.000 C 
ATOM     16  N   UNL     1       0.969  11.871  21.091  0.00  0.00    +0.000 NA
ATOM     17  O   UNL     1       0.742  10.704  21.800  0.00  0.00    +0.000 OA
ATOM     18  C   UNL     1       0.805   9.642  20.954  0.00  0.00    +0.000 A 
ATOM     19  C   UNL     1       0.540   8.306  21.524  0.00  0.00    +0.000 C 
ENDBRANCH  12  13
ENDBRANCH  11  12
ENDBRANCH   8  11
ENDBRANCH   1   7
BRANCH   1  21
ATOM     20  N   UNL     1       2.180   3.896  19.421  0.00  0.00    +0.000 N 
ATOM     21  C   UNL     1       2.968   5.026  19.469  0.00  0.00    +0.000 C 
ATOM     22  O   UNL     1       2.854   5.814  20.431  0.00  0.00    +0.000 OA
BRANCH  20  24
ATOM     23  C   UNL     1       1.487   2.746  21.554  0.00  0.00    +0.000 C 
ATOM     24  C   UNL     1       1.162   3.783  20.479  0.00  0.00    +0.000 C 
ENDBRANCH  20  24
BRANCH  20  25
ATOM     25  C   UNL     1       2.094   3.096  18.211  0.00  0.00    +0.000 C 
ATOM     26  C   UNL     1       2.948   1.850  18.124  0.00  0.00    +0.000 C 
ENDBRANCH  20  25
ENDBRANCH   1  21
TORSDOF 7
ENDMDL
MODEL 3
REMARK VINA RESULT:      -6.7      1.230      1.405
REMARK  Name = 
REMARK  11 active torsions:
REMARK  status: ('A' for Active; 'I' for Inactive)
REMARK    1  A    between atoms: C_1  and  C_2
REMARK    2  A    between atoms: C_2  and  N_3
REMARK    3  A    between atoms: N_3  and  C_4
REMARK    4  A    between atoms: C_4  and  C_5
REMARK    5  A    between atoms: C_6  and  C_8
REMARK    6  A    between atoms: C_8  and  N_9
REMARK    7  A    between atoms: C_10  and  C_12
REMARK    8  A    between atoms: C_12  and  C_13
REMARK    9  A    between atoms: C_13  and  C_14
REMARK   10  A    between atoms: C_15  and  C_16
REMARK   11  A    between atoms: C_19  and  C_20
REMARK                            x       y       z     vdW  Elec       q    Type
REMARK                         _______ _______ _______ _____ _____    ______ ____
ROOT
ATOM      1  C   UNL     1       4.857   4.801  17.851  0.00  0.00    +0.000 C 
ATOM      2  C   UNL     1       4.525   4.301  16.429  0.00  0.00    +0.000 C 
ATOM      3  C   UNL     1       5.457   4.974  15.395  0.00  0.00    +0.000 C 
ATOM      4  C   UNL     1       6.898   4.538  15.608  0.00  0.00    +0.000 C 
ATOM      5  C   UNL     1       7.365   4.784  17.036  0.00  0.00    +0.000 C 
ATOM      6  C   UNL     1       6.346   4.406  18.101  0.00  0.00    +0.000 C 
ENDROOT
BRANCH   1   7
ATOM      7  N   UNL     1       4.579   6.256  17.874  0.00  0.00    +0.000 N 
ATOM      8  C   UNL     1       3.256   6.710  17.776  0.00  0.00    +0.000 C 
ATOM      9  O   UNL     1       2.290   5.951  17.691  0.00  0.00    +0.000 OA
ATOM     10  H   UNL     1       5.136   6.745  18.564  0.00  0.00    +0.000 HD
BRANCH   8  11
ATOM     11  C   UNL     1       3.057   8.201  17.837  0.00  0.00    +0.000 C 
BRANCH  11  12
ATOM     12  C   UNL     1       1.589   8.545  18.017  0.00  0.00    +0.000 C 
BRANCH  12  13
ATOM     13  C   UNL     1       1.256   9.231  19.277  0.00  0.00    +0.000 A 
ATOM     14  C   UNL     1       1.194   8.687  20.586  0.00  0.00    +0.000 A 
ATOM     15  C   UNL     1       1.396   7.273  21.006  0.00  0.00    +0.000 C 
ATOM     16  N   UNL     1       0.955   9.638  21.495  0.00  0.00    +0.000 NA
ATOM     17  O   UNL     1       0.875  10.825  20.788  0.00  0.00    +0.000 OA
ATOM     18  C   UNL     1       1.057  10.577  19.464  0.00  0.00    +0.000 A 
ATOM     19  C   UNL     1       1.053  11.737  18.551  0.00  0.00    +0.000 C 
ENDBRANCH  12  13
ENDBRANCH  11  12
ENDBRANCH   8  11
ENDBRANCH   1   7
BRANCH   1  21
ATOM     20  N   UNL     1       3.662   3.237  19.573  0.00  0.00    +0.000 N 
ATOM     21  C   UNL     1       4.222   4.455  19.251  0.00  0.00    +0.000 C 
ATOM     22  O   UNL     1       4.271   5.355  20.115  0.00  0.00    +0.000 OA
BRANCH  20  24
ATOM     23  C   UNL     1       1.585   3.590  20.956  0.00  0.00    +0.000 C 
ATOM     24  C   UNL     1       3.048   3.150  20.908  0.00  0.00    +0.000 C 
ENDBRANCH  20  24
BRANCH  20  25
ATOM     25  C   UNL     1       3.352   2.261  18.541  0.00  0.00    +0.000 C 
ATOM     26  C   UNL     1       1.982   2.316  17.902  0.00  0.00    +0.000 C 
ENDBRANCH  20  25
ENDBRANCH   1  21
TORSDOF 7
ENDMDL
MODEL 4
REMARK VINA RESULT:      -6.5      1.609      3.984
REMARK  Name = 
REMARK  11 active torsions:
REMARK  status: ('A' for Active; 'I' for Inactive)
REMARK    1  A    between atoms: C_1  and  C_2
REMARK    2  A    between atoms: C_2  and  N_3
REMARK    3  A    between atoms: N_3  and  C_4
REMARK    4  A    between atoms: C_4  and  C_5
REMARK    5  A    between atoms: C_6  and  C_8
REMARK    6  A    between atoms: C_8  and  N_9
REMARK    7  A    between atoms: C_10  and  C_12
REMARK    8  A    between atoms: C_12  and  C_13
REMARK    9  A    between atoms: C_13  and  C_14
REMARK   10  A    between atoms: C_15  and  C_16
REMARK   11  A    between atoms: C_19  and  C_20
REMARK                            x       y       z     vdW  Elec       q    Type
REMARK                         _______ _______ _______ _____ _____    ______ ____
ROOT
ATOM      1  C   UNL     1       2.950   4.328  18.627  0.00  0.00    +0.000 C 
ATOM      2  C   UNL     1       2.932   4.550  20.154  0.00  0.00    +0.000 C 
ATOM      3  C   UNL     1       1.479   4.512  20.682  0.00  0.00    +0.000 C 
ATOM      4  C   UNL     1       0.882   3.124  20.508  0.00  0.00    +0.000 C 
ATOM      5  C   UNL     1       0.974   2.639  19.069  0.00  0.00    +0.000 C 
ATOM      6  C   UNL     1       2.309   2.924  18.396  0.00  0.00    +0.000 C 
ENDROOT
BRANCH   1   7
ATOM      7  N   UNL     1       2.218   5.462  18.016  0.00  0.00    +0.000 N 
ATOM      8  C   UNL     1       2.552   6.776  18.376  0.00  0.00    +0.000 C 
ATOM      9  O   UNL     1       3.451   7.047  19.172  0.00  0.00    +0.000 OA
ATOM     10  H   UNL     1       2.059   5.331  17.025  0.00  0.00    +0.000 HD
BRANCH   8  11
ATOM     11  C   UNL     1       1.782   7.871  17.688  0.00  0.00    +0.000 C 
BRANCH  11  12
ATOM     12  C   UNL     1       1.917   9.184  18.438  0.00  0.00    +0.000 C 
BRANCH  12  13
ATOM     13  C   UNL     1       0.799   9.508  19.340  0.00  0.00    +0.000 A 
ATOM     14  C   UNL     1       0.673   9.221  20.724  0.00  0.00    +0.000 A 
ATOM     15  C   UNL     1       1.614   8.471  21.599  0.00  0.00    +0.000 C 
ATOM     16  N   UNL     1      -0.442   9.760  21.231  0.00  0.00    +0.000 NA
ATOM     17  O   UNL     1      -1.052  10.425  20.181  0.00  0.00    +0.000 OA
ATOM     18  C   UNL     1      -0.306  10.272  19.055  0.00  0.00    +0.000 A 
ATOM     19  C   UNL     1      -0.776  10.956  17.834  0.00  0.00    +0.000 C 
ENDBRANCH  12  13
ENDBRANCH  11  12
ENDBRANCH   8  11
ENDBRANCH   1   7
BRANCH   1  21
ATOM     20  N   UNL     1       5.465   4.477  17.924  0.00  0.00    +0.000 N 
ATOM     21  C   UNL     1       4.140   4.280  17.595  0.00  0.00    +0.000 C 
ATOM     22  O   UNL     1       3.834   4.016  16.414  0.00  0.00    +0.000 OA
BRANCH  20  24
ATOM     23  C   UNL     1       6.411   5.764  15.975  0.00  0.00    +0.000 C 
ATOM     24  C   UNL     1       6.409   4.474  16.795  0.00  0.00    +0.000 C 
ENDBRANCH  20  24
BRANCH  20  25
ATOM     25  C   UNL     1       5.839   5.034  19.213  0.00  0.00    +0.000 C 
ATOM     26  C   UNL     1       7.244   5.574  19.370  0.00  0.00    +0.000 C 
ENDBRANCH  20  25
ENDBRANCH   1  21
TORSDOF 7
ENDMDL
MODEL 5
REMARK VINA RESULT:      -6.5      1.221      1.354
REMARK  Name = 
REMARK  11 active torsions:
REMARK  status: ('A' for Active; 'I' for Inactive)
REMARK    1  A    between atoms: C_1  and  C_2
REMARK    2  A    between atoms: C_2  and  N_3
REMARK    3  A    between atoms: N_3  and  C_4
REMARK    4  A    between atoms: C_4  and  C_5
REMARK    5  A    between atoms: C_6  and  C_8
REMARK    6  A    between atoms: C_8  and  N_9
REMARK    7  A    between atoms: C_10  and  C_12
REMARK    8  A    between atoms: C_12  and  C_13
REMARK    9  A    between atoms: C_13  and  C_14
REMARK   10  A    between atoms: C_15  and  C_16
REMARK   11  A    between atoms: C_19  and  C_20
REMARK                            x       y       z     vdW  Elec       q    Type
REMARK                         _______ _______ _______ _____ _____    ______ ____
ROOT
ATOM      1  C   UNL     1       4.583   4.780  18.090  0.00  0.00    +0.000 C 
ATOM      2  C   UNL     1       4.419   4.262  16.645  0.00  0.00    +0.000 C 
ATOM      3  C   UNL     1       5.279   5.105  15.675  0.00  0.00    +0.000 C 
ATOM      4  C   UNL     1       6.760   4.914  15.966  0.00  0.00    +0.000 C 
ATOM      5  C   UNL     1       7.098   5.204  17.420  0.00  0.00    +0.000 C 
ATOM      6  C   UNL     1       6.102   4.636  18.421  0.00  0.00    +0.000 C 
ENDROOT
BRANCH   1   7
ATOM      7  N   UNL     1       4.062   6.166  18.115  0.00  0.00    +0.000 N 
ATOM      8  C   UNL     1       2.686   6.391  17.954  0.00  0.00    +0.000 C 
ATOM      9  O   UNL     1       1.869   5.482  17.811  0.00  0.00    +0.000 OA
ATOM     10  H   UNL     1       4.493   6.729  18.837  0.00  0.00    +0.000 HD
BRANCH   8  11
ATOM     11  C   UNL     1       2.235   7.825  18.021  0.00  0.00    +0.000 C 
BRANCH  11  12
ATOM     12  C   UNL     1       2.038   8.266  19.461  0.00  0.00    +0.000 C 
BRANCH  12  13
ATOM     13  C   UNL     1       1.118   9.400  19.650  0.00  0.00    +0.000 A 
ATOM     14  C   UNL     1       0.053   9.524  20.579  0.00  0.00    +0.000 A 
ATOM     15  C   UNL     1      -0.438   8.516  21.558  0.00  0.00    +0.000 C 
ATOM     16  N   UNL     1      -0.500  10.741  20.523  0.00  0.00    +0.000 NA
ATOM     17  O   UNL     1       0.215  11.436  19.563  0.00  0.00    +0.000 OA
ATOM     18  C   UNL     1       1.180  10.632  19.046  0.00  0.00    +0.000 A 
ATOM     19  C   UNL     1       2.081  11.219  18.034  0.00  0.00    +0.000 C 
ENDBRANCH  12  13
ENDBRANCH  11  12
ENDBRANCH   8  11
ENDBRANCH   1   7
BRANCH   1  21
ATOM     20  N   UNL     1       3.362   3.065  19.641  0.00  0.00    +0.000 N 
ATOM     21  C   UNL     1       3.941   4.301  19.447  0.00  0.00    +0.000 C 
ATOM     22  O   UNL     1       4.002   5.107  20.399  0.00  0.00    +0.000 OA
BRANCH  20  24
ATOM     23  C   UNL     1       1.216   2.832  20.943  0.00  0.00    +0.000 C 
ATOM     24  C   UNL     1       2.744   2.851  20.961  0.00  0.00    +0.000 C 
ENDBRANCH  20  24
BRANCH  20  25
ATOM     25  C   UNL     1       3.039   2.206  18.515  0.00  0.00    +0.000 C 
ATOM     26  C   UNL     1       3.964   1.046  18.220  0.00  0.00    +0.000 C 
ENDBRANCH  20  25
ENDBRANCH   1  21
TORSDOF 7
ENDMDL
MODEL 6
REMARK VINA RESULT:      -6.5      1.660      4.214
REMARK  Name = 
REMARK  11 active torsions:
REMARK  status: ('A' for Active; 'I' for Inactive)
REMARK    1  A    between atoms: C_1  and  C_2
REMARK    2  A    between atoms: C_2  and  N_3
REMARK    3  A    between atoms: N_3  and  C_4
REMARK    4  A    between atoms: C_4  and  C_5
REMARK    5  A    between atoms: C_6  and  C_8
REMARK    6  A    between atoms: C_8  and  N_9
REMARK    7  A    between atoms: C_10  and  C_12
REMARK    8  A    between atoms: C_12  and  C_13
REMARK    9  A    between atoms: C_13  and  C_14
REMARK   10  A    between atoms: C_15  and  C_16
REMARK   11  A    between atoms: C_19  and  C_20
REMARK                            x       y       z     vdW  Elec       q    Type
REMARK                         _______ _______ _______ _____ _____    ______ ____
ROOT
ATOM      1  C   UNL     1       2.997   4.291  18.663  0.00  0.00    +0.000 C 
ATOM      2  C   UNL     1       2.954   4.510  20.190  0.00  0.00    +0.000 C 
ATOM      3  C   UNL     1       1.494   4.451  20.696  0.00  0.00    +0.000 C 
ATOM      4  C   UNL     1       0.918   3.056  20.511  0.00  0.00    +0.000 C 
ATOM      5  C   UNL     1       1.038   2.574  19.073  0.00  0.00    +0.000 C 
ATOM      6  C   UNL     1       2.380   2.878  18.421  0.00  0.00    +0.000 C 
ENDROOT
BRANCH   1   7
ATOM      7  N   UNL     1       2.261   5.415  18.043  0.00  0.00    +0.000 N 
ATOM      8  C   UNL     1       2.527   6.730  18.456  0.00  0.00    +0.000 C 
ATOM      9  O   UNL     1       3.370   7.008  19.308  0.00  0.00    +0.000 OA
ATOM     10  H   UNL     1       2.160   5.307  17.041  0.00  0.00    +0.000 HD
BRANCH   8  11
ATOM     11  C   UNL     1       1.756   7.816  17.755  0.00  0.00    +0.000 C 
BRANCH  11  12
ATOM     12  C   UNL     1       1.950   9.153  18.450  0.00  0.00    +0.000 C 
BRANCH  12  13
ATOM     13  C   UNL     1       0.838   9.574  19.319  0.00  0.00    +0.000 A 
ATOM     14  C   UNL     1      -0.396  10.166  18.944  0.00  0.00    +0.000 A 
ATOM     15  C   UNL     1      -0.853  10.561  17.584  0.00  0.00    +0.000 C 
ATOM     16  N   UNL     1      -1.200  10.320  20.002  0.00  0.00    +0.000 NA
ATOM     17  O   UNL     1      -0.503   9.810  21.084  0.00  0.00    +0.000 OA
ATOM     18  C   UNL     1       0.713   9.365  20.670  0.00  0.00    +0.000 A 
ATOM     19  C   UNL     1       1.585   8.739  21.683  0.00  0.00    +0.000 C 
ENDBRANCH  12  13
ENDBRANCH  11  12
ENDBRANCH   8  11
ENDBRANCH   1   7
BRANCH   1  21
ATOM     20  N   UNL     1       5.512   4.537  17.987  0.00  0.00    +0.000 N 
ATOM     21  C   UNL     1       4.204   4.260  17.650  0.00  0.00    +0.000 C 
ATOM     22  O   UNL     1       3.929   3.931  16.476  0.00  0.00    +0.000 OA
BRANCH  20  24
ATOM     23  C   UNL     1       6.658   5.896  16.200  0.00  0.00    +0.000 C 
ATOM     24  C   UNL     1       6.472   4.535  16.870  0.00  0.00    +0.000 C 
ENDBRANCH  20  24
BRANCH  20  25
ATOM     25  C   UNL     1       5.839   5.166  19.255  0.00  0.00    +0.000 C 
ATOM     26  C   UNL     1       7.279   5.560  19.500  0.00  0.00    +0.000 C 
ENDBRANCH  20  25
ENDBRANCH   1  21
TORSDOF 7
ENDMDL
MODEL 7
REMARK VINA RESULT:      -6.4      1.277      3.648
REMARK  Name = 
REMARK  11 active torsions:
REMARK  status: ('A' for Active; 'I' for Inactive)
REMARK    1  A    between atoms: C_1  and  C_2
REMARK    2  A    between atoms: C_2  and  N_3
REMARK    3  A    between atoms: N_3  and  C_4
REMARK    4  A    between atoms: C_4  and  C_5
REMARK    5  A    between atoms: C_6  and  C_8
REMARK    6  A    between atoms: C_8  and  N_9
REMARK    7  A    between atoms: C_10  and  C_12
REMARK    8  A    between atoms: C_12  and  C_13
REMARK    9  A    between atoms: C_13  and  C_14
REMARK   10  A    between atoms: C_15  and  C_16
REMARK   11  A    between atoms: C_19  and  C_20
REMARK                            x       y       z     vdW  Elec       q    Type
REMARK                         _______ _______ _______ _____ _____    ______ ____
ROOT
ATOM      1  C   UNL     1       3.513   4.848  18.764  0.00  0.00    +0.000 C 
ATOM      2  C   UNL     1       2.599   4.645  19.991  0.00  0.00    +0.000 C 
ATOM      3  C   UNL     1       1.169   4.276  19.536  0.00  0.00    +0.000 C 
ATOM      4  C   UNL     1       1.158   2.921  18.846  0.00  0.00    +0.000 C 
ATOM      5  C   UNL     1       2.152   2.859  17.695  0.00  0.00    +0.000 C 
ATOM      6  C   UNL     1       3.504   3.487  18.001  0.00  0.00    +0.000 C 
ENDROOT
BRANCH   1   7
ATOM      7  N   UNL     1       2.971   5.999  18.005  0.00  0.00    +0.000 N 
ATOM      8  C   UNL     1       2.667   7.191  18.679  0.00  0.00    +0.000 C 
ATOM      9  O   UNL     1       2.849   7.345  19.887  0.00  0.00    +0.000 OA
ATOM     10  H   UNL     1       3.438   6.131  17.117  0.00  0.00    +0.000 HD
BRANCH   8  11
ATOM     11  C   UNL     1       2.148   8.321  17.831  0.00  0.00    +0.000 C 
BRANCH  11  12
ATOM     12  C   UNL     1       0.807   8.814  18.346  0.00  0.00    +0.000 C 
BRANCH  12  13
ATOM     13  C   UNL     1       0.879   9.866  19.374  0.00  0.00    +0.000 A 
ATOM     14  C   UNL     1       0.511   9.786  20.743  0.00  0.00    +0.000 A 
ATOM     15  C   UNL     1      -0.094   8.637  21.468  0.00  0.00    +0.000 C 
ATOM     16  N   UNL     1       0.811  10.917  21.392  0.00  0.00    +0.000 NA
ATOM     17  O   UNL     1       1.401  11.747  20.453  0.00  0.00    +0.000 OA
ATOM     18  C   UNL     1       1.440  11.114  19.251  0.00  0.00    +0.000 A 
ATOM     19  C   UNL     1       2.081  11.829  18.130  0.00  0.00    +0.000 C 
ENDBRANCH  12  13
ENDBRANCH  11  12
ENDBRANCH   8  11
ENDBRANCH   1   7
BRANCH   1  21
ATOM     20  N   UNL     1       5.704   5.440  17.463  0.00  0.00    +0.000 N 
ATOM     21  C   UNL     1       5.037   5.236  18.652  0.00  0.00    +0.000 C 
ATOM     22  O   UNL     1       5.645   5.388  19.732  0.00  0.00    +0.000 OA
BRANCH  20  24
ATOM     23  C   UNL     1       7.510   7.196  17.539  0.00  0.00    +0.000 C 
ATOM     24  C   UNL     1       7.146   5.712  17.580  0.00  0.00    +0.000 C 
ENDBRANCH  20  24
BRANCH  20  25
ATOM     25  C   UNL     1       5.119   5.030  16.198  0.00  0.00    +0.000 C 
ATOM     26  C   UNL     1       5.923   5.260  14.938  0.00  0.00    +0.000 C 
ENDBRANCH  20  25
ENDBRANCH   1  21
TORSDOF 7
ENDMDL
MODEL 8
REMARK VINA RESULT:      -6.4      1.438      1.931
REMARK  Name = 
REMARK  11 active torsions:
REMARK  status: ('A' for Active; 'I' for Inactive)
REMARK    1  A    between atoms: C_1  and  C_2
REMARK    2  A    between atoms: C_2  and  N_3
REMARK    3  A    between atoms: N_3  and  C_4
REMARK    4  A    between atoms: C_4  and  C_5
REMARK    5  A    between atoms: C_6  and  C_8
REMARK    6  A    between atoms: C_8  and  N_9
REMARK    7  A    between atoms: C_10  and  C_12
REMARK    8  A    between atoms: C_12  and  C_13
REMARK    9  A    between atoms: C_13  and  C_14
REMARK   10  A    between atoms: C_15  and  C_16
REMARK   11  A    between atoms: C_19  and  C_20
REMARK                            x       y       z     vdW  Elec       q    Type
REMARK                         _______ _______ _______ _____ _____    ______ ____
ROOT
ATOM      1  C   UNL     1       3.826   5.773  18.476  0.00  0.00    +0.000 C 
ATOM      2  C   UNL     1       4.099   5.491  16.983  0.00  0.00    +0.000 C 
ATOM      3  C   UNL     1       5.355   6.263  16.516  0.00  0.00    +0.000 C 
ATOM      4  C   UNL     1       6.598   5.741  17.219  0.00  0.00    +0.000 C 
ATOM      5  C   UNL     1       6.450   5.765  18.734  0.00  0.00    +0.000 C 
ATOM      6  C   UNL     1       5.097   5.284  19.238  0.00  0.00    +0.000 C 
ENDROOT
BRANCH   1   7
ATOM      7  N   UNL     1       3.536   7.220  18.598  0.00  0.00    +0.000 N 
ATOM      8  C   UNL     1       2.389   7.750  17.988  0.00  0.00    +0.000 C 
ATOM      9  O   UNL     1       1.582   7.063  17.362  0.00  0.00    +0.000 OA
ATOM     10  H   UNL     1       3.711   7.573  19.530  0.00  0.00    +0.000 HD
BRANCH   8  11
ATOM     11  C   UNL     1       2.152   9.224  18.184  0.00  0.00    +0.000 C 
BRANCH  11  12
ATOM     12  C   UNL     1       0.970   9.465  19.107  0.00  0.00    +0.000 C 
BRANCH  12  13
ATOM     13  C   UNL     1       0.191  10.682  18.822  0.00  0.00    +0.000 A 
ATOM     14  C   UNL     1       0.511  12.027  19.144  0.00  0.00    +0.000 A 
ATOM     15  C   UNL     1       1.686  12.539  19.900  0.00  0.00    +0.000 C 
ATOM     16  N   UNL     1      -0.392  12.874  18.637  0.00  0.00    +0.000 NA
ATOM     17  O   UNL     1      -1.307  12.088  17.957  0.00  0.00    +0.000 OA
ATOM     18  C   UNL     1      -0.954  10.781  18.070  0.00  0.00    +0.000 A 
ATOM     19  C   UNL     1      -1.791   9.790  17.365  0.00  0.00    +0.000 C 
ENDBRANCH  12  13
ENDBRANCH  11  12
ENDBRANCH   8  11
ENDBRANCH   1   7
BRANCH   1  21
ATOM     20  N   UNL     1       1.972   4.099  19.252  0.00  0.00    +0.000 N 
ATOM     21  C   UNL     1       2.690   5.260  19.441  0.00  0.00    +0.000 C 
ATOM     22  O   UNL     1       2.469   5.961  20.452  0.00  0.00    +0.000 OA
BRANCH  20  24
ATOM     23  C   UNL     1       1.259   2.833  21.311  0.00  0.00    +0.000 C 
ATOM     24  C   UNL     1       0.897   3.847  20.227  0.00  0.00    +0.000 C 
ENDBRANCH  20  24
BRANCH  20  25
ATOM     25  C   UNL     1       2.010   3.396  17.981  0.00  0.00    +0.000 C 
ATOM     26  C   UNL     1       2.841   2.135  17.892  0.00  0.00    +0.000 C 
ENDBRANCH  20  25
ENDBRANCH   1  21
TORSDOF 7
ENDMDL
MODEL 9
REMARK VINA RESULT:      -6.4      1.591      3.825
REMARK  Name = 
REMARK  11 active torsions:
REMARK  status: ('A' for Active; 'I' for Inactive)
REMARK    1  A    between atoms: C_1  and  C_2
REMARK    2  A    between atoms: C_2  and  N_3
REMARK    3  A    between atoms: N_3  and  C_4
REMARK    4  A    between atoms: C_4  and  C_5
REMARK    5  A    between atoms: C_6  and  C_8
REMARK    6  A    between atoms: C_8  and  N_9
REMARK    7  A    between atoms: C_10  and  C_12
REMARK    8  A    between atoms: C_12  and  C_13
REMARK    9  A    between atoms: C_13  and  C_14
REMARK   10  A    between atoms: C_15  and  C_16
REMARK   11  A    between atoms: C_19  and  C_20
REMARK                            x       y       z     vdW  Elec       q    Type
REMARK                         _______ _______ _______ _____ _____    ______ ____
ROOT
ATOM      1  C   UNL     1       3.613   4.486  18.756  0.00  0.00    +0.000 C 
ATOM      2  C   UNL     1       2.681   4.127  19.933  0.00  0.00    +0.000 C 
ATOM      3  C   UNL     1       1.315   3.636  19.400  0.00  0.00    +0.000 C 
ATOM      4  C   UNL     1       1.473   2.325  18.646  0.00  0.00    +0.000 C 
ATOM      5  C   UNL     1       2.510   2.425  17.537  0.00  0.00    +0.000 C 
ATOM      6  C   UNL     1       3.776   3.173  17.930  0.00  0.00    +0.000 C 
ENDROOT
BRANCH   1   7
ATOM      7  N   UNL     1       2.982   5.613  18.032  0.00  0.00    +0.000 N 
ATOM      8  C   UNL     1       2.567   6.748  18.743  0.00  0.00    +0.000 C 
ATOM      9  O   UNL     1       2.720   6.873  19.958  0.00  0.00    +0.000 OA
ATOM     10  H   UNL     1       3.446   5.818  17.156  0.00  0.00    +0.000 HD
BRANCH   8  11
ATOM     11  C   UNL     1       1.961   7.860  17.928  0.00  0.00    +0.000 C 
BRANCH  11  12
ATOM     12  C   UNL     1       2.029   9.180  18.676  0.00  0.00    +0.000 C 
BRANCH  12  13
ATOM     13  C   UNL     1       0.807   9.547  19.411  0.00  0.00    +0.000 A 
ATOM     14  C   UNL     1       0.620   9.652  20.814  0.00  0.00    +0.000 A 
ATOM     15  C   UNL     1       1.598   9.362  21.897  0.00  0.00    +0.000 C 
ATOM     16  N   UNL     1      -0.603  10.108  21.107  0.00  0.00    +0.000 NA
ATOM     17  O   UNL     1      -1.227  10.326  19.891  0.00  0.00    +0.000 OA
ATOM     18  C   UNL     1      -0.381   9.990  18.881  0.00  0.00    +0.000 A 
ATOM     19  C   UNL     1      -0.858  10.201  17.500  0.00  0.00    +0.000 C 
ENDBRANCH  12  13
ENDBRANCH  11  12
ENDBRANCH   8  11
ENDBRANCH   1   7
BRANCH   1  21
ATOM     20  N   UNL     1       5.806   5.288  17.578  0.00  0.00    +0.000 N 
ATOM     21  C   UNL     1       5.091   5.035  18.729  0.00  0.00    +0.000 C 
ATOM     22  O   UNL     1       5.610   5.273  19.840  0.00  0.00    +0.000 OA
BRANCH  20  24
ATOM     23  C   UNL     1       7.437   7.209  17.548  0.00  0.00    +0.000 C 
ATOM     24  C   UNL     1       7.201   5.716  17.776  0.00  0.00    +0.000 C 
ENDBRANCH  20  24
BRANCH  20  25
ATOM     25  C   UNL     1       5.350   4.793  16.291  0.00  0.00    +0.000 C 
ATOM     26  C   UNL     1       5.305   5.766  15.133  0.00  0.00    +0.000 C 
ENDBRANCH  20  25
ENDBRANCH   1  21
TORSDOF 7
ENDMDL
