MODEL 1
REMARK VINA RESULT:      -6.2      0.000      0.000
REMARK  Name = 
REMARK  20 active torsions:
REMARK  status: ('A' for Active; 'I' for Inactive)
REMARK    1  A    between atoms: C_1  and  C_2
REMARK    2  A    between atoms: C_2  and  C_3
REMARK    3  A    between atoms: C_3  and  C_4
REMARK    4  A    between atoms: C_4  and  C_5
REMARK    5  A    between atoms: C_5  and  C_6
REMARK    6  A    between atoms: C_6  and  C_7
REMARK    7  A    between atoms: C_7  and  C_8
REMARK    8  A    between atoms: C_8  and  C_9
REMARK    9  A    between atoms: C_10  and  C_11
REMARK   10  A    between atoms: C_11  and  C_12
REMARK   11  A    between atoms: C_12  and  C_13
REMARK   12  A    between atoms: C_13  and  C_14
REMARK   13  A    between atoms: C_14  and  C_15
REMARK   14  A    between atoms: C_15  and  C_16
REMARK   15  A    between atoms: C_16  and  C_17
REMARK   16  A    between atoms: C_17  and  C_18
REMARK   17  A    between atoms: C_18  and  N_19
REMARK   18  A    between atoms: N_22  and  C_23
REMARK   19  A    between atoms: C_23  and  C_24
REMARK   20  A    between atoms: C_24  and  O_26
REMARK                            x       y       z     vdW  Elec       q    Type
REMARK                         _______ _______ _______ _____ _____    ______ ____
ROOT
ATOM      1  C   UNL     1       5.995   5.254  19.236  0.00  0.00    +0.000 C 
ENDROOT
BRANCH   1   2
ATOM      2  C   UNL     1       7.468   5.394  18.855  0.00  0.00    +0.000 C 
BRANCH   2   3
ATOM      3  C   UNL     1       7.813   6.829  18.477  0.00  0.00    +0.000 C 
BRANCH   3   4
ATOM      4  C   UNL     1       7.386   7.120  17.042  0.00  0.00    +0.000 C 
BRANCH   4   5
ATOM      5  N   UNL     1       7.501   5.949  16.201  0.00  0.00    +0.000 N 
ATOM      6  C   UNL     1       6.501   5.589  15.344  0.00  0.00    +0.000 C 
ATOM      7  O   UNL     1       5.437   6.194  15.241  0.00  0.00    +0.000 OA
ATOM      8  N   UNL     1       6.810   4.472  14.623  0.00  0.00    +0.000 N 
ATOM      9  H   UNL     1       8.397   5.495  16.125  0.00  0.00    +0.000 HD
ATOM     10  H   UNL     1       7.669   3.968  14.802  0.00  0.00    +0.000 HD
BRANCH   8  11
ATOM     11  C   UNL     1       5.846   3.868  13.727  0.00  0.00    +0.000 C 
BRANCH  11  12
ATOM     12  C   UNL     1       6.469   3.505  12.392  0.00  0.00    +0.000 C 
ATOM     13  O   UNL     1       7.234   4.227  11.770  0.00  0.00    +0.000 OA
BRANCH  12  14
ATOM     14  O   UNL     1       6.091   2.288  11.951  0.00  0.00    +0.000 OA
ATOM     15  H   UNL     1       5.161   2.054  12.164  0.00  0.00    +0.000 HD
ENDBRANCH  12  14
ENDBRANCH  11  12
ENDBRANCH   8  11
ENDBRANCH   4   5
ENDBRANCH   3   4
ENDBRANCH   2   3
ENDBRANCH   1   2
BRANCH   1  16
ATOM     16  C   UNL     1       5.357   4.133  18.426  0.00  0.00    +0.000 C 
BRANCH  16  17
ATOM     17  C   UNL     1       4.500   3.216  19.294  0.00  0.00    +0.000 C 
BRANCH  17  18
ATOM     18  C   UNL     1       3.632   2.279  18.452  0.00  0.00    +0.000 C 
BRANCH  18  19
ATOM     19  C   UNL     1       2.145   2.303  18.812  0.00  0.00    +0.000 C 
BRANCH  19  21
ATOM     20  C   UNL     1       1.457   3.247  21.043  0.00  0.00    +0.000 C 
ATOM     21  C   UNL     1       1.911   2.230  20.297  0.00  0.00    +0.000 C 
BRANCH  20  22
ATOM     22  C   UNL     1       1.100   4.575  20.452  0.00  0.00    +0.000 C 
BRANCH  22  23
ATOM     23  C   UNL     1       2.236   5.580  20.508  0.00  0.00    +0.000 C 
BRANCH  23  24
ATOM     24  C   UNL     1       1.654   6.988  20.483  0.00  0.00    +0.000 C 
BRANCH  24  25
ATOM     25  C   UNL     1       2.127   7.741  19.252  0.00  0.00    +0.000 C 
BRANCH  25  26
ATOM     26  C   UNL     1       1.557   9.153  19.232  0.00  0.00    +0.000 C 
BRANCH  26  27
ATOM     27  C   UNL     1       0.749   9.373  17.960  0.00  0.00    +0.000 C 
BRANCH  27  29
ATOM     28  C   UNL     1      -0.636  10.498  19.717  0.00  0.00    +0.000 C 
ATOM     29  C   UNL     1      -0.479  10.234  18.227  0.00  0.00    +0.000 C 
ENDBRANCH  27  29
ENDBRANCH  26  27
ENDBRANCH  25  26
ENDBRANCH  24  25
ENDBRANCH  23  24
ENDBRANCH  22  23
ENDBRANCH  20  22
ENDBRANCH  19  21
ENDBRANCH  18  19
ENDBRANCH  17  18
ENDBRANCH  16  17
ENDBRANCH   1  16
TORSDOF 19
ENDMDL
MODEL 2
REMARK VINA RESULT:      -6.2      1.510      1.767
REMARK  Name = 
REMARK  20 active torsions:
REMARK  status: ('A' for Active; 'I' for Inactive)
REMARK    1  A    between atoms: C_1  and  C_2
REMARK    2  A    between atoms: C_2  and  C_3
REMARK    3  A    between atoms: C_3  and  C_4
REMARK    4  A    between atoms: C_4  and  C_5
REMARK    5  A    between atoms: C_5  and  C_6
REMARK    6  A    between atoms: C_6  and  C_7
REMARK    7  A    between atoms: C_7  and  C_8
REMARK    8  A    between atoms: C_8  and  C_9
REMARK    9  A    between atoms: C_10  and  C_11
REMARK   10  A    between atoms: C_11  and  C_12
REMARK   11  A    between atoms: C_12  and  C_13
REMARK   12  A    between atoms: C_13  and  C_14
REMARK   13  A    between atoms: C_14  and  C_15
REMARK   14  A    between atoms: C_15  and  C_16
REMARK   15  A    between atoms: C_16  and  C_17
REMARK   16  A    between atoms: C_17  and  C_18
REMARK   17  A    between atoms: C_18  and  N_19
REMARK   18  A    between atoms: N_22  and  C_23
REMARK   19  A    between atoms: C_23  and  C_24
REMARK   20  A    between atoms: C_24  and  O_26
REMARK                            x       y       z     vdW  Elec       q    Type
REMARK                         _______ _______ _______ _____ _____    ______ ____
ROOT
ATOM      1  C   UNL     1       5.233   5.117  18.939  0.00  0.00    +0.000 C 
ENDROOT
BRANCH   1   2
ATOM      2  C   UNL     1       6.470   4.595  18.210  0.00  0.00    +0.000 C 
BRANCH   2   3
ATOM      3  C   UNL     1       7.364   5.735  17.741  0.00  0.00    +0.000 C 
BRANCH   3   4
ATOM      4  C   UNL     1       6.708   6.488  16.588  0.00  0.00    +0.000 C 
BRANCH   4   5
ATOM      5  N   UNL     1       6.078   5.586  15.649  0.00  0.00    +0.000 N 
ATOM      6  C   UNL     1       6.760   5.086  14.577  0.00  0.00    +0.000 C 
ATOM      7  O   UNL     1       7.923   5.378  14.310  0.00  0.00    +0.000 OA
ATOM      8  N   UNL     1       6.001   4.237  13.827  0.00  0.00    +0.000 N 
ATOM      9  H   UNL     1       5.182   5.191  15.885  0.00  0.00    +0.000 HD
ATOM     10  H   UNL     1       5.024   4.091  14.049  0.00  0.00    +0.000 HD
BRANCH   8  11
ATOM     11  C   UNL     1       6.505   3.673  12.592  0.00  0.00    +0.000 C 
BRANCH  11  12
ATOM     12  C   UNL     1       5.447   2.859  11.871  0.00  0.00    +0.000 C 
ATOM     13  O   UNL     1       4.328   3.271  11.599  0.00  0.00    +0.000 OA
BRANCH  12  14
ATOM     14  O   UNL     1       5.866   1.617  11.554  0.00  0.00    +0.000 OA
ATOM     15  H   UNL     1       5.952   1.014  12.324  0.00  0.00    +0.000 HD
ENDBRANCH  12  14
ENDBRANCH  11  12
ENDBRANCH   8  11
ENDBRANCH   4   5
ENDBRANCH   3   4
ENDBRANCH   2   3
ENDBRANCH   1   2
BRANCH   1  16
ATOM     16  C   UNL     1       3.977   4.708  18.181  0.00  0.00    +0.000 C 
BRANCH  16  17
ATOM     17  C   UNL     1       4.037   3.255  17.717  0.00  0.00    +0.000 C 
BRANCH  17  18
ATOM     18  C   UNL     1       2.641   2.645  17.566  0.00  0.00    +0.000 C 
BRANCH  18  19
ATOM     19  C   UNL     1       1.513   3.497  18.153  0.00  0.00    +0.000 C 
BRANCH  19  21
ATOM     20  C   UNL     1       1.167   3.373  20.644  0.00  0.00    +0.000 C 
ATOM     21  C   UNL     1       0.937   2.903  19.410  0.00  0.00    +0.000 C 
BRANCH  20  22
ATOM     22  C   UNL     1       2.011   4.583  20.895  0.00  0.00    +0.000 C 
BRANCH  22  23
ATOM     23  C   UNL     1       1.245   5.886  20.753  0.00  0.00    +0.000 C 
BRANCH  23  24
ATOM     24  C   UNL     1       2.183   6.955  20.206  0.00  0.00    +0.000 C 
BRANCH  24  25
ATOM     25  C   UNL     1       1.549   8.330  20.317  0.00  0.00    +0.000 C 
BRANCH  25  26
ATOM     26  C   UNL     1       1.246   8.668  21.770  0.00  0.00    +0.000 C 
BRANCH  26  27
ATOM     27  C   UNL     1      -0.201   9.123  21.912  0.00  0.00    +0.000 C 
BRANCH  27  29
ATOM     28  C   UNL     1      -0.206  11.527  21.213  0.00  0.00    +0.000 C 
ATOM     29  C   UNL     1      -0.580  10.108  20.814  0.00  0.00    +0.000 C 
ENDBRANCH  27  29
ENDBRANCH  26  27
ENDBRANCH  25  26
ENDBRANCH  24  25
ENDBRANCH  23  24
ENDBRANCH  22  23
ENDBRANCH  20  22
ENDBRANCH  19  21
ENDBRANCH  18  19
ENDBRANCH  17  18
ENDBRANCH  16  17
ENDBRANCH   1  16
TORSDOF 19
ENDMDL
MODEL 3
REMARK VINA RESULT:      -6.0      3.261      4.967
REMARK  Name = 
REMARK  20 active torsions:
REMARK  status: ('A' for Active; 'I' for Inactive)
REMARK    1  A    between atoms: C_1  and  C_2
REMARK    2  A    between atoms: C_2  and  C_3
REMARK    3  A    between atoms: C_3  and  C_4
REMARK    4  A    between atoms: C_4  and  C_5
REMARK    5  A    between atoms: C_5  and  C_6
REMARK    6  A    between atoms: C_6  and  C_7
REMARK    7  A    between atoms: C_7  and  C_8
REMARK    8  A    between atoms: C_8  and  C_9
REMARK    9  A    between atoms: C_10  and  C_11
REMARK   10  A    between atoms: C_11  and  C_12
REMARK   11  A    between atoms: C_12  and  C_13
REMARK   12  A    between atoms: C_13  and  C_14
REMARK   13  A    between atoms: C_14  and  C_15
REMARK   14  A    between atoms: C_15  and  C_16
REMARK   15  A    between atoms: C_16  and  C_17
REMARK   16  A    between atoms: C_17  and  C_18
REMARK   17  A    between atoms: C_18  and  N_19
REMARK   18  A    between atoms: N_22  and  C_23
REMARK   19  A    between atoms: C_23  and  C_24
REMARK   20  A    between atoms: C_24  and  O_26
REMARK                            x       y       z     vdW  Elec       q    Type
REMARK                         _______ _______ _______ _____ _____    ______ ____
ROOT
ATOM      1  C   UNL     1       4.730   4.081  18.355  0.00  0.00    +0.000 C 
ENDROOT
BRANCH   1   2
ATOM      2  C   UNL     1       5.577   5.007  17.484  0.00  0.00    +0.000 C 
BRANCH   2   3
ATOM      3  C   UNL     1       6.215   6.119  18.307  0.00  0.00    +0.000 C 
BRANCH   3   4
ATOM      4  C   UNL     1       7.694   6.258  17.958  0.00  0.00    +0.000 C 
BRANCH   4   5
ATOM      5  N   UNL     1       8.329   7.306  18.726  0.00  0.00    +0.000 N 
ATOM      6  C   UNL     1       8.351   8.597  18.282  0.00  0.00    +0.000 C 
ATOM      7  O   UNL     1       7.875   8.961  17.209  0.00  0.00    +0.000 OA
ATOM      8  N   UNL     1       8.973   9.438  19.158  0.00  0.00    +0.000 N 
ATOM      9  H   UNL     1       8.606   7.111  19.674  0.00  0.00    +0.000 HD
ATOM     10  H   UNL     1       9.415   9.074  19.992  0.00  0.00    +0.000 HD
BRANCH   8  11
ATOM     11  C   UNL     1       9.189  10.833  18.833  0.00  0.00    +0.000 C 
BRANCH  11  12
ATOM     12  C   UNL     1      10.564  11.305  19.265  0.00  0.00    +0.000 C 
ATOM     13  O   UNL     1      10.864  11.592  20.414  0.00  0.00    +0.000 OA
BRANCH  12  14
ATOM     14  O   UNL     1      11.439  11.381  18.240  0.00  0.00    +0.000 OA
ATOM     15  H   UNL     1      11.115  10.977  17.406  0.00  0.00    +0.000 HD
ENDBRANCH  12  14
ENDBRANCH  11  12
ENDBRANCH   8  11
ENDBRANCH   4   5
ENDBRANCH   3   4
ENDBRANCH   2   3
ENDBRANCH   1   2
BRANCH   1  16
ATOM     16  C   UNL     1       4.019   3.058  17.480  0.00  0.00    +0.000 C 
BRANCH  16  17
ATOM     17  C   UNL     1       2.512   3.295  17.433  0.00  0.00    +0.000 C 
BRANCH  17  18
ATOM     18  C   UNL     1       1.732   2.142  18.070  0.00  0.00    +0.000 C 
BRANCH  18  19
ATOM     19  C   UNL     1       0.760   2.571  19.171  0.00  0.00    +0.000 C 
BRANCH  19  21
ATOM     20  C   UNL     1       1.724   3.684  21.214  0.00  0.00    +0.000 C 
ATOM     21  C   UNL     1       1.400   2.576  20.534  0.00  0.00    +0.000 C 
BRANCH  20  22
ATOM     22  C   UNL     1       1.444   5.056  20.687  0.00  0.00    +0.000 C 
BRANCH  22  23
ATOM     23  C   UNL     1       2.690   5.776  20.202  0.00  0.00    +0.000 C 
BRANCH  23  24
ATOM     24  C   UNL     1       2.299   7.162  19.703  0.00  0.00    +0.000 C 
BRANCH  24  25
ATOM     25  C   UNL     1       2.579   7.294  18.216  0.00  0.00    +0.000 C 
BRANCH  25  26
ATOM     26  C   UNL     1       2.267   8.705  17.734  0.00  0.00    +0.000 C 
BRANCH  26  27
ATOM     27  C   UNL     1       1.262   9.367  18.667  0.00  0.00    +0.000 C 
BRANCH  27  29
ATOM     28  C   UNL     1      -0.993  10.436  18.862  0.00  0.00    +0.000 C 
ATOM     29  C   UNL     1      -0.004   9.769  17.920  0.00  0.00    +0.000 C 
ENDBRANCH  27  29
ENDBRANCH  26  27
ENDBRANCH  25  26
ENDBRANCH  24  25
ENDBRANCH  23  24
ENDBRANCH  22  23
ENDBRANCH  20  22
ENDBRANCH  19  21
ENDBRANCH  18  19
ENDBRANCH  17  18
ENDBRANCH  16  17
ENDBRANCH   1  16
TORSDOF 19
ENDMDL
MODEL 4
REMARK VINA RESULT:      -6.0      2.383      5.084
REMARK  Name = 
REMARK  20 active torsions:
REMARK  status: ('A' for Active; 'I' for Inactive)
REMARK    1  A    between atoms: C_1  and  C_2
REMARK    2  A    between atoms: C_2  and  C_3
REMARK    3  A    between atoms: C_3  and  C_4
REMARK    4  A    between atoms: C_4  and  C_5
REMARK    5  A    between atoms: C_5  and  C_6
REMARK    6  A    between atoms: C_6  and  C_7
REMARK    7  A    between atoms: C_7  and  C_8
REMARK    8  A    between atoms: C_8  and  C_9
REMARK    9  A    between atoms: C_10  and  C_11
REMARK   10  A    between atoms: C_11  and  C_12
REMARK   11  A    between atoms: C_12  and  C_13
REMARK   12  A    between atoms: C_13  and  C_14
REMARK   13  A    between atoms: C_14  and  C_15
REMARK   14  A    between atoms: C_15  and  C_16
REMARK   15  A    between atoms: C_16  and  C_17
REMARK   16  A    between atoms: C_17  and  C_18
REMARK   17  A    between atoms: C_18  and  N_19
REMARK   18  A    between atoms: N_22  and  C_23
REMARK   19  A    between atoms: C_23  and  C_24
REMARK   20  A    between atoms: C_24  and  O_26
REMARK                            x       y       z     vdW  Elec       q    Type
REMARK                         _______ _______ _______ _____ _____    ______ ____
ROOT
ATOM      1  C   UNL     1       1.182   3.952  20.260  0.00  0.00    +0.000 C 
ENDROOT
BRANCH   1   2
ATOM      2  C   UNL     1       1.869   3.127  21.347  0.00  0.00    +0.000 C 
BRANCH   2   3
ATOM      3  C   UNL     1       3.196   2.559  20.860  0.00  0.00    +0.000 C 
BRANCH   3   4
ATOM      4  C   UNL     1       3.068   2.061  19.423  0.00  0.00    +0.000 C 
BRANCH   4   5
ATOM      5  N   UNL     1       4.184   2.487  18.608  0.00  0.00    +0.000 N 
ATOM      6  C   UNL     1       4.004   3.302  17.527  0.00  0.00    +0.000 C 
ATOM      7  O   UNL     1       2.907   3.704  17.148  0.00  0.00    +0.000 OA
ATOM      8  N   UNL     1       5.179   3.609  16.906  0.00  0.00    +0.000 N 
ATOM      9  H   UNL     1       5.119   2.319  18.943  0.00  0.00    +0.000 HD
ATOM     10  H   UNL     1       6.047   3.189  17.213  0.00  0.00    +0.000 HD
BRANCH   8  11
ATOM     11  C   UNL     1       5.199   4.382  15.681  0.00  0.00    +0.000 C 
BRANCH  11  12
ATOM     12  C   UNL     1       6.535   4.276  14.970  0.00  0.00    +0.000 C 
ATOM     13  O   UNL     1       7.554   4.847  15.329  0.00  0.00    +0.000 OA
BRANCH  12  14
ATOM     14  O   UNL     1       6.489   3.476  13.884  0.00  0.00    +0.000 OA
ATOM     15  H   UNL     1       5.839   3.760  13.205  0.00  0.00    +0.000 HD
ENDBRANCH  12  14
ENDBRANCH  11  12
ENDBRANCH   8  11
ENDBRANCH   4   5
ENDBRANCH   3   4
ENDBRANCH   2   3
ENDBRANCH   1   2
BRANCH   1  16
ATOM     16  C   UNL     1       1.468   5.432  20.477  0.00  0.00    +0.000 C 
BRANCH  16  17
ATOM     17  C   UNL     1       2.853   5.827  19.973  0.00  0.00    +0.000 C 
BRANCH  17  18
ATOM     18  C   UNL     1       2.777   6.707  18.723  0.00  0.00    +0.000 C 
BRANCH  18  19
ATOM     19  C   UNL     1       2.003   8.013  18.917  0.00  0.00    +0.000 C 
BRANCH  19  21
ATOM     20  C   UNL     1       1.833  10.260  17.792  0.00  0.00    +0.000 C 
ATOM     21  C   UNL     1       2.187   8.967  17.767  0.00  0.00    +0.000 C 
BRANCH  20  22
ATOM     22  C   UNL     1       1.239  10.903  19.005  0.00  0.00    +0.000 C 
BRANCH  22  23
ATOM     23  C   UNL     1      -0.208  11.321  18.811  0.00  0.00    +0.000 C 
BRANCH  23  24
ATOM     24  C   UNL     1      -1.116  10.166  19.215  0.00  0.00    +0.000 C 
BRANCH  24  25
ATOM     25  C   UNL     1      -2.223   9.973  18.193  0.00  0.00    +0.000 C 
BRANCH  25  26
ATOM     26  C   UNL     1      -1.790  10.489  16.827  0.00  0.00    +0.000 C 
BRANCH  26  27
ATOM     27  C   UNL     1      -3.004  10.957  16.035  0.00  0.00    +0.000 C 
BRANCH  27  29
ATOM     28  C   UNL     1      -5.031  11.933  17.133  0.00  0.00    +0.000 C 
ATOM     29  C   UNL     1      -4.299  10.649  16.775  0.00  0.00    +0.000 C 
ENDBRANCH  27  29
ENDBRANCH  26  27
ENDBRANCH  25  26
ENDBRANCH  24  25
ENDBRANCH  23  24
ENDBRANCH  22  23
ENDBRANCH  20  22
ENDBRANCH  19  21
ENDBRANCH  18  19
ENDBRANCH  17  18
ENDBRANCH  16  17
ENDBRANCH   1  16
TORSDOF 19
ENDMDL
MODEL 5
REMARK VINA RESULT:      -6.0      5.018      8.281
REMARK  Name = 
REMARK  20 active torsions:
REMARK  status: ('A' for Active; 'I' for Inactive)
REMARK    1  A    between atoms: C_1  and  C_2
REMARK    2  A    between atoms: C_2  and  C_3
REMARK    3  A    between atoms: C_3  and  C_4
REMARK    4  A    between atoms: C_4  and  C_5
REMARK    5  A    between atoms: C_5  and  C_6
REMARK    6  A    between atoms: C_6  and  C_7
REMARK    7  A    between atoms: C_7  and  C_8
REMARK    8  A    between atoms: C_8  and  C_9
REMARK    9  A    between atoms: C_10  and  C_11
REMARK   10  A    between atoms: C_11  and  C_12
REMARK   11  A    between atoms: C_12  and  C_13
REMARK   12  A    between atoms: C_13  and  C_14
REMARK   13  A    between atoms: C_14  and  C_15
REMARK   14  A    between atoms: C_15  and  C_16
REMARK   15  A    between atoms: C_16  and  C_17
REMARK   16  A    between atoms: C_17  and  C_18
REMARK   17  A    between atoms: C_18  and  N_19
REMARK   18  A    between atoms: N_22  and  C_23
REMARK   19  A    between atoms: C_23  and  C_24
REMARK   20  A    between atoms: C_24  and  O_26
REMARK                            x       y       z     vdW  Elec       q    Type
REMARK                         _______ _______ _______ _____ _____    ______ ____
ROOT
ATOM      1  C   UNL     1       1.561   8.736  19.808  0.00  0.00    +0.000 C 
ENDROOT
BRANCH   1   2
ATOM      2  C   UNL     1       0.854   9.417  18.637  0.00  0.00    +0.000 C 
BRANCH   2   3
ATOM      3  C   UNL     1       1.104  10.919  18.631  0.00  0.00    +0.000 C 
BRANCH   3   4
ATOM      4  C   UNL     1      -0.202  11.678  18.849  0.00  0.00    +0.000 C 
BRANCH   4   5
ATOM      5  N   UNL     1      -0.918  11.878  17.609  0.00  0.00    +0.000 N 
ATOM      6  C   UNL     1      -2.096  11.234  17.357  0.00  0.00    +0.000 C 
ATOM      7  O   UNL     1      -2.615  10.429  18.126  0.00  0.00    +0.000 OA
ATOM      8  N   UNL     1      -2.626  11.574  16.146  0.00  0.00    +0.000 N 
ATOM      9  H   UNL     1      -0.632  12.628  17.001  0.00  0.00    +0.000 HD
ATOM     10  H   UNL     1      -2.119  12.184  15.518  0.00  0.00    +0.000 HD
BRANCH   8  11
ATOM     11  C   UNL     1      -3.823  10.930  15.645  0.00  0.00    +0.000 C 
BRANCH  11  12
ATOM     12  C   UNL     1      -3.552  10.151  14.373  0.00  0.00    +0.000 C 
ATOM     13  O   UNL     1      -2.435   9.905  13.940  0.00  0.00    +0.000 OA
BRANCH  12  14
ATOM     14  O   UNL     1      -4.681   9.747  13.754  0.00  0.00    +0.000 OA
ATOM     15  H   UNL     1      -4.561   9.525  12.805  0.00  0.00    +0.000 HD
ENDBRANCH  12  14
ENDBRANCH  11  12
ENDBRANCH   8  11
ENDBRANCH   4   5
ENDBRANCH   3   4
ENDBRANCH   2   3
ENDBRANCH   1   2
BRANCH   1  16
ATOM     16  C   UNL     1       2.241   7.461  19.329  0.00  0.00    +0.000 C 
BRANCH  16  17
ATOM     17  C   UNL     1       2.638   7.542  17.858  0.00  0.00    +0.000 C 
BRANCH  17  18
ATOM     18  C   UNL     1       4.157   7.568  17.676  0.00  0.00    +0.000 C 
BRANCH  18  19
ATOM     19  C   UNL     1       4.673   6.682  16.541  0.00  0.00    +0.000 C 
BRANCH  19  21
ATOM     20  C   UNL     1       6.109   4.641  16.882  0.00  0.00    +0.000 C 
ATOM     21  C   UNL     1       5.951   5.972  16.899  0.00  0.00    +0.000 C 
BRANCH  20  22
ATOM     22  C   UNL     1       5.014   3.712  16.462  0.00  0.00    +0.000 C 
BRANCH  22  23
ATOM     23  C   UNL     1       3.969   3.493  17.541  0.00  0.00    +0.000 C 
BRANCH  23  24
ATOM     24  C   UNL     1       2.584   3.554  16.909  0.00  0.00    +0.000 C 
BRANCH  24  25
ATOM     25  C   UNL     1       1.561   4.063  17.910  0.00  0.00    +0.000 C 
BRANCH  25  26
ATOM     26  C   UNL     1       2.021   3.789  19.335  0.00  0.00    +0.000 C 
BRANCH  26  27
ATOM     27  C   UNL     1       0.853   3.286  20.175  0.00  0.00    +0.000 C 
BRANCH  27  29
ATOM     28  C   UNL     1       2.750   2.460  21.584  0.00  0.00    +0.000 C 
ATOM     29  C   UNL     1       1.301   2.922  21.584  0.00  0.00    +0.000 C 
ENDBRANCH  27  29
ENDBRANCH  26  27
ENDBRANCH  25  26
ENDBRANCH  24  25
ENDBRANCH  23  24
ENDBRANCH  22  23
ENDBRANCH  20  22
ENDBRANCH  19  21
ENDBRANCH  18  19
ENDBRANCH  17  18
ENDBRANCH  16  17
ENDBRANCH   1  16
TORSDOF 19
ENDMDL
MODEL 6
REMARK VINA RESULT:      -5.9      5.240      8.438
REMARK  Name = 
REMARK  20 active torsions:
REMARK  status: ('A' for Active; 'I' for Inactive)
REMARK    1  A    between atoms: C_1  and  C_2
REMARK    2  A    between atoms: C_2  and  C_3
REMARK    3  A    between atoms: C_3  and  C_4
REMARK    4  A    between atoms: C_4  and  C_5
REMARK    5  A    between atoms: C_5  and  C_6
REMARK    6  A    between atoms: C_6  and  C_7
REMARK    7  A    between atoms: C_7  and  C_8
REMARK    8  A    between atoms: C_8  and  C_9
REMARK    9  A    between atoms: C_10  and  C_11
REMARK   10  A    between atoms: C_11  and  C_12
REMARK   11  A    between atoms: C_12  and  C_13
REMARK   12  A    between atoms: C_13  and  C_14
REMARK   13  A    between atoms: C_14  and  C_15
REMARK   14  A    between atoms: C_15  and  C_16
REMARK   15  A    between atoms: C_16  and  C_17
REMARK   16  A    between atoms: C_17  and  C_18
REMARK   17  A    between atoms: C_18  and  N_19
REMARK   18  A    between atoms: N_22  and  C_23
REMARK   19  A    between atoms: C_23  and  C_24
REMARK   20  A    between atoms: C_24  and  O_26
REMARK                            x       y       z     vdW  Elec       q    Type
REMARK                         _______ _______ _______ _____ _____    ______ ____
ROOT
ATOM      1  C   UNL     1       2.915   7.733  17.795  0.00  0.00    +0.000 C 
ENDROOT
BRANCH   1   2
ATOM      2  C   UNL     1       1.837   8.787  17.548  0.00  0.00    +0.000 C 
BRANCH   2   3
ATOM      3  C   UNL     1       2.123  10.069  18.319  0.00  0.00    +0.000 C 
BRANCH   3   4
ATOM      4  C   UNL     1       0.874  10.943  18.383  0.00  0.00    +0.000 C 
BRANCH   4   5
ATOM      5  N   UNL     1      -0.328  10.176  18.143  0.00  0.00    +0.000 N 
ATOM      6  C   UNL     1      -1.549  10.781  18.052  0.00  0.00    +0.000 C 
ATOM      7  O   UNL     1      -1.728  11.987  18.194  0.00  0.00    +0.000 OA
ATOM      8  N   UNL     1      -2.552   9.891  17.798  0.00  0.00    +0.000 N 
ATOM      9  H   UNL     1      -0.239   9.211  17.871  0.00  0.00    +0.000 HD
ATOM     10  H   UNL     1      -2.361   8.898  17.766  0.00  0.00    +0.000 HD
BRANCH   8  11
ATOM     11  C   UNL     1      -3.937  10.314  17.760  0.00  0.00    +0.000 C 
BRANCH  11  12
ATOM     12  C   UNL     1      -4.249  11.109  16.506  0.00  0.00    +0.000 C 
ATOM     13  O   UNL     1      -4.134  10.674  15.369  0.00  0.00    +0.000 OA
BRANCH  12  14
ATOM     14  O   UNL     1      -4.671  12.362  16.770  0.00  0.00    +0.000 OA
ATOM     15  H   UNL     1      -5.605  12.416  17.069  0.00  0.00    +0.000 HD
ENDBRANCH  12  14
ENDBRANCH  11  12
ENDBRANCH   8  11
ENDBRANCH   4   5
ENDBRANCH   3   4
ENDBRANCH   2   3
ENDBRANCH   1   2
BRANCH   1  16
ATOM     16  C   UNL     1       2.312   6.539  18.522  0.00  0.00    +0.000 C 
BRANCH  16  17
ATOM     17  C   UNL     1       2.352   6.711  20.038  0.00  0.00    +0.000 C 
BRANCH  17  18
ATOM     18  C   UNL     1       1.598   5.593  20.761  0.00  0.00    +0.000 C 
BRANCH  18  19
ATOM     19  C   UNL     1       2.006   4.180  20.337  0.00  0.00    +0.000 C 
BRANCH  19  21
ATOM     20  C   UNL     1       1.034   2.548  18.684  0.00  0.00    +0.000 C 
ATOM     21  C   UNL     1       0.879   3.426  19.685  0.00  0.00    +0.000 C 
BRANCH  20  22
ATOM     22  C   UNL     1       2.378   2.198  18.129  0.00  0.00    +0.000 C 
BRANCH  22  23
ATOM     23  C   UNL     1       2.889   3.209  17.118  0.00  0.00    +0.000 C 
BRANCH  23  24
ATOM     24  C   UNL     1       4.279   3.672  17.539  0.00  0.00    +0.000 C 
BRANCH  24  25
ATOM     25  C   UNL     1       5.233   3.644  16.359  0.00  0.00    +0.000 C 
BRANCH  25  26
ATOM     26  C   UNL     1       5.464   5.050  15.820  0.00  0.00    +0.000 C 
BRANCH  26  27
ATOM     27  C   UNL     1       6.235   4.988  14.508  0.00  0.00    +0.000 C 
BRANCH  27  29
ATOM     28  C   UNL     1       6.589   3.721  12.377  0.00  0.00    +0.000 C 
ATOM     29  C   UNL     1       5.715   3.870  13.613  0.00  0.00    +0.000 C 
ENDBRANCH  27  29
ENDBRANCH  26  27
ENDBRANCH  25  26
ENDBRANCH  24  25
ENDBRANCH  23  24
ENDBRANCH  22  23
ENDBRANCH  20  22
ENDBRANCH  19  21
ENDBRANCH  18  19
ENDBRANCH  17  18
ENDBRANCH  16  17
ENDBRANCH   1  16
TORSDOF 19
ENDMDL
MODEL 7
REMARK VINA RESULT:      -5.9      1.783      2.634
REMARK  Name = 
REMARK  20 active torsions:
REMARK  status: ('A' for Active; 'I' for Inactive)
REMARK    1  A    between atoms: C_1  and  C_2
REMARK    2  A    between atoms: C_2  and  C_3
REMARK    3  A    between atoms: C_3  and  C_4
REMARK    4  A    between atoms: C_4  and  C_5
REMARK    5  A    between atoms: C_5  and  C_6
REMARK    6  A    between atoms: C_6  and  C_7
REMARK    7  A    between atoms: C_7  and  C_8
REMARK    8  A    between atoms: C_8  and  C_9
REMARK    9  A    between atoms: C_10  and  C_11
REMARK   10  A    between atoms: C_11  and  C_12
REMARK   11  A    between atoms: C_12  and  C_13
REMARK   12  A    between atoms: C_13  and  C_14
REMARK   13  A    between atoms: C_14  and  C_15
REMARK   14  A    between atoms: C_15  and  C_16
REMARK   15  A    between atoms: C_16  and  C_17
REMARK   16  A    between atoms: C_17  and  C_18
REMARK   17  A    between atoms: C_18  and  N_19
REMARK   18  A    between atoms: N_22  and  C_23
REMARK   19  A    between atoms: C_23  and  C_24
REMARK   20  A    between atoms: C_24  and  O_26
REMARK                            x       y       z     vdW  Elec       q    Type
REMARK                         _______ _______ _______ _____ _____    ______ ____
ROOT
ATOM      1  C   UNL     1       4.730   3.859  19.599  0.00  0.00    +0.000 C 
ENDROOT
BRANCH   1   2
ATOM      2  C   UNL     1       5.342   4.216  18.245  0.00  0.00    +0.000 C 
BRANCH   2   3
ATOM      3  C   UNL     1       6.777   4.704  18.392  0.00  0.00    +0.000 C 
BRANCH   3   4
ATOM      4  C   UNL     1       7.386   4.990  17.023  0.00  0.00    +0.000 C 
BRANCH   4   5
ATOM      5  N   UNL     1       6.829   4.134  16.000  0.00  0.00    +0.000 N 
ATOM      6  C   UNL     1       6.932   4.451  14.675  0.00  0.00    +0.000 C 
ATOM      7  O   UNL     1       7.463   5.476  14.256  0.00  0.00    +0.000 OA
ATOM      8  N   UNL     1       6.366   3.507  13.869  0.00  0.00    +0.000 N 
ATOM      9  H   UNL     1       6.513   3.214  16.258  0.00  0.00    +0.000 HD
ATOM     10  H   UNL     1       5.873   2.719  14.270  0.00  0.00    +0.000 HD
BRANCH   8  11
ATOM     11  C   UNL     1       6.282   3.699  12.435  0.00  0.00    +0.000 C 
BRANCH  11  12
ATOM     12  C   UNL     1       5.391   2.661  11.780  0.00  0.00    +0.000 C 
ATOM     13  O   UNL     1       4.328   2.913  11.232  0.00  0.00    +0.000 OA
BRANCH  12  14
ATOM     14  O   UNL     1       5.893   1.411  11.861  0.00  0.00    +0.000 OA
ATOM     15  H   UNL     1       5.851   1.020  12.761  0.00  0.00    +0.000 HD
ENDBRANCH  12  14
ENDBRANCH  11  12
ENDBRANCH   8  11
ENDBRANCH   4   5
ENDBRANCH   3   4
ENDBRANCH   2   3
ENDBRANCH   1   2
BRANCH   1  16
ATOM     16  C   UNL     1       4.323   2.392  19.610  0.00  0.00    +0.000 C 
BRANCH  16  17
ATOM     17  C   UNL     1       2.811   2.219  19.729  0.00  0.00    +0.000 C 
BRANCH  17  18
ATOM     18  C   UNL     1       2.091   2.577  18.427  0.00  0.00    +0.000 C 
BRANCH  18  19
ATOM     19  C   UNL     1       1.207   3.824  18.517  0.00  0.00    +0.000 C 
BRANCH  19  21
ATOM     20  C   UNL     1       2.233   6.107  18.236  0.00  0.00    +0.000 C 
ATOM     21  C   UNL     1       1.749   4.973  17.710  0.00  0.00    +0.000 C 
BRANCH  20  22
ATOM     22  C   UNL     1       2.314   6.332  19.713  0.00  0.00    +0.000 C 
BRANCH  22  23
ATOM     23  C   UNL     1       1.968   7.753  20.121  0.00  0.00    +0.000 C 
BRANCH  23  24
ATOM     24  C   UNL     1       0.998   7.708  21.296  0.00  0.00    +0.000 C 
BRANCH  24  25
ATOM     25  C   UNL     1       0.111   8.941  21.304  0.00  0.00    +0.000 C 
BRANCH  25  26
ATOM     26  C   UNL     1      -0.443   9.195  22.700  0.00  0.00    +0.000 C 
BRANCH  26  27
ATOM     27  C   UNL     1      -0.829  10.661  22.851  0.00  0.00    +0.000 C 
BRANCH  27  29
ATOM     28  C   UNL     1      -1.822  12.437  21.392  0.00  0.00    +0.000 C 
ATOM     29  C   UNL     1      -0.715  11.402  21.525  0.00  0.00    +0.000 C 
ENDBRANCH  27  29
ENDBRANCH  26  27
ENDBRANCH  25  26
ENDBRANCH  24  25
ENDBRANCH  23  24
ENDBRANCH  22  23
ENDBRANCH  20  22
ENDBRANCH  19  21
ENDBRANCH  18  19
ENDBRANCH  17  18
ENDBRANCH  16  17
ENDBRANCH   1  16
TORSDOF 19
ENDMDL
MODEL 8
REMARK VINA RESULT:      -5.8      5.750      8.996
REMARK  Name = 
REMARK  20 active torsions:
REMARK  status: ('A' for Active; 'I' for Inactive)
REMARK    1  A    between atoms: C_1  and  C_2
REMARK    2  A    between atoms: C_2  and  C_3
REMARK    3  A    between atoms: C_3  and  C_4
REMARK    4  A    between atoms: C_4  and  C_5
REMARK    5  A    between atoms: C_5  and  C_6
REMARK    6  A    between atoms: C_6  and  C_7
REMARK    7  A    between atoms: C_7  and  C_8
REMARK    8  A    between atoms: C_8  and  C_9
REMARK    9  A    between atoms: C_10  and  C_11
REMARK   10  A    between atoms: C_11  and  C_12
REMARK   11  A    between atoms: C_12  and  C_13
REMARK   12  A    between atoms: C_13  and  C_14
REMARK   13  A    between atoms: C_14  and  C_15
REMARK   14  A    between atoms: C_15  and  C_16
REMARK   15  A    between atoms: C_16  and  C_17
REMARK   16  A    between atoms: C_17  and  C_18
REMARK   17  A    between atoms: C_18  and  N_19
REMARK   18  A    between atoms: N_22  and  C_23
REMARK   19  A    between atoms: C_23  and  C_24
REMARK   20  A    between atoms: C_24  and  O_26
REMARK                            x       y       z     vdW  Elec       q    Type
REMARK                         _______ _______ _______ _____ _____    ______ ____
ROOT
ATOM      1  C   UNL     1       7.625   8.317  17.654  0.00  0.00    +0.000 C 
ENDROOT
BRANCH   1   2
ATOM      2  C   UNL     1       8.207   7.269  18.602  0.00  0.00    +0.000 C 
BRANCH   2   3
ATOM      3  C   UNL     1       7.699   5.873  18.270  0.00  0.00    +0.000 C 
BRANCH   3   4
ATOM      4  C   UNL     1       6.642   5.436  19.281  0.00  0.00    +0.000 C 
BRANCH   4   5
ATOM      5  N   UNL     1       5.394   5.094  18.636  0.00  0.00    +0.000 N 
ATOM      6  C   UNL     1       4.725   3.945  18.948  0.00  0.00    +0.000 C 
ATOM      7  O   UNL     1       5.132   3.114  19.756  0.00  0.00    +0.000 OA
ATOM      8  N   UNL     1       3.559   3.816  18.252  0.00  0.00    +0.000 N 
ATOM      9  H   UNL     1       4.931   5.793  18.079  0.00  0.00    +0.000 HD
ATOM     10  H   UNL     1       3.308   4.493  17.542  0.00  0.00    +0.000 HD
BRANCH   8  11
ATOM     11  C   UNL     1       2.747   2.622  18.364  0.00  0.00    +0.000 C 
BRANCH  11  12
ATOM     12  C   UNL     1       1.272   2.925  18.176  0.00  0.00    +0.000 C 
ATOM     13  O   UNL     1       0.366   2.205  18.569  0.00  0.00    +0.000 OA
BRANCH  12  14
ATOM     14  O   UNL     1       1.054   4.084  17.522  0.00  0.00    +0.000 OA
ATOM     15  H   UNL     1       0.803   3.972  16.579  0.00  0.00    +0.000 HD
ENDBRANCH  12  14
ENDBRANCH  11  12
ENDBRANCH   8  11
ENDBRANCH   4   5
ENDBRANCH   3   4
ENDBRANCH   2   3
ENDBRANCH   1   2
BRANCH   1  16
ATOM     16  C   UNL     1       8.255   9.675  17.937  0.00  0.00    +0.000 C 
BRANCH  16  17
ATOM     17  C   UNL     1       9.221   9.622  19.117  0.00  0.00    +0.000 C 
BRANCH  17  18
ATOM     18  C   UNL     1       9.283  10.957  19.864  0.00  0.00    +0.000 C 
BRANCH  18  19
ATOM     19  C   UNL     1      10.669  11.606  19.882  0.00  0.00    +0.000 C 
BRANCH  19  21
ATOM     20  C   UNL     1      11.042  12.356  17.508  0.00  0.00    +0.000 C 
ATOM     21  C   UNL     1      11.346  11.556  18.539  0.00  0.00    +0.000 C 
BRANCH  20  22
ATOM     22  C   UNL     1       9.999  13.425  17.606  0.00  0.00    +0.000 C 
BRANCH  22  23
ATOM     23  C   UNL     1      10.575  14.795  17.916  0.00  0.00    +0.000 C 
BRANCH  23  24
ATOM     24  C   UNL     1       9.478  15.841  17.753  0.00  0.00    +0.000 C 
BRANCH  24  25
ATOM     25  C   UNL     1       8.184  15.363  18.388  0.00  0.00    +0.000 C 
BRANCH  25  26
ATOM     26  C   UNL     1       8.188  15.635  19.887  0.00  0.00    +0.000 C 
BRANCH  26  27
ATOM     27  C   UNL     1       8.072  14.326  20.657  0.00  0.00    +0.000 C 
BRANCH  27  29
ATOM     28  C   UNL     1      10.337  14.807  21.608  0.00  0.00    +0.000 C 
ATOM     29  C   UNL     1       8.921  14.351  21.922  0.00  0.00    +0.000 C 
ENDBRANCH  27  29
ENDBRANCH  26  27
ENDBRANCH  25  26
ENDBRANCH  24  25
ENDBRANCH  23  24
ENDBRANCH  22  23
ENDBRANCH  20  22
ENDBRANCH  19  21
ENDBRANCH  18  19
ENDBRANCH  17  18
ENDBRANCH  16  17
ENDBRANCH   1  16
TORSDOF 19
ENDMDL
MODEL 9
REMARK VINA RESULT:      -5.8      4.294      8.520
REMARK  Name = 
REMARK  20 active torsions:
REMARK  status: ('A' for Active; 'I' for Inactive)
REMARK    1  A    between atoms: C_1  and  C_2
REMARK    2  A    between atoms: C_2  and  C_3
REMARK    3  A    between atoms: C_3  and  C_4
REMARK    4  A    between atoms: C_4  and  C_5
REMARK    5  A    between atoms: C_5  and  C_6
REMARK    6  A    between atoms: C_6  and  C_7
REMARK    7  A    between atoms: C_7  and  C_8
REMARK    8  A    between atoms: C_8  and  C_9
REMARK    9  A    between atoms: C_10  and  C_11
REMARK   10  A    between atoms: C_11  and  C_12
REMARK   11  A    between atoms: C_12  and  C_13
REMARK   12  A    between atoms: C_13  and  C_14
REMARK   13  A    between atoms: C_14  and  C_15
REMARK   14  A    between atoms: C_15  and  C_16
REMARK   15  A    between atoms: C_16  and  C_17
REMARK   16  A    between atoms: C_17  and  C_18
REMARK   17  A    between atoms: C_18  and  N_19
REMARK   18  A    between atoms: N_22  and  C_23
REMARK   19  A    between atoms: C_23  and  C_24
REMARK   20  A    between atoms: C_24  and  O_26
REMARK                            x       y       z     vdW  Elec       q    Type
REMARK                         _______ _______ _______ _____ _____    ______ ____
ROOT
ATOM      1  C   UNL     1       0.894   3.277  19.862  0.00  0.00    +0.000 C 
ENDROOT
BRANCH   1   2
ATOM      2  C   UNL     1       1.180   4.775  19.959  0.00  0.00    +0.000 C 
BRANCH   2   3
ATOM      3  C   UNL     1       1.858   5.297  18.699  0.00  0.00    +0.000 C 
BRANCH   3   4
ATOM      4  C   UNL     1       2.476   6.668  18.955  0.00  0.00    +0.000 C 
BRANCH   4   5
ATOM      5  N   UNL     1       2.203   7.136  20.296  0.00  0.00    +0.000 N 
ATOM      6  C   UNL     1       1.664   8.371  20.521  0.00  0.00    +0.000 C 
ATOM      7  O   UNL     1       1.403   9.177  19.632  0.00  0.00    +0.000 OA
ATOM      8  N   UNL     1       1.461   8.616  21.848  0.00  0.00    +0.000 N 
ATOM      9  H   UNL     1       2.254   6.479  21.057  0.00  0.00    +0.000 HD
ATOM     10  H   UNL     1       1.766   7.948  22.545  0.00  0.00    +0.000 HD
BRANCH   8  11
ATOM     11  C   UNL     1       0.988   9.905  22.308  0.00  0.00    +0.000 C 
BRANCH  11  12
ATOM     12  C   UNL     1      -0.385   9.805  22.946  0.00  0.00    +0.000 C 
ATOM     13  O   UNL     1      -0.976  10.743  23.461  0.00  0.00    +0.000 OA
BRANCH  12  14
ATOM     14  O   UNL     1      -0.901   8.559  22.889  0.00  0.00    +0.000 OA
ATOM     15  H   UNL     1      -1.630   8.397  23.526  0.00  0.00    +0.000 HD
ENDBRANCH  12  14
ENDBRANCH  11  12
ENDBRANCH   8  11
ENDBRANCH   4   5
ENDBRANCH   3   4
ENDBRANCH   2   3
ENDBRANCH   1   2
BRANCH   1  16
ATOM     16  C   UNL     1       1.385   2.576  21.121  0.00  0.00    +0.000 C 
BRANCH  16  17
ATOM     17  C   UNL     1       2.834   2.931  21.445  0.00  0.00    +0.000 C 
BRANCH  17  18
ATOM     18  C   UNL     1       3.822   2.147  20.577  0.00  0.00    +0.000 C 
BRANCH  18  19
ATOM     19  C   UNL     1       4.615   3.007  19.590  0.00  0.00    +0.000 C 
BRANCH  19  21
ATOM     20  C   UNL     1       4.544   3.574  17.137  0.00  0.00    +0.000 C 
ATOM     21  C   UNL     1       4.186   2.790  18.164  0.00  0.00    +0.000 C 
BRANCH  20  22
ATOM     22  C   UNL     1       5.453   4.750  17.309  0.00  0.00    +0.000 C 
BRANCH  22  23
ATOM     23  C   UNL     1       4.991   5.979  16.547  0.00  0.00    +0.000 C 
BRANCH  23  24
ATOM     24  C   UNL     1       5.495   5.890  15.111  0.00  0.00    +0.000 C 
BRANCH  24  25
ATOM     25  C   UNL     1       6.494   4.756  14.964  0.00  0.00    +0.000 C 
BRANCH  25  26
ATOM     26  C   UNL     1       6.672   4.382  13.498  0.00  0.00    +0.000 C 
BRANCH  26  27
ATOM     27  C   UNL     1       5.633   3.344  13.093  0.00  0.00    +0.000 C 
BRANCH  27  29
ATOM     28  C   UNL     1       6.015   1.503  11.439  0.00  0.00    +0.000 C 
ATOM     29  C   UNL     1       5.753   2.991  11.616  0.00  0.00    +0.000 C 
ENDBRANCH  27  29
ENDBRANCH  26  27
ENDBRANCH  25  26
ENDBRANCH  24  25
ENDBRANCH  23  24
ENDBRANCH  22  23
ENDBRANCH  20  22
ENDBRANCH  19  21
ENDBRANCH  18  19
ENDBRANCH  17  18
ENDBRANCH  16  17
ENDBRANCH   1  16
TORSDOF 19
ENDMDL
