MODEL 1
REMARK VINA RESULT:      -7.8      0.000      0.000
REMARK  Name = 
REMARK  10 active torsions:
REMARK  status: ('A' for Active; 'I' for Inactive)
REMARK    1  A    between atoms: C_1  and  O_2
REMARK    2  A    between atoms: O_2  and  C_3
REMARK    3  A    between atoms: C_8  and  N_9
REMARK    4  A    between atoms: N_12  and  C_13
REMARK    5  A    between atoms: C_13  and  C_14
REMARK    6  A    between atoms: C_14  and  C_15
REMARK    7  A    between atoms: C_15  and  C_16
REMARK    8  A    between atoms: C_16  and  N_17
REMARK    9  A    between atoms: C_18  and  C_20
REMARK   10  A    between atoms: C_22  and  C_23
REMARK                            x       y       z     vdW  Elec       q    Type
REMARK                         _______ _______ _______ _____ _____    ______ ____
ROOT
ATOM      1  C   UNL     1       8.657   9.914  18.206  0.00  0.00    +0.000 C 
ENDROOT
BRANCH   1   2
ATOM      2  C   UNL     1       9.255  10.622  19.426  0.00  0.00    +0.000 C 
BRANCH   2   6
ATOM      3  N   UNL     1      10.221  14.004  18.534  0.00  0.00    +0.000 N 
ATOM      4  C   UNL     1       9.848  12.976  17.556  0.00  0.00    +0.000 C 
ATOM      5  C   UNL     1      10.679  11.696  17.805  0.00  0.00    +0.000 C 
ATOM      6  N   UNL     1      10.597  11.163  19.196  0.00  0.00    +0.000 NA
ATOM      7  C   UNL     1      10.947  12.255  20.131  0.00  0.00    +0.000 C 
ATOM      8  C   UNL     1      10.159  13.571  19.942  0.00  0.00    +0.000 C 
BRANCH   3  14
ATOM      9  C   UNL     1       9.596  16.316  17.872  0.00  0.00    +0.000 A 
ATOM     10  C   UNL     1      10.020  17.605  17.503  0.00  0.00    +0.000 A 
ATOM     11  C   UNL     1      11.368  17.928  17.440  0.00  0.00    +0.000 A 
ATOM     12  C   UNL     1      12.313  16.960  17.728  0.00  0.00    +0.000 A 
ATOM     13  C   UNL     1      11.904  15.673  18.087  0.00  0.00    +0.000 A 
ATOM     14  C   UNL     1      10.545  15.301  18.171  0.00  0.00    +0.000 A 
BRANCH   9  16
ATOM     15  C   UNL     1       7.454  16.698  18.805  0.00  0.00    +0.000 C 
ATOM     16  O   UNL     1       8.252  16.000  17.849  0.00  0.00    +0.000 OA
ENDBRANCH   9  16
ENDBRANCH   3  14
ENDBRANCH   2   6
ENDBRANCH   1   2
BRANCH   1  17
ATOM     17  C   UNL     1       8.264   8.478  18.534  0.00  0.00    +0.000 C 
BRANCH  17  18
ATOM     18  C   UNL     1       7.855   7.710  17.283  0.00  0.00    +0.000 C 
BRANCH  18  19
ATOM     19  N   UNL     1       6.572   7.097  17.432  0.00  0.00    +0.000 N 
ATOM     20  C   UNL     1       6.173   6.112  16.574  0.00  0.00    +0.000 C 
ATOM     21  O   UNL     1       6.860   5.694  15.641  0.00  0.00    +0.000 OA
ATOM     22  H   UNL     1       5.940   7.441  18.145  0.00  0.00    +0.000 HD
BRANCH  20  23
ATOM     23  C   UNL     1       4.832   5.573  16.841  0.00  0.00    +0.000 C 
ATOM     24  C   UNL     1       4.500   4.164  16.416  0.00  0.00    +0.000 C 
ATOM     25  C   UNL     1       4.666   4.481  17.888  0.00  0.00    +0.000 C 
BRANCH  25  26
ATOM     26  C   UNL     1       3.461   4.472  18.791  0.00  0.00    +0.000 A 
ATOM     27  C   UNL     1       3.200   5.566  19.632  0.00  0.00    +0.000 A 
ATOM     28  C   UNL     1       2.101   5.574  20.494  0.00  0.00    +0.000 A 
ATOM     29  C   UNL     1       1.235   4.485  20.523  0.00  0.00    +0.000 A 
ATOM     30  C   UNL     1       1.457   3.400  19.679  0.00  0.00    +0.000 A 
ATOM     31  C   UNL     1       2.557   3.399  18.817  0.00  0.00    +0.000 A 
ENDBRANCH  25  26
ENDBRANCH  20  23
ENDBRANCH  18  19
ENDBRANCH  17  18
ENDBRANCH   1  17
TORSDOF 9
ENDMDL
MODEL 2
REMARK VINA RESULT:      -7.6      1.911     11.751
REMARK  Name = 
REMARK  10 active torsions:
REMARK  status: ('A' for Active; 'I' for Inactive)
REMARK    1  A    between atoms: C_1  and  O_2
REMARK    2  A    between atoms: O_2  and  C_3
REMARK    3  A    between atoms: C_8  and  N_9
REMARK    4  A    between atoms: N_12  and  C_13
REMARK    5  A    between atoms: C_13  and  C_14
REMARK    6  A    between atoms: C_14  and  C_15
REMARK    7  A    between atoms: C_15  and  C_16
REMARK    8  A    between atoms: C_16  and  N_17
REMARK    9  A    between atoms: C_18  and  C_20
REMARK   10  A    between atoms: C_22  and  C_23
REMARK                            x       y       z     vdW  Elec       q    Type
REMARK                         _______ _______ _______ _____ _____    ______ ____
ROOT
ATOM      1  C   UNL     1       7.678   7.122  17.872  0.00  0.00    +0.000 C 
ENDROOT
BRANCH   1   2
ATOM      2  C   UNL     1       7.161   6.429  16.607  0.00  0.00    +0.000 C 
BRANCH   2   6
ATOM      3  N   UNL     1       4.324   5.008  18.368  0.00  0.00    +0.000 N 
ATOM      4  C   UNL     1       5.586   5.381  19.017  0.00  0.00    +0.000 C 
ATOM      5  C   UNL     1       6.769   4.726  18.267  0.00  0.00    +0.000 C 
ATOM      6  N   UNL     1       6.816   5.019  16.805  0.00  0.00    +0.000 NA
ATOM      7  C   UNL     1       5.506   4.657  16.220  0.00  0.00    +0.000 C 
ATOM      8  C   UNL     1       4.272   5.272  16.918  0.00  0.00    +0.000 C 
BRANCH   3  14
ATOM      9  C   UNL     1       2.785   3.162  18.995  0.00  0.00    +0.000 A 
ATOM     10  C   UNL     1       1.667   2.743  19.740  0.00  0.00    +0.000 A 
ATOM     11  C   UNL     1       0.992   3.619  20.577  0.00  0.00    +0.000 A 
ATOM     12  C   UNL     1       1.415   4.933  20.670  0.00  0.00    +0.000 A 
ATOM     13  C   UNL     1       2.519   5.363  19.929  0.00  0.00    +0.000 A 
ATOM     14  C   UNL     1       3.239   4.506  19.069  0.00  0.00    +0.000 A 
BRANCH   9  16
ATOM     15  C   UNL     1       3.936   1.113  18.703  0.00  0.00    +0.000 C 
ATOM     16  O   UNL     1       3.388   2.290  18.110  0.00  0.00    +0.000 OA
ENDBRANCH   9  16
ENDBRANCH   3  14
ENDBRANCH   2   6
ENDBRANCH   1   2
BRANCH   1  17
ATOM     17  C   UNL     1       8.002   8.589  17.609  0.00  0.00    +0.000 C 
BRANCH  17  18
ATOM     18  C   UNL     1       8.764   9.210  18.773  0.00  0.00    +0.000 C 
BRANCH  18  19
ATOM     19  N   UNL     1       9.320  10.481  18.425  0.00  0.00    +0.000 N 
ATOM     20  C   UNL     1       9.450  11.459  19.369  0.00  0.00    +0.000 C 
ATOM     21  O   UNL     1       9.110  11.329  20.546  0.00  0.00    +0.000 OA
ATOM     22  H   UNL     1       9.562  10.666  17.459  0.00  0.00    +0.000 HD
BRANCH  20  23
ATOM     23  C   UNL     1      10.033  12.714  18.873  0.00  0.00    +0.000 C 
ATOM     24  C   UNL     1      10.479  12.808  17.435  0.00  0.00    +0.000 C 
ATOM     25  C   UNL     1       9.244  13.559  17.884  0.00  0.00    +0.000 C 
BRANCH  25  26
ATOM     26  C   UNL     1       9.278  15.062  17.973  0.00  0.00    +0.000 A 
ATOM     27  C   UNL     1      10.385  15.774  17.483  0.00  0.00    +0.000 A 
ATOM     28  C   UNL     1      10.450  17.166  17.572  0.00  0.00    +0.000 A 
ATOM     29  C   UNL     1       9.401  17.874  18.149  0.00  0.00    +0.000 A 
ATOM     30  C   UNL     1       8.281  17.194  18.617  0.00  0.00    +0.000 A 
ATOM     31  C   UNL     1       8.219  15.801  18.523  0.00  0.00    +0.000 A 
ENDBRANCH  25  26
ENDBRANCH  20  23
ENDBRANCH  18  19
ENDBRANCH  17  18
ENDBRANCH   1  17
TORSDOF 9
ENDMDL
MODEL 3
REMARK VINA RESULT:      -7.6      2.955     11.090
REMARK  Name = 
REMARK  10 active torsions:
REMARK  status: ('A' for Active; 'I' for Inactive)
REMARK    1  A    between atoms: C_1  and  O_2
REMARK    2  A    between atoms: O_2  and  C_3
REMARK    3  A    between atoms: C_8  and  N_9
REMARK    4  A    between atoms: N_12  and  C_13
REMARK    5  A    between atoms: C_13  and  C_14
REMARK    6  A    between atoms: C_14  and  C_15
REMARK    7  A    between atoms: C_15  and  C_16
REMARK    8  A    between atoms: C_16  and  N_17
REMARK    9  A    between atoms: C_18  and  C_20
REMARK   10  A    between atoms: C_22  and  C_23
REMARK                            x       y       z     vdW  Elec       q    Type
REMARK                         _______ _______ _______ _____ _____    ______ ____
ROOT
ATOM      1  C   UNL     1       7.839   8.589  17.605  0.00  0.00    +0.000 C 
ENDROOT
BRANCH   1   2
ATOM      2  C   UNL     1       7.740   7.091  17.910  0.00  0.00    +0.000 C 
BRANCH   2   6
ATOM      3  N   UNL     1       4.800   4.987  18.223  0.00  0.00    +0.000 N 
ATOM      4  C   UNL     1       6.170   4.516  18.456  0.00  0.00    +0.000 C 
ATOM      5  C   UNL     1       7.059   4.877  17.243  0.00  0.00    +0.000 C 
ATOM      6  N   UNL     1       7.047   6.323  16.874  0.00  0.00    +0.000 NA
ATOM      7  C   UNL     1       5.640   6.741  16.689  0.00  0.00    +0.000 C 
ATOM      8  C   UNL     1       4.688   6.411  17.861  0.00  0.00    +0.000 C 
BRANCH   3  14
ATOM      9  C   UNL     1       2.706   4.352  19.398  0.00  0.00    +0.000 A 
ATOM     10  C   UNL     1       1.614   3.470  19.495  0.00  0.00    +0.000 A 
ATOM     11  C   UNL     1       1.458   2.419  18.603  0.00  0.00    +0.000 A 
ATOM     12  C   UNL     1       2.400   2.225  17.610  0.00  0.00    +0.000 A 
ATOM     13  C   UNL     1       3.493   3.089  17.509  0.00  0.00    +0.000 A 
ATOM     14  C   UNL     1       3.690   4.174  18.389  0.00  0.00    +0.000 A 
BRANCH   9  16
ATOM     15  C   UNL     1       1.736   6.165  20.574  0.00  0.00    +0.000 C 
ATOM     16  O   UNL     1       2.879   5.340  20.347  0.00  0.00    +0.000 OA
ENDBRANCH   9  16
ENDBRANCH   3  14
ENDBRANCH   2   6
ENDBRANCH   1   2
BRANCH   1  17
ATOM     17  C   UNL     1       8.752   9.300  18.599  0.00  0.00    +0.000 C 
BRANCH  17  18
ATOM     18  C   UNL     1       9.061  10.724  18.154  0.00  0.00    +0.000 C 
BRANCH  18  19
ATOM     19  N   UNL     1       9.137  11.622  19.265  0.00  0.00    +0.000 N 
ATOM     20  C   UNL     1      10.333  11.860  19.880  0.00  0.00    +0.000 C 
ATOM     21  O   UNL     1      11.396  11.339  19.540  0.00  0.00    +0.000 OA
ATOM     22  H   UNL     1       8.285  12.034  19.626  0.00  0.00    +0.000 HD
BRANCH  20  23
ATOM     23  C   UNL     1      10.265  12.800  21.008  0.00  0.00    +0.000 C 
ATOM     24  C   UNL     1       9.698  14.181  20.790  0.00  0.00    +0.000 C 
ATOM     25  C   UNL     1       8.906  13.166  21.587  0.00  0.00    +0.000 C 
BRANCH  25  26
ATOM     26  C   UNL     1       8.740  13.353  23.072  0.00  0.00    +0.000 A 
ATOM     27  C   UNL     1       8.861  14.630  23.642  0.00  0.00    +0.000 A 
ATOM     28  C   UNL     1       8.731  14.827  25.019  0.00  0.00    +0.000 A 
ATOM     29  C   UNL     1       8.470  13.744  25.852  0.00  0.00    +0.000 A 
ATOM     30  C   UNL     1       8.319  12.471  25.309  0.00  0.00    +0.000 A 
ATOM     31  C   UNL     1       8.447  12.281  23.930  0.00  0.00    +0.000 A 
ENDBRANCH  25  26
ENDBRANCH  20  23
ENDBRANCH  18  19
ENDBRANCH  17  18
ENDBRANCH   1  17
TORSDOF 9
ENDMDL
MODEL 4
REMARK VINA RESULT:      -7.6      3.102     11.218
REMARK  Name = 
REMARK  10 active torsions:
REMARK  status: ('A' for Active; 'I' for Inactive)
REMARK    1  A    between atoms: C_1  and  O_2
REMARK    2  A    between atoms: O_2  and  C_3
REMARK    3  A    between atoms: C_8  and  N_9
REMARK    4  A    between atoms: N_12  and  C_13
REMARK    5  A    between atoms: C_13  and  C_14
REMARK    6  A    between atoms: C_14  and  C_15
REMARK    7  A    between atoms: C_15  and  C_16
REMARK    8  A    between atoms: C_16  and  N_17
REMARK    9  A    between atoms: C_18  and  C_20
REMARK   10  A    between atoms: C_22  and  C_23
REMARK                            x       y       z     vdW  Elec       q    Type
REMARK                         _______ _______ _______ _____ _____    ______ ____
ROOT
ATOM      1  C   UNL     1       7.399   8.219  17.504  0.00  0.00    +0.000 C 
ENDROOT
BRANCH   1   2
ATOM      2  C   UNL     1       7.485   6.758  17.049  0.00  0.00    +0.000 C 
BRANCH   2   6
ATOM      3  N   UNL     1       4.605   4.761  17.987  0.00  0.00    +0.000 N 
ATOM      4  C   UNL     1       5.882   4.193  17.540  0.00  0.00    +0.000 C 
ATOM      5  C   UNL     1       6.298   4.840  16.199  0.00  0.00    +0.000 C 
ATOM      6  N   UNL     1       6.355   6.331  16.220  0.00  0.00    +0.000 NA
ATOM      7  C   UNL     1       5.055   6.836  16.713  0.00  0.00    +0.000 C 
ATOM      8  C   UNL     1       4.570   6.233  18.050  0.00  0.00    +0.000 C 
BRANCH   3  14
ATOM      9  C   UNL     1       3.587   2.994  19.406  0.00  0.00    +0.000 A 
ATOM     10  C   UNL     1       2.447   2.237  19.731  0.00  0.00    +0.000 A 
ATOM     11  C   UNL     1       1.239   2.439  19.079  0.00  0.00    +0.000 A 
ATOM     12  C   UNL     1       1.158   3.391  18.079  0.00  0.00    +0.000 A 
ATOM     13  C   UNL     1       2.286   4.142  17.740  0.00  0.00    +0.000 A 
ATOM     14  C   UNL     1       3.533   3.976  18.380  0.00  0.00    +0.000 A 
BRANCH   9  16
ATOM     15  C   UNL     1       4.823   1.506  20.772  0.00  0.00    +0.000 C 
ATOM     16  O   UNL     1       4.794   2.716  20.015  0.00  0.00    +0.000 OA
ENDBRANCH   9  16
ENDBRANCH   3  14
ENDBRANCH   2   6
ENDBRANCH   1   2
BRANCH   1  17
ATOM     17  C   UNL     1       8.541   8.574  18.450  0.00  0.00    +0.000 C 
BRANCH  17  18
ATOM     18  C   UNL     1       8.965  10.029  18.292  0.00  0.00    +0.000 C 
BRANCH  18  19
ATOM     19  N   UNL     1       9.081  10.688  19.556  0.00  0.00    +0.000 N 
ATOM     20  C   UNL     1      10.118  11.545  19.795  0.00  0.00    +0.000 C 
ATOM     21  O   UNL     1      10.998  11.805  18.974  0.00  0.00    +0.000 OA
ATOM     22  H   UNL     1       8.420  10.468  20.291  0.00  0.00    +0.000 HD
BRANCH  20  23
ATOM     23  C   UNL     1      10.116  12.149  21.136  0.00  0.00    +0.000 C 
ATOM     24  C   UNL     1      10.166  13.651  21.273  0.00  0.00    +0.000 C 
ATOM     25  C   UNL     1       8.886  12.913  21.603  0.00  0.00    +0.000 C 
BRANCH  25  26
ATOM     26  C   UNL     1       8.432  12.815  23.036  0.00  0.00    +0.000 A 
ATOM     27  C   UNL     1       7.721  11.688  23.477  0.00  0.00    +0.000 A 
ATOM     28  C   UNL     1       7.271  11.583  24.796  0.00  0.00    +0.000 A 
ATOM     29  C   UNL     1       7.533  12.606  25.701  0.00  0.00    +0.000 A 
ATOM     30  C   UNL     1       8.260  13.722  25.295  0.00  0.00    +0.000 A 
ATOM     31  C   UNL     1       8.710  13.820  23.976  0.00  0.00    +0.000 A 
ENDBRANCH  25  26
ENDBRANCH  20  23
ENDBRANCH  18  19
ENDBRANCH  17  18
ENDBRANCH   1  17
TORSDOF 9
ENDMDL
MODEL 5
REMARK VINA RESULT:      -7.5      2.537     11.637
REMARK  Name = 
REMARK  10 active torsions:
REMARK  status: ('A' for Active; 'I' for Inactive)
REMARK    1  A    between atoms: C_1  and  O_2
REMARK    2  A    between atoms: O_2  and  C_3
REMARK    3  A    between atoms: C_8  and  N_9
REMARK    4  A    between atoms: N_12  and  C_13
REMARK    5  A    between atoms: C_13  and  C_14
REMARK    6  A    between atoms: C_14  and  C_15
REMARK    7  A    between atoms: C_15  and  C_16
REMARK    8  A    between atoms: C_16  and  N_17
REMARK    9  A    between atoms: C_18  and  C_20
REMARK   10  A    between atoms: C_22  and  C_23
REMARK                            x       y       z     vdW  Elec       q    Type
REMARK                         _______ _______ _______ _____ _____    ______ ____
ROOT
ATOM      1  C   UNL     1       8.205   8.507  17.647  0.00  0.00    +0.000 C 
ENDROOT
BRANCH   1   2
ATOM      2  C   UNL     1       7.714   7.177  18.228  0.00  0.00    +0.000 C 
BRANCH   2   6
ATOM      3  N   UNL     1       4.804   5.016  18.383  0.00  0.00    +0.000 N 
ATOM      4  C   UNL     1       6.128   4.641  18.892  0.00  0.00    +0.000 C 
ATOM      5  C   UNL     1       7.191   4.865  17.792  0.00  0.00    +0.000 C 
ATOM      6  N   UNL     1       7.211   6.243  17.220  0.00  0.00    +0.000 NA
ATOM      7  C   UNL     1       5.843   6.571  16.759  0.00  0.00    +0.000 C 
ATOM      8  C   UNL     1       4.723   6.369  17.805  0.00  0.00    +0.000 C 
BRANCH   3  14
ATOM      9  C   UNL     1       2.682   4.326  19.475  0.00  0.00    +0.000 A 
ATOM     10  C   UNL     1       1.597   3.432  19.513  0.00  0.00    +0.000 A 
ATOM     11  C   UNL     1       1.477   2.408  18.585  0.00  0.00    +0.000 A 
ATOM     12  C   UNL     1       2.450   2.252  17.614  0.00  0.00    +0.000 A 
ATOM     13  C   UNL     1       3.537   3.129  17.572  0.00  0.00    +0.000 A 
ATOM     14  C   UNL     1       3.697   4.188  18.491  0.00  0.00    +0.000 A 
BRANCH   9  16
ATOM     15  C   UNL     1       1.882   6.362  20.383  0.00  0.00    +0.000 C 
ATOM     16  O   UNL     1       2.817   5.286  20.459  0.00  0.00    +0.000 OA
ENDBRANCH   9  16
ENDBRANCH   3  14
ENDBRANCH   2   6
ENDBRANCH   1   2
BRANCH   1  17
ATOM     17  C   UNL     1       8.705   9.442  18.743  0.00  0.00    +0.000 C 
BRANCH  17  18
ATOM     18  C   UNL     1       9.207  10.761  18.167  0.00  0.00    +0.000 C 
BRANCH  18  19
ATOM     19  N   UNL     1       9.718  11.624  19.185  0.00  0.00    +0.000 N 
ATOM     20  C   UNL     1      10.650  12.575  18.880  0.00  0.00    +0.000 C 
ATOM     21  O   UNL     1      11.106  12.753  17.750  0.00  0.00    +0.000 OA
ATOM     22  H   UNL     1       9.424  11.485  20.144  0.00  0.00    +0.000 HD
BRANCH  20  23
ATOM     23  C   UNL     1      11.090  13.390  20.023  0.00  0.00    +0.000 C 
ATOM     24  C   UNL     1      11.797  14.699  19.772  0.00  0.00    +0.000 C 
ATOM     25  C   UNL     1      10.382  14.705  20.312  0.00  0.00    +0.000 C 
BRANCH  25  26
ATOM     26  C   UNL     1      10.130  15.134  21.734  0.00  0.00    +0.000 A 
ATOM     27  C   UNL     1       9.172  14.468  22.514  0.00  0.00    +0.000 A 
ATOM     28  C   UNL     1       8.905  14.860  23.828  0.00  0.00    +0.000 A 
ATOM     29  C   UNL     1       9.602  15.925  24.388  0.00  0.00    +0.000 A 
ATOM     30  C   UNL     1      10.576  16.585  23.644  0.00  0.00    +0.000 A 
ATOM     31  C   UNL     1      10.841  16.186  22.331  0.00  0.00    +0.000 A 
ENDBRANCH  25  26
ENDBRANCH  20  23
ENDBRANCH  18  19
ENDBRANCH  17  18
ENDBRANCH   1  17
TORSDOF 9
ENDMDL
MODEL 6
REMARK VINA RESULT:      -7.5      2.223     11.004
REMARK  Name = 
REMARK  10 active torsions:
REMARK  status: ('A' for Active; 'I' for Inactive)
REMARK    1  A    between atoms: C_1  and  O_2
REMARK    2  A    between atoms: O_2  and  C_3
REMARK    3  A    between atoms: C_8  and  N_9
REMARK    4  A    between atoms: N_12  and  C_13
REMARK    5  A    between atoms: C_13  and  C_14
REMARK    6  A    between atoms: C_14  and  C_15
REMARK    7  A    between atoms: C_15  and  C_16
REMARK    8  A    between atoms: C_16  and  N_17
REMARK    9  A    between atoms: C_18  and  C_20
REMARK   10  A    between atoms: C_22  and  C_23
REMARK                            x       y       z     vdW  Elec       q    Type
REMARK                         _______ _______ _______ _____ _____    ______ ____
ROOT
ATOM      1  C   UNL     1       7.974   8.627  17.652  0.00  0.00    +0.000 C 
ENDROOT
BRANCH   1   2
ATOM      2  C   UNL     1       7.798   7.148  18.009  0.00  0.00    +0.000 C 
BRANCH   2   6
ATOM      3  N   UNL     1       4.831   5.062  18.125  0.00  0.00    +0.000 N 
ATOM      4  C   UNL     1       6.173   4.595  18.491  0.00  0.00    +0.000 C 
ATOM      5  C   UNL     1       7.165   4.917  17.349  0.00  0.00    +0.000 C 
ATOM      6  N   UNL     1       7.193   6.351  16.939  0.00  0.00    +0.000 NA
ATOM      7  C   UNL     1       5.809   6.768  16.620  0.00  0.00    +0.000 C 
ATOM      8  C   UNL     1       4.758   6.475  17.714  0.00  0.00    +0.000 C 
BRANCH   3  14
ATOM      9  C   UNL     1       2.507   4.624  18.885  0.00  0.00    +0.000 A 
ATOM     10  C   UNL     1       1.416   3.737  18.935  0.00  0.00    +0.000 A 
ATOM     11  C   UNL     1       1.473   2.494  18.321  0.00  0.00    +0.000 A 
ATOM     12  C   UNL     1       2.627   2.113  17.662  0.00  0.00    +0.000 A 
ATOM     13  C   UNL     1       3.720   2.982  17.614  0.00  0.00    +0.000 A 
ATOM     14  C   UNL     1       3.706   4.258  18.218  0.00  0.00    +0.000 A 
BRANCH   9  16
ATOM     15  C   UNL     1       1.657   5.799  20.758  0.00  0.00    +0.000 C 
ATOM     16  O   UNL     1       2.452   5.821  19.572  0.00  0.00    +0.000 OA
ENDBRANCH   9  16
ENDBRANCH   3  14
ENDBRANCH   2   6
ENDBRANCH   1   2
BRANCH   1  17
ATOM     17  C   UNL     1       8.716   9.380  18.752  0.00  0.00    +0.000 C 
BRANCH  17  18
ATOM     18  C   UNL     1       9.432  10.608  18.204  0.00  0.00    +0.000 C 
BRANCH  18  19
ATOM     19  N   UNL     1       8.787  11.820  18.603  0.00  0.00    +0.000 N 
ATOM     20  C   UNL     1       9.166  13.015  18.060  0.00  0.00    +0.000 C 
ATOM     21  O   UNL     1      10.059  13.136  17.220  0.00  0.00    +0.000 OA
ATOM     22  H   UNL     1       8.087  11.790  19.334  0.00  0.00    +0.000 HD
BRANCH  20  23
ATOM     23  C   UNL     1       8.423  14.179  18.563  0.00  0.00    +0.000 C 
ATOM     24  C   UNL     1       8.704  15.545  17.986  0.00  0.00    +0.000 C 
ATOM     25  C   UNL     1       7.398  14.851  17.660  0.00  0.00    +0.000 C 
BRANCH  25  26
ATOM     26  C   UNL     1       6.111  15.380  18.236  0.00  0.00    +0.000 A 
ATOM     27  C   UNL     1       4.908  14.685  18.033  0.00  0.00    +0.000 A 
ATOM     28  C   UNL     1       3.698  15.166  18.539  0.00  0.00    +0.000 A 
ATOM     29  C   UNL     1       3.672  16.350  19.267  0.00  0.00    +0.000 A 
ATOM     30  C   UNL     1       4.856  17.043  19.506  0.00  0.00    +0.000 A 
ATOM     31  C   UNL     1       6.064  16.556  19.000  0.00  0.00    +0.000 A 
ENDBRANCH  25  26
ENDBRANCH  20  23
ENDBRANCH  18  19
ENDBRANCH  17  18
ENDBRANCH   1  17
TORSDOF 9
ENDMDL
MODEL 7
REMARK VINA RESULT:      -7.4      2.599     11.588
REMARK  Name = 
REMARK  10 active torsions:
REMARK  status: ('A' for Active; 'I' for Inactive)
REMARK    1  A    between atoms: C_1  and  O_2
REMARK    2  A    between atoms: O_2  and  C_3
REMARK    3  A    between atoms: C_8  and  N_9
REMARK    4  A    between atoms: N_12  and  C_13
REMARK    5  A    between atoms: C_13  and  C_14
REMARK    6  A    between atoms: C_14  and  C_15
REMARK    7  A    between atoms: C_15  and  C_16
REMARK    8  A    between atoms: C_16  and  N_17
REMARK    9  A    between atoms: C_18  and  C_20
REMARK   10  A    between atoms: C_22  and  C_23
REMARK                            x       y       z     vdW  Elec       q    Type
REMARK                         _______ _______ _______ _____ _____    ______ ____
ROOT
ATOM      1  C   UNL     1       7.340   8.374  17.450  0.00  0.00    +0.000 C 
ENDROOT
BRANCH   1   2
ATOM      2  C   UNL     1       7.900   7.118  18.128  0.00  0.00    +0.000 C 
BRANCH   2   6
ATOM      3  N   UNL     1       4.870   5.129  18.276  0.00  0.00    +0.000 N 
ATOM      4  C   UNL     1       5.991   4.979  19.210  0.00  0.00    +0.000 C 
ATOM      5  C   UNL     1       7.307   4.800  18.418  0.00  0.00    +0.000 C 
ATOM      6  N   UNL     1       7.583   5.876  17.421  0.00  0.00    +0.000 NA
ATOM      7  C   UNL     1       6.404   5.999  16.537  0.00  0.00    +0.000 C 
ATOM      8  C   UNL     1       5.048   6.179  17.257  0.00  0.00    +0.000 C 
BRANCH   3  14
ATOM      9  C   UNL     1       2.628   4.692  19.252  0.00  0.00    +0.000 A 
ATOM     10  C   UNL     1       1.485   3.873  19.294  0.00  0.00    +0.000 A 
ATOM     11  C   UNL     1       1.369   2.759  18.474  0.00  0.00    +0.000 A 
ATOM     12  C   UNL     1       2.401   2.439  17.612  0.00  0.00    +0.000 A 
ATOM     13  C   UNL     1       3.545   3.240  17.568  0.00  0.00    +0.000 A 
ATOM     14  C   UNL     1       3.705   4.385  18.378  0.00  0.00    +0.000 A 
BRANCH   9  16
ATOM     15  C   UNL     1       2.268   6.999  19.649  0.00  0.00    +0.000 C 
ATOM     16  O   UNL     1       2.751   5.747  20.135  0.00  0.00    +0.000 OA
ENDBRANCH   9  16
ENDBRANCH   3  14
ENDBRANCH   2   6
ENDBRANCH   1   2
BRANCH   1  17
ATOM     17  C   UNL     1       8.238   9.583  17.691  0.00  0.00    +0.000 C 
BRANCH  17  18
ATOM     18  C   UNL     1       8.955   9.488  19.032  0.00  0.00    +0.000 C 
BRANCH  18  19
ATOM     19  N   UNL     1       9.776  10.633  19.277  0.00  0.00    +0.000 N 
ATOM     20  C   UNL     1       9.684  11.308  20.461  0.00  0.00    +0.000 C 
ATOM     21  O   UNL     1       8.916  10.996  21.373  0.00  0.00    +0.000 OA
ATOM     22  H   UNL     1      10.383  10.972  18.541  0.00  0.00    +0.000 HD
BRANCH  20  23
ATOM     23  C   UNL     1      10.582  12.466  20.577  0.00  0.00    +0.000 C 
ATOM     24  C   UNL     1      10.964  13.236  19.337  0.00  0.00    +0.000 C 
ATOM     25  C   UNL     1      10.025  13.863  20.346  0.00  0.00    +0.000 C 
BRANCH  25  26
ATOM     26  C   UNL     1      10.500  15.018  21.187  0.00  0.00    +0.000 A 
ATOM     27  C   UNL     1       9.924  15.262  22.444  0.00  0.00    +0.000 A 
ATOM     28  C   UNL     1      10.334  16.339  23.234  0.00  0.00    +0.000 A 
ATOM     29  C   UNL     1      11.337  17.190  22.780  0.00  0.00    +0.000 A 
ATOM     30  C   UNL     1      11.942  16.953  21.550  0.00  0.00    +0.000 A 
ATOM     31  C   UNL     1      11.531  15.872  20.765  0.00  0.00    +0.000 A 
ENDBRANCH  25  26
ENDBRANCH  20  23
ENDBRANCH  18  19
ENDBRANCH  17  18
ENDBRANCH   1  17
TORSDOF 9
ENDMDL
MODEL 8
REMARK VINA RESULT:      -7.3      3.183     11.130
REMARK  Name = 
REMARK  10 active torsions:
REMARK  status: ('A' for Active; 'I' for Inactive)
REMARK    1  A    between atoms: C_1  and  O_2
REMARK    2  A    between atoms: O_2  and  C_3
REMARK    3  A    between atoms: C_8  and  N_9
REMARK    4  A    between atoms: N_12  and  C_13
REMARK    5  A    between atoms: C_13  and  C_14
REMARK    6  A    between atoms: C_14  and  C_15
REMARK    7  A    between atoms: C_15  and  C_16
REMARK    8  A    between atoms: C_16  and  N_17
REMARK    9  A    between atoms: C_18  and  C_20
REMARK   10  A    between atoms: C_22  and  C_23
REMARK                            x       y       z     vdW  Elec       q    Type
REMARK                         _______ _______ _______ _____ _____    ______ ____
ROOT
ATOM      1  C   UNL     1       7.870   8.217  17.362  0.00  0.00    +0.000 C 
ENDROOT
BRANCH   1   2
ATOM      2  C   UNL     1       6.422   7.809  17.653  0.00  0.00    +0.000 C 
BRANCH   2   6
ATOM      3  N   UNL     1       4.146   5.325  19.001  0.00  0.00    +0.000 N 
ATOM      4  C   UNL     1       5.567   5.410  19.357  0.00  0.00    +0.000 C 
ATOM      5  C   UNL     1       6.425   5.435  18.070  0.00  0.00    +0.000 C 
ATOM      6  N   UNL     1       6.054   6.504  17.098  0.00  0.00    +0.000 NA
ATOM      7  C   UNL     1       4.607   6.386  16.811  0.00  0.00    +0.000 C 
ATOM      8  C   UNL     1       3.684   6.351  18.050  0.00  0.00    +0.000 C 
BRANCH   3  14
ATOM      9  C   UNL     1       3.085   3.080  19.058  0.00  0.00    +0.000 A 
ATOM     10  C   UNL     1       2.185   2.203  19.690  0.00  0.00    +0.000 A 
ATOM     11  C   UNL     1       1.489   2.585  20.827  0.00  0.00    +0.000 A 
ATOM     12  C   UNL     1       1.669   3.856  21.340  0.00  0.00    +0.000 A 
ATOM     13  C   UNL     1       2.553   4.739  20.716  0.00  0.00    +0.000 A 
ATOM     14  C   UNL     1       3.288   4.393  19.562  0.00  0.00    +0.000 A 
BRANCH   9  16
ATOM     15  C   UNL     1       2.984   3.019  16.693  0.00  0.00    +0.000 C 
ATOM     16  O   UNL     1       3.705   2.701  17.883  0.00  0.00    +0.000 OA
ENDBRANCH   9  16
ENDBRANCH   3  14
ENDBRANCH   2   6
ENDBRANCH   1   2
BRANCH   1  17
ATOM     17  C   UNL     1       8.609   8.593  18.643  0.00  0.00    +0.000 C 
BRANCH  17  18
ATOM     18  C   UNL     1       9.034  10.056  18.633  0.00  0.00    +0.000 C 
BRANCH  18  19
ATOM     19  N   UNL     1       9.175  10.577  19.957  0.00  0.00    +0.000 N 
ATOM     20  C   UNL     1       9.326  11.920  20.159  0.00  0.00    +0.000 C 
ATOM     21  O   UNL     1       9.355  12.752  19.251  0.00  0.00    +0.000 OA
ATOM     22  H   UNL     1       9.219   9.934  20.738  0.00  0.00    +0.000 HD
BRANCH  20  23
ATOM     23  C   UNL     1       9.463  12.315  21.568  0.00  0.00    +0.000 C 
ATOM     24  C   UNL     1       9.604  13.776  21.918  0.00  0.00    +0.000 C 
ATOM     25  C   UNL     1       8.316  13.050  22.247  0.00  0.00    +0.000 C 
BRANCH  25  26
ATOM     26  C   UNL     1       7.973  12.758  23.683  0.00  0.00    +0.000 A 
ATOM     27  C   UNL     1       7.092  11.712  24.001  0.00  0.00    +0.000 A 
ATOM     28  C   UNL     1       6.741  11.434  25.324  0.00  0.00    +0.000 A 
ATOM     29  C   UNL     1       7.276  12.197  26.358  0.00  0.00    +0.000 A 
ATOM     30  C   UNL     1       8.172  13.222  26.071  0.00  0.00    +0.000 A 
ATOM     31  C   UNL     1       8.522  13.494  24.745  0.00  0.00    +0.000 A 
ENDBRANCH  25  26
ENDBRANCH  20  23
ENDBRANCH  18  19
ENDBRANCH  17  18
ENDBRANCH   1  17
TORSDOF 9
ENDMDL
MODEL 9
REMARK VINA RESULT:      -7.2      6.802     10.181
REMARK  Name = 
REMARK  10 active torsions:
REMARK  status: ('A' for Active; 'I' for Inactive)
REMARK    1  A    between atoms: C_1  and  O_2
REMARK    2  A    between atoms: O_2  and  C_3
REMARK    3  A    between atoms: C_8  and  N_9
REMARK    4  A    between atoms: N_12  and  C_13
REMARK    5  A    between atoms: C_13  and  C_14
REMARK    6  A    between atoms: C_14  and  C_15
REMARK    7  A    between atoms: C_15  and  C_16
REMARK    8  A    between atoms: C_16  and  N_17
REMARK    9  A    between atoms: C_18  and  C_20
REMARK   10  A    between atoms: C_22  and  C_23
REMARK                            x       y       z     vdW  Elec       q    Type
REMARK                         _______ _______ _______ _____ _____    ______ ____
ROOT
ATOM      1  C   UNL     1       2.509   3.975  20.767  0.00  0.00    +0.000 C 
ENDROOT
BRANCH   1   2
ATOM      2  C   UNL     1       1.845   2.773  20.087  0.00  0.00    +0.000 C 
BRANCH   2   6
ATOM      3  N   UNL     1       4.329   3.758  17.633  0.00  0.00    +0.000 N 
ATOM      4  C   UNL     1       2.926   3.479  17.308  0.00  0.00    +0.000 C 
ATOM      5  C   UNL     1       2.526   2.097  17.876  0.00  0.00    +0.000 C 
ATOM      6  N   UNL     1       2.778   1.930  19.337  0.00  0.00    +0.000 NA
ATOM      7  C   UNL     1       4.196   2.261  19.602  0.00  0.00    +0.000 C 
ATOM      8  C   UNL     1       4.672   3.629  19.061  0.00  0.00    +0.000 C 
BRANCH   3  14
ATOM      9  C   UNL     1       6.163   5.247  16.864  0.00  0.00    +0.000 A 
ATOM     10  C   UNL     1       7.058   5.603  15.839  0.00  0.00    +0.000 A 
ATOM     11  C   UNL     1       7.089   4.909  14.639  0.00  0.00    +0.000 A 
ATOM     12  C   UNL     1       6.212   3.858  14.438  0.00  0.00    +0.000 A 
ATOM     13  C   UNL     1       5.312   3.501  15.445  0.00  0.00    +0.000 A 
ATOM     14  C   UNL     1       5.250   4.174  16.684  0.00  0.00    +0.000 A 
BRANCH   9  16
ATOM     15  C   UNL     1       7.359   6.263  18.638  0.00  0.00    +0.000 C 
ATOM     16  O   UNL     1       6.100   6.005  18.017  0.00  0.00    +0.000 OA
ENDBRANCH   9  16
ENDBRANCH   3  14
ENDBRANCH   2   6
ENDBRANCH   1   2
BRANCH   1  17
ATOM     17  C   UNL     1       1.611   5.207  20.719  0.00  0.00    +0.000 C 
BRANCH  17  18
ATOM     18  C   UNL     1       2.389   6.450  20.303  0.00  0.00    +0.000 C 
BRANCH  18  19
ATOM     19  N   UNL     1       1.552   7.608  20.256  0.00  0.00    +0.000 N 
ATOM     20  C   UNL     1       1.717   8.539  19.270  0.00  0.00    +0.000 C 
ATOM     21  O   UNL     1       2.566   8.457  18.382  0.00  0.00    +0.000 OA
ATOM     22  H   UNL     1       0.876   7.759  20.994  0.00  0.00    +0.000 HD
BRANCH  20  23
ATOM     23  C   UNL     1       0.792   9.680  19.344  0.00  0.00    +0.000 C 
ATOM     24  C   UNL     1       1.155  10.975  18.661  0.00  0.00    +0.000 C 
ATOM     25  C   UNL     1       0.048  10.114  18.090  0.00  0.00    +0.000 C 
BRANCH  25  26
ATOM     26  C   UNL     1      -1.380  10.583  18.179  0.00  0.00    +0.000 A 
ATOM     27  C   UNL     1      -1.716  11.674  18.997  0.00  0.00    +0.000 A 
ATOM     28  C   UNL     1      -3.036  12.116  19.113  0.00  0.00    +0.000 A 
ATOM     29  C   UNL     1      -4.047  11.475  18.403  0.00  0.00    +0.000 A 
ATOM     30  C   UNL     1      -3.735  10.408  17.564  0.00  0.00    +0.000 A 
ATOM     31  C   UNL     1      -2.413   9.973  17.449  0.00  0.00    +0.000 A 
ENDBRANCH  25  26
ENDBRANCH  20  23
ENDBRANCH  18  19
ENDBRANCH  17  18
ENDBRANCH   1  17
TORSDOF 9
ENDMDL
