MODEL 1
REMARK VINA RESULT:      -8.0      0.000      0.000
REMARK  Name = 
REMARK  10 active torsions:
REMARK  status: ('A' for Active; 'I' for Inactive)
REMARK    1  A    between atoms: C_2  and  C_21
REMARK    2  A    between atoms: N_3  and  C_4
REMARK    3  A    between atoms: C_4  and  C_5
REMARK    4  A    between atoms: C_5  and  C_6
REMARK    5  A    between atoms: C_6  and  C_7
REMARK    6  A    between atoms: C_7  and  C_8
REMARK    7  A    between atoms: C_8  and  C_9
REMARK    8  A    between atoms: C_9  and  N_10
REMARK    9  A    between atoms: C_12  and  C_13
REMARK   10  A    between atoms: C_26  and  C_27
REMARK                            x       y       z     vdW  Elec       q    Type
REMARK                         _______ _______ _______ _____ _____    ______ ____
ROOT
ATOM      1  C   UNL     1       6.800   5.555  17.410  0.00  0.00    +0.000 C 
ENDROOT
BRANCH   1   4
ATOM      2  O   UNL     1       5.699   4.718  19.811  0.00  0.00    +0.000 OA
ATOM      3  C   UNL     1       5.074   4.483  18.785  0.00  0.00    +0.000 C 
ATOM      4  N   UNL     1       5.529   4.892  17.546  0.00  0.00    +0.000 N 
ATOM      5  H   UNL     1       4.953   4.809  16.721  0.00  0.00    +0.000 HD
BRANCH   3   6
ATOM      6  C   UNL     1       3.770   3.750  18.804  0.00  0.00    +0.000 A 
ATOM      7  C   UNL     1       3.839   2.341  18.710  0.00  0.00    +0.000 A 
ATOM      8  C   UNL     1       2.690   1.565  18.617  0.00  0.00    +0.000 A 
ATOM      9  C   UNL     1       1.452   2.184  18.611  0.00  0.00    +0.000 A 
ATOM     10  C   UNL     1       1.367   3.574  18.733  0.00  0.00    +0.000 A 
ATOM     11  C   UNL     1       2.510   4.408  18.832  0.00  0.00    +0.000 A 
BRANCH  11  12
ATOM     12  C   UNL     1       2.298   5.883  18.970  0.00  0.00    +0.000 A 
ATOM     13  C   UNL     1       1.935   6.490  20.184  0.00  0.00    +0.000 A 
ATOM     14  C   UNL     1       1.797   7.878  20.310  0.00  0.00    +0.000 A 
ATOM     15  C   UNL     1       1.949   8.697  19.198  0.00  0.00    +0.000 A 
ATOM     16  C   UNL     1       2.250   8.129  17.967  0.00  0.00    +0.000 A 
ATOM     17  C   UNL     1       2.435   6.744  17.860  0.00  0.00    +0.000 A 
ENDBRANCH  11  12
ENDBRANCH   3   6
ENDBRANCH   1   4
BRANCH   1  18
ATOM     18  C   UNL     1       6.644   7.073  17.388  0.00  0.00    +0.000 C 
BRANCH  18  19
ATOM     19  C   UNL     1       7.986   7.785  17.236  0.00  0.00    +0.000 C 
BRANCH  19  20
ATOM     20  C   UNL     1       8.402   8.510  18.515  0.00  0.00    +0.000 C 
BRANCH  20  21
ATOM     21  C   UNL     1       8.592   9.999  18.276  0.00  0.00    +0.000 C 
BRANCH  21  22
ATOM     22  C   UNL     1       9.493  10.596  19.351  0.00  0.00    +0.000 C 
BRANCH  22  23
ATOM     23  N   UNL     1      10.272  11.703  18.833  0.00  0.00    +0.000 N 
ATOM     24  C   UNL     1      10.175  13.010  19.194  0.00  0.00    +0.000 A 
ATOM     25  C   UNL     1      11.082  13.638  18.370  0.00  0.00    +0.000 A 
ATOM     26  N   UNL     1      11.681  12.697  17.566  0.00  0.00    +0.000 NA
ATOM     27  N   UNL     1      11.168  11.515  17.868  0.00  0.00    +0.000 NA
BRANCH  25  28
ATOM     28  C   UNL     1      11.373  15.054  18.321  0.00  0.00    +0.000 A 
ATOM     29  C   UNL     1      12.055  15.719  19.347  0.00  0.00    +0.000 A 
ATOM     30  C   UNL     1      12.306  17.085  19.247  0.00  0.00    +0.000 A 
ATOM     31  C   UNL     1      11.866  17.754  18.118  0.00  0.00    +0.000 A 
ATOM     32  N   UNL     1      11.209  17.155  17.104  0.00  0.00    +0.000 NA
ATOM     33  C   UNL     1      10.977  15.822  17.228  0.00  0.00    +0.000 A 
ENDBRANCH  25  28
ENDBRANCH  22  23
ENDBRANCH  21  22
ENDBRANCH  20  21
ENDBRANCH  19  20
ENDBRANCH  18  19
ENDBRANCH   1  18
TORSDOF 10
ENDMDL
MODEL 2
REMARK VINA RESULT:      -7.8      1.421      1.810
REMARK  Name = 
REMARK  10 active torsions:
REMARK  status: ('A' for Active; 'I' for Inactive)
REMARK    1  A    between atoms: C_2  and  C_21
REMARK    2  A    between atoms: N_3  and  C_4
REMARK    3  A    between atoms: C_4  and  C_5
REMARK    4  A    between atoms: C_5  and  C_6
REMARK    5  A    between atoms: C_6  and  C_7
REMARK    6  A    between atoms: C_7  and  C_8
REMARK    7  A    between atoms: C_8  and  C_9
REMARK    8  A    between atoms: C_9  and  N_10
REMARK    9  A    between atoms: C_12  and  C_13
REMARK   10  A    between atoms: C_26  and  C_27
REMARK                            x       y       z     vdW  Elec       q    Type
REMARK                         _______ _______ _______ _____ _____    ______ ____
ROOT
ATOM      1  C   UNL     1       6.397   5.889  18.246  0.00  0.00    +0.000 C 
ENDROOT
BRANCH   1   4
ATOM      2  O   UNL     1       4.404   4.173  17.372  0.00  0.00    +0.000 OA
ATOM      3  C   UNL     1       4.362   4.549  18.537  0.00  0.00    +0.000 C 
ATOM      4  N   UNL     1       5.331   5.378  19.069  0.00  0.00    +0.000 N 
ATOM      5  H   UNL     1       5.363   5.582  20.058  0.00  0.00    +0.000 HD
BRANCH   3   6
ATOM      6  C   UNL     1       3.269   4.126  19.466  0.00  0.00    +0.000 A 
ATOM      7  C   UNL     1       3.309   2.786  19.916  0.00  0.00    +0.000 A 
ATOM      8  C   UNL     1       2.291   2.256  20.700  0.00  0.00    +0.000 A 
ATOM      9  C   UNL     1       1.214   3.055  21.045  0.00  0.00    +0.000 A 
ATOM     10  C   UNL     1       1.176   4.390  20.632  0.00  0.00    +0.000 A 
ATOM     11  C   UNL     1       2.190   4.976  19.833  0.00  0.00    +0.000 A 
BRANCH  11  12
ATOM     12  C   UNL     1       2.049   6.419  19.460  0.00  0.00    +0.000 A 
ATOM     13  C   UNL     1       2.327   6.902  18.170  0.00  0.00    +0.000 A 
ATOM     14  C   UNL     1       2.135   8.245  17.822  0.00  0.00    +0.000 A 
ATOM     15  C   UNL     1       1.725   9.162  18.781  0.00  0.00    +0.000 A 
ATOM     16  C   UNL     1       1.496   8.733  20.082  0.00  0.00    +0.000 A 
ATOM     17  C   UNL     1       1.643   7.380  20.411  0.00  0.00    +0.000 A 
ENDBRANCH  11  12
ENDBRANCH   3   6
ENDBRANCH   1   4
BRANCH   1  18
ATOM     18  C   UNL     1       7.717   5.951  19.009  0.00  0.00    +0.000 C 
BRANCH  18  19
ATOM     19  C   UNL     1       8.487   7.238  18.719  0.00  0.00    +0.000 C 
BRANCH  19  20
ATOM     20  C   UNL     1       7.756   8.134  17.720  0.00  0.00    +0.000 C 
BRANCH  20  21
ATOM     21  C   UNL     1       8.135   9.596  17.900  0.00  0.00    +0.000 C 
BRANCH  21  22
ATOM     22  C   UNL     1       9.111   9.751  19.059  0.00  0.00    +0.000 C 
BRANCH  22  23
ATOM     23  N   UNL     1       9.439  11.143  19.290  0.00  0.00    +0.000 N 
ATOM     24  C   UNL     1       9.770  12.071  18.353  0.00  0.00    +0.000 A 
ATOM     25  C   UNL     1      10.041  13.196  19.098  0.00  0.00    +0.000 A 
ATOM     26  N   UNL     1       9.860  12.905  20.429  0.00  0.00    +0.000 NA
ATOM     27  N   UNL     1       9.490  11.637  20.524  0.00  0.00    +0.000 NA
BRANCH  25  28
ATOM     28  C   UNL     1      10.463  14.486  18.598  0.00  0.00    +0.000 A 
ATOM     29  C   UNL     1      10.421  15.647  19.379  0.00  0.00    +0.000 A 
ATOM     30  C   UNL     1      10.838  16.864  18.844  0.00  0.00    +0.000 A 
ATOM     31  C   UNL     1      11.288  16.888  17.536  0.00  0.00    +0.000 A 
ATOM     32  N   UNL     1      11.349  15.795  16.747  0.00  0.00    +0.000 NA
ATOM     33  C   UNL     1      10.936  14.623  17.294  0.00  0.00    +0.000 A 
ENDBRANCH  25  28
ENDBRANCH  22  23
ENDBRANCH  21  22
ENDBRANCH  20  21
ENDBRANCH  19  20
ENDBRANCH  18  19
ENDBRANCH   1  18
TORSDOF 10
ENDMDL
MODEL 3
REMARK VINA RESULT:      -7.6      6.661      9.525
REMARK  Name = 
REMARK  10 active torsions:
REMARK  status: ('A' for Active; 'I' for Inactive)
REMARK    1  A    between atoms: C_2  and  C_21
REMARK    2  A    between atoms: N_3  and  C_4
REMARK    3  A    between atoms: C_4  and  C_5
REMARK    4  A    between atoms: C_5  and  C_6
REMARK    5  A    between atoms: C_6  and  C_7
REMARK    6  A    between atoms: C_7  and  C_8
REMARK    7  A    between atoms: C_8  and  C_9
REMARK    8  A    between atoms: C_9  and  N_10
REMARK    9  A    between atoms: C_12  and  C_13
REMARK   10  A    between atoms: C_26  and  C_27
REMARK                            x       y       z     vdW  Elec       q    Type
REMARK                         _______ _______ _______ _____ _____    ______ ____
ROOT
ATOM      1  C   UNL     1       1.967   7.917  18.224  0.00  0.00    +0.000 C 
ENDROOT
BRANCH   1   4
ATOM      2  O   UNL     1       1.875  10.663  17.858  0.00  0.00    +0.000 OA
ATOM      3  C   UNL     1       1.191  10.184  18.753  0.00  0.00    +0.000 C 
ATOM      4  N   UNL     1       1.148   8.823  18.987  0.00  0.00    +0.000 N 
ATOM      5  H   UNL     1       0.489   8.422  19.639  0.00  0.00    +0.000 HD
BRANCH   3   6
ATOM      6  C   UNL     1       0.345  11.037  19.644  0.00  0.00    +0.000 A 
ATOM      7  C   UNL     1       0.956  11.509  20.828  0.00  0.00    +0.000 A 
ATOM      8  C   UNL     1       0.236  12.226  21.778  0.00  0.00    +0.000 A 
ATOM      9  C   UNL     1      -1.107  12.478  21.562  0.00  0.00    +0.000 A 
ATOM     10  C   UNL     1      -1.718  12.043  20.382  0.00  0.00    +0.000 A 
ATOM     11  C   UNL     1      -1.026  11.310  19.383  0.00  0.00    +0.000 A 
BRANCH  11  12
ATOM     12  C   UNL     1      -1.779  10.906  18.155  0.00  0.00    +0.000 A 
ATOM     13  C   UNL     1      -1.937  11.753  17.045  0.00  0.00    +0.000 A 
ATOM     14  C   UNL     1      -2.595  11.338  15.881  0.00  0.00    +0.000 A 
ATOM     15  C   UNL     1      -3.180  10.080  15.822  0.00  0.00    +0.000 A 
ATOM     16  C   UNL     1      -3.096   9.235  16.921  0.00  0.00    +0.000 A 
ATOM     17  C   UNL     1      -2.394   9.638  18.063  0.00  0.00    +0.000 A 
ENDBRANCH  11  12
ENDBRANCH   3   6
ENDBRANCH   1   4
BRANCH   1  18
ATOM     18  C   UNL     1       2.769   6.985  19.127  0.00  0.00    +0.000 C 
BRANCH  18  19
ATOM     19  C   UNL     1       1.955   6.510  20.329  0.00  0.00    +0.000 C 
BRANCH  19  20
ATOM     20  C   UNL     1       1.526   5.050  20.194  0.00  0.00    +0.000 C 
BRANCH  20  21
ATOM     21  C   UNL     1       2.324   4.146  21.121  0.00  0.00    +0.000 C 
BRANCH  21  22
ATOM     22  C   UNL     1       3.020   3.051  20.322  0.00  0.00    +0.000 C 
BRANCH  22  23
ATOM     23  N   UNL     1       4.071   3.595  19.485  0.00  0.00    +0.000 N 
ATOM     24  C   UNL     1       4.113   3.599  18.127  0.00  0.00    +0.000 A 
ATOM     25  C   UNL     1       5.333   4.171  17.845  0.00  0.00    +0.000 A 
ATOM     26  N   UNL     1       5.961   4.487  19.027  0.00  0.00    +0.000 NA
ATOM     27  N   UNL     1       5.166   4.124  20.022  0.00  0.00    +0.000 NA
BRANCH  25  28
ATOM     28  C   UNL     1       5.901   4.404  16.536  0.00  0.00    +0.000 A 
ATOM     29  C   UNL     1       5.376   3.827  15.373  0.00  0.00    +0.000 A 
ATOM     30  C   UNL     1       5.966   4.085  14.138  0.00  0.00    +0.000 A 
ATOM     31  C   UNL     1       7.072   4.917  14.098  0.00  0.00    +0.000 A 
ATOM     32  N   UNL     1       7.611   5.495  15.191  0.00  0.00    +0.000 NA
ATOM     33  C   UNL     1       7.015   5.226  16.381  0.00  0.00    +0.000 A 
ENDBRANCH  25  28
ENDBRANCH  22  23
ENDBRANCH  21  22
ENDBRANCH  20  21
ENDBRANCH  19  20
ENDBRANCH  18  19
ENDBRANCH   1  18
TORSDOF 10
ENDMDL
MODEL 4
REMARK VINA RESULT:      -7.6      5.430      8.365
REMARK  Name = 
REMARK  10 active torsions:
REMARK  status: ('A' for Active; 'I' for Inactive)
REMARK    1  A    between atoms: C_2  and  C_21
REMARK    2  A    between atoms: N_3  and  C_4
REMARK    3  A    between atoms: C_4  and  C_5
REMARK    4  A    between atoms: C_5  and  C_6
REMARK    5  A    between atoms: C_6  and  C_7
REMARK    6  A    between atoms: C_7  and  C_8
REMARK    7  A    between atoms: C_8  and  C_9
REMARK    8  A    between atoms: C_9  and  N_10
REMARK    9  A    between atoms: C_12  and  C_13
REMARK   10  A    between atoms: C_26  and  C_27
REMARK                            x       y       z     vdW  Elec       q    Type
REMARK                         _______ _______ _______ _____ _____    ______ ____
ROOT
ATOM      1  C   UNL     1       3.459   2.474  18.638  0.00  0.00    +0.000 C 
ENDROOT
BRANCH   1   4
ATOM      2  O   UNL     1       4.499   4.970  18.033  0.00  0.00    +0.000 OA
ATOM      3  C   UNL     1       4.673   4.069  17.223  0.00  0.00    +0.000 C 
ATOM      4  N   UNL     1       4.219   2.785  17.454  0.00  0.00    +0.000 N 
ATOM      5  H   UNL     1       4.473   2.019  16.846  0.00  0.00    +0.000 HD
BRANCH   3   6
ATOM      6  C   UNL     1       5.399   4.293  15.934  0.00  0.00    +0.000 A 
ATOM      7  C   UNL     1       4.885   3.624  14.798  0.00  0.00    +0.000 A 
ATOM      8  C   UNL     1       5.536   3.679  13.571  0.00  0.00    +0.000 A 
ATOM      9  C   UNL     1       6.713   4.398  13.459  0.00  0.00    +0.000 A 
ATOM     10  C   UNL     1       7.217   5.088  14.566  0.00  0.00    +0.000 A 
ATOM     11  C   UNL     1       6.589   5.065  15.837  0.00  0.00    +0.000 A 
BRANCH  11  12
ATOM     12  C   UNL     1       7.212   5.851  16.947  0.00  0.00    +0.000 A 
ATOM     13  C   UNL     1       7.453   7.233  16.860  0.00  0.00    +0.000 A 
ATOM     14  C   UNL     1       7.983   7.964  17.929  0.00  0.00    +0.000 A 
ATOM     15  C   UNL     1       8.357   7.316  19.100  0.00  0.00    +0.000 A 
ATOM     16  C   UNL     1       8.189   5.942  19.203  0.00  0.00    +0.000 A 
ATOM     17  C   UNL     1       7.612   5.224  18.148  0.00  0.00    +0.000 A 
ENDBRANCH  11  12
ENDBRANCH   3   6
ENDBRANCH   1   4
BRANCH   1  18
ATOM     18  C   UNL     1       1.958   2.509  18.369  0.00  0.00    +0.000 C 
BRANCH  18  19
ATOM     19  C   UNL     1       1.332   3.839  18.786  0.00  0.00    +0.000 C 
BRANCH  19  20
ATOM     20  C   UNL     1       1.547   4.137  20.269  0.00  0.00    +0.000 C 
BRANCH  20  21
ATOM     21  C   UNL     1       1.667   5.631  20.526  0.00  0.00    +0.000 C 
BRANCH  21  22
ATOM     22  C   UNL     1       2.771   6.230  19.664  0.00  0.00    +0.000 C 
BRANCH  22  23
ATOM     23  N   UNL     1       2.350   7.476  19.058  0.00  0.00    +0.000 N 
ATOM     24  C   UNL     1       1.519   8.407  19.597  0.00  0.00    +0.000 A 
ATOM     25  C   UNL     1       1.404   9.350  18.601  0.00  0.00    +0.000 A 
ATOM     26  N   UNL     1       2.163   8.956  17.524  0.00  0.00    +0.000 NA
ATOM     27  N   UNL     1       2.736   7.802  17.827  0.00  0.00    +0.000 NA
BRANCH  25  28
ATOM     28  C   UNL     1       0.614  10.561  18.639  0.00  0.00    +0.000 A 
ATOM     29  C   UNL     1      -0.774  10.561  18.457  0.00  0.00    +0.000 A 
ATOM     30  C   UNL     1      -1.484  11.758  18.501  0.00  0.00    +0.000 A 
ATOM     31  C   UNL     1      -0.784  12.930  18.726  0.00  0.00    +0.000 A 
ATOM     32  N   UNL     1       0.552  12.979  18.909  0.00  0.00    +0.000 NA
ATOM     33  C   UNL     1       1.219  11.797  18.861  0.00  0.00    +0.000 A 
ENDBRANCH  25  28
ENDBRANCH  22  23
ENDBRANCH  21  22
ENDBRANCH  20  21
ENDBRANCH  19  20
ENDBRANCH  18  19
ENDBRANCH   1  18
TORSDOF 10
ENDMDL
MODEL 5
REMARK VINA RESULT:      -7.6      4.187      6.078
REMARK  Name = 
REMARK  10 active torsions:
REMARK  status: ('A' for Active; 'I' for Inactive)
REMARK    1  A    between atoms: C_2  and  C_21
REMARK    2  A    between atoms: N_3  and  C_4
REMARK    3  A    between atoms: C_4  and  C_5
REMARK    4  A    between atoms: C_5  and  C_6
REMARK    5  A    between atoms: C_6  and  C_7
REMARK    6  A    between atoms: C_7  and  C_8
REMARK    7  A    between atoms: C_8  and  C_9
REMARK    8  A    between atoms: C_9  and  N_10
REMARK    9  A    between atoms: C_12  and  C_13
REMARK   10  A    between atoms: C_26  and  C_27
REMARK                            x       y       z     vdW  Elec       q    Type
REMARK                         _______ _______ _______ _____ _____    ______ ____
ROOT
ATOM      1  C   UNL     1       8.184   8.925  18.095  0.00  0.00    +0.000 C 
ENDROOT
BRANCH   1   4
ATOM      2  O   UNL     1       7.632   6.291  18.754  0.00  0.00    +0.000 OA
ATOM      3  C   UNL     1       7.308   6.679  17.640  0.00  0.00    +0.000 C 
ATOM      4  N   UNL     1       7.514   7.985  17.235  0.00  0.00    +0.000 N 
ATOM      5  H   UNL     1       7.133   8.333  16.367  0.00  0.00    +0.000 HD
BRANCH   3   6
ATOM      6  C   UNL     1       6.656   5.773  16.644  0.00  0.00    +0.000 A 
ATOM      7  C   UNL     1       7.495   5.234  15.641  0.00  0.00    +0.000 A 
ATOM      8  C   UNL     1       6.980   4.461  14.607  0.00  0.00    +0.000 A 
ATOM      9  C   UNL     1       5.619   4.217  14.554  0.00  0.00    +0.000 A 
ATOM     10  C   UNL     1       4.782   4.718  15.556  0.00  0.00    +0.000 A 
ATOM     11  C   UNL     1       5.259   5.510  16.631  0.00  0.00    +0.000 A 
BRANCH  11  12
ATOM     12  C   UNL     1       4.273   5.983  17.652  0.00  0.00    +0.000 A 
ATOM     13  C   UNL     1       3.939   5.234  18.793  0.00  0.00    +0.000 A 
ATOM     14  C   UNL     1       3.058   5.717  19.768  0.00  0.00    +0.000 A 
ATOM     15  C   UNL     1       2.425   6.941  19.591  0.00  0.00    +0.000 A 
ATOM     16  C   UNL     1       2.684   7.685  18.447  0.00  0.00    +0.000 A 
ATOM     17  C   UNL     1       3.604   7.218  17.501  0.00  0.00    +0.000 A 
ENDBRANCH  11  12
ENDBRANCH   3   6
ENDBRANCH   1   4
BRANCH   1  18
ATOM     18  C   UNL     1       7.950  10.364  17.648  0.00  0.00    +0.000 C 
BRANCH  18  19
ATOM     19  C   UNL     1       9.004  11.318  18.207  0.00  0.00    +0.000 C 
BRANCH  19  20
ATOM     20  C   UNL     1       9.969  10.615  19.160  0.00  0.00    +0.000 C 
BRANCH  20  21
ATOM     21  C   UNL     1       9.589  10.849  20.613  0.00  0.00    +0.000 C 
BRANCH  21  22
ATOM     22  C   UNL     1       9.404  12.338  20.879  0.00  0.00    +0.000 C 
BRANCH  22  23
ATOM     23  N   UNL     1       8.769  12.571  22.160  0.00  0.00    +0.000 N 
ATOM     24  C   UNL     1       8.142  11.651  22.940  0.00  0.00    +0.000 A 
ATOM     25  C   UNL     1       7.672  12.395  23.999  0.00  0.00    +0.000 A 
ATOM     26  N   UNL     1       8.034  13.709  23.817  0.00  0.00    +0.000 NA
ATOM     27  N   UNL     1       8.709  13.793  22.681  0.00  0.00    +0.000 NA
BRANCH  25  28
ATOM     28  C   UNL     1       6.907  11.912  25.127  0.00  0.00    +0.000 A 
ATOM     29  C   UNL     1       7.320  12.095  26.452  0.00  0.00    +0.000 A 
ATOM     30  C   UNL     1       6.544  11.606  27.500  0.00  0.00    +0.000 A 
ATOM     31  C   UNL     1       5.369  10.942  27.194  0.00  0.00    +0.000 A 
ATOM     32  N   UNL     1       4.930  10.743  25.933  0.00  0.00    +0.000 NA
ATOM     33  C   UNL     1       5.707  11.231  24.932  0.00  0.00    +0.000 A 
ENDBRANCH  25  28
ENDBRANCH  22  23
ENDBRANCH  21  22
ENDBRANCH  20  21
ENDBRANCH  19  20
ENDBRANCH  18  19
ENDBRANCH   1  18
TORSDOF 10
ENDMDL
MODEL 6
REMARK VINA RESULT:      -7.6      6.965     10.296
REMARK  Name = 
REMARK  10 active torsions:
REMARK  status: ('A' for Active; 'I' for Inactive)
REMARK    1  A    between atoms: C_2  and  C_21
REMARK    2  A    between atoms: N_3  and  C_4
REMARK    3  A    between atoms: C_4  and  C_5
REMARK    4  A    between atoms: C_5  and  C_6
REMARK    5  A    between atoms: C_6  and  C_7
REMARK    6  A    between atoms: C_7  and  C_8
REMARK    7  A    between atoms: C_8  and  C_9
REMARK    8  A    between atoms: C_9  and  N_10
REMARK    9  A    between atoms: C_12  and  C_13
REMARK   10  A    between atoms: C_26  and  C_27
REMARK                            x       y       z     vdW  Elec       q    Type
REMARK                         _______ _______ _______ _____ _____    ______ ____
ROOT
ATOM      1  C   UNL     1       2.654   8.268  18.071  0.00  0.00    +0.000 C 
ENDROOT
BRANCH   1   4
ATOM      2  O   UNL     1       3.450   6.307  19.860  0.00  0.00    +0.000 OA
ATOM      3  C   UNL     1       2.848   5.952  18.855  0.00  0.00    +0.000 C 
ATOM      4  N   UNL     1       2.384   6.862  17.924  0.00  0.00    +0.000 N 
ATOM      5  H   UNL     1       1.781   6.577  17.166  0.00  0.00    +0.000 HD
BRANCH   3   6
ATOM      6  C   UNL     1       2.562   4.511  18.572  0.00  0.00    +0.000 A 
ATOM      7  C   UNL     1       1.337   4.004  19.067  0.00  0.00    +0.000 A 
ATOM      8  C   UNL     1       1.012   2.657  18.951  0.00  0.00    +0.000 A 
ATOM      9  C   UNL     1       1.906   1.794  18.343  0.00  0.00    +0.000 A 
ATOM     10  C   UNL     1       3.107   2.286  17.822  0.00  0.00    +0.000 A 
ATOM     11  C   UNL     1       3.482   3.650  17.914  0.00  0.00    +0.000 A 
BRANCH  11  12
ATOM     12  C   UNL     1       4.787   4.066  17.310  0.00  0.00    +0.000 A 
ATOM     13  C   UNL     1       5.919   4.375  18.083  0.00  0.00    +0.000 A 
ATOM     14  C   UNL     1       7.149   4.707  17.500  0.00  0.00    +0.000 A 
ATOM     15  C   UNL     1       7.261   4.809  16.119  0.00  0.00    +0.000 A 
ATOM     16  C   UNL     1       6.148   4.568  15.324  0.00  0.00    +0.000 A 
ATOM     17  C   UNL     1       4.935   4.189  15.911  0.00  0.00    +0.000 A 
ENDBRANCH  11  12
ENDBRANCH   3   6
ENDBRANCH   1   4
BRANCH   1  18
ATOM     18  C   UNL     1       1.437   9.116  17.718  0.00  0.00    +0.000 C 
BRANCH  18  19
ATOM     19  C   UNL     1       0.843   9.808  18.944  0.00  0.00    +0.000 C 
BRANCH  19  20
ATOM     20  C   UNL     1       1.121   9.035  20.232  0.00  0.00    +0.000 C 
BRANCH  20  21
ATOM     21  C   UNL     1       0.411   9.660  21.422  0.00  0.00    +0.000 C 
BRANCH  21  22
ATOM     22  C   UNL     1       0.082  11.120  21.136  0.00  0.00    +0.000 C 
BRANCH  22  23
ATOM     23  N   UNL     1      -1.103  11.545  21.854  0.00  0.00    +0.000 N 
ATOM     24  C   UNL     1      -2.034  12.442  21.434  0.00  0.00    +0.000 A 
ATOM     25  C   UNL     1      -2.901  12.526  22.499  0.00  0.00    +0.000 A 
ATOM     26  N   UNL     1      -2.465  11.687  23.497  0.00  0.00    +0.000 NA
ATOM     27  N   UNL     1      -1.358  11.094  23.078  0.00  0.00    +0.000 NA
BRANCH  25  28
ATOM     28  C   UNL     1      -4.079  13.360  22.596  0.00  0.00    +0.000 A 
ATOM     29  C   UNL     1      -4.239  14.529  21.842  0.00  0.00    +0.000 A 
ATOM     30  C   UNL     1      -5.395  15.295  21.978  0.00  0.00    +0.000 A 
ATOM     31  C   UNL     1      -6.364  14.870  22.869  0.00  0.00    +0.000 A 
ATOM     32  N   UNL     1      -6.255  13.751  23.615  0.00  0.00    +0.000 NA
ATOM     33  C   UNL     1      -5.118  13.024  23.462  0.00  0.00    +0.000 A 
ENDBRANCH  25  28
ENDBRANCH  22  23
ENDBRANCH  21  22
ENDBRANCH  20  21
ENDBRANCH  19  20
ENDBRANCH  18  19
ENDBRANCH   1  18
TORSDOF 10
ENDMDL
MODEL 7
REMARK VINA RESULT:      -7.6      6.165     10.096
REMARK  Name = 
REMARK  10 active torsions:
REMARK  status: ('A' for Active; 'I' for Inactive)
REMARK    1  A    between atoms: C_2  and  C_21
REMARK    2  A    between atoms: N_3  and  C_4
REMARK    3  A    between atoms: C_4  and  C_5
REMARK    4  A    between atoms: C_5  and  C_6
REMARK    5  A    between atoms: C_6  and  C_7
REMARK    6  A    between atoms: C_7  and  C_8
REMARK    7  A    between atoms: C_8  and  C_9
REMARK    8  A    between atoms: C_9  and  N_10
REMARK    9  A    between atoms: C_12  and  C_13
REMARK   10  A    between atoms: C_26  and  C_27
REMARK                            x       y       z     vdW  Elec       q    Type
REMARK                         _______ _______ _______ _____ _____    ______ ____
ROOT
ATOM      1  C   UNL     1       0.797   7.472  21.448  0.00  0.00    +0.000 C 
ENDROOT
BRANCH   1   4
ATOM      2  O   UNL     1       1.445   9.724  22.927  0.00  0.00    +0.000 OA
ATOM      3  C   UNL     1       0.425   9.760  22.252  0.00  0.00    +0.000 C 
ATOM      4  N   UNL     1       0.040   8.697  21.457  0.00  0.00    +0.000 N 
ATOM      5  H   UNL     1      -0.729   8.778  20.807  0.00  0.00    +0.000 HD
BRANCH   3   6
ATOM      6  C   UNL     1      -0.467  10.961  22.229  0.00  0.00    +0.000 A 
ATOM      7  C   UNL     1      -1.466  11.022  23.228  0.00  0.00    +0.000 A 
ATOM      8  C   UNL     1      -2.413  12.039  23.244  0.00  0.00    +0.000 A 
ATOM      9  C   UNL     1      -2.381  13.011  22.258  0.00  0.00    +0.000 A 
ATOM     10  C   UNL     1      -1.381  12.980  21.282  0.00  0.00    +0.000 A 
ATOM     11  C   UNL     1      -0.392  11.965  21.225  0.00  0.00    +0.000 A 
BRANCH  11  12
ATOM     12  C   UNL     1       0.636  12.040  20.140  0.00  0.00    +0.000 A 
ATOM     13  C   UNL     1       1.479  13.151  19.966  0.00  0.00    +0.000 A 
ATOM     14  C   UNL     1       2.475  13.181  18.983  0.00  0.00    +0.000 A 
ATOM     15  C   UNL     1       2.609  12.123  18.093  0.00  0.00    +0.000 A 
ATOM     16  C   UNL     1       1.755  11.032  18.195  0.00  0.00    +0.000 A 
ATOM     17  C   UNL     1       0.794  10.987  19.213  0.00  0.00    +0.000 A 
ENDBRANCH  11  12
ENDBRANCH   3   6
ENDBRANCH   1   4
BRANCH   1  18
ATOM     18  C   UNL     1       1.813   7.445  20.311  0.00  0.00    +0.000 C 
BRANCH  18  19
ATOM     19  C   UNL     1       2.281   6.026  19.992  0.00  0.00    +0.000 C 
BRANCH  19  20
ATOM     20  C   UNL     1       1.490   4.973  20.765  0.00  0.00    +0.000 C 
BRANCH  20  21
ATOM     21  C   UNL     1       2.336   3.744  21.061  0.00  0.00    +0.000 C 
BRANCH  21  22
ATOM     22  C   UNL     1       2.069   2.656  20.028  0.00  0.00    +0.000 C 
BRANCH  22  23
ATOM     23  N   UNL     1       2.675   2.978  18.752  0.00  0.00    +0.000 N 
ATOM     24  C   UNL     1       3.966   3.343  18.530  0.00  0.00    +0.000 A 
ATOM     25  C   UNL     1       4.002   3.588  17.176  0.00  0.00    +0.000 A 
ATOM     26  N   UNL     1       2.753   3.359  16.648  0.00  0.00    +0.000 NA
ATOM     27  N   UNL     1       1.954   2.984  17.635  0.00  0.00    +0.000 NA
BRANCH  25  28
ATOM     28  C   UNL     1       5.142   4.030  16.404  0.00  0.00    +0.000 A 
ATOM     29  C   UNL     1       5.116   4.121  15.007  0.00  0.00    +0.000 A 
ATOM     30  C   UNL     1       6.246   4.550  14.315  0.00  0.00    +0.000 A 
ATOM     31  C   UNL     1       7.378   4.877  15.041  0.00  0.00    +0.000 A 
ATOM     32  N   UNL     1       7.448   4.807  16.387  0.00  0.00    +0.000 NA
ATOM     33  C   UNL     1       6.332   4.385  17.035  0.00  0.00    +0.000 A 
ENDBRANCH  25  28
ENDBRANCH  22  23
ENDBRANCH  21  22
ENDBRANCH  20  21
ENDBRANCH  19  20
ENDBRANCH  18  19
ENDBRANCH   1  18
TORSDOF 10
ENDMDL
MODEL 8
REMARK VINA RESULT:      -7.6      6.976     10.898
REMARK  Name = 
REMARK  10 active torsions:
REMARK  status: ('A' for Active; 'I' for Inactive)
REMARK    1  A    between atoms: C_2  and  C_21
REMARK    2  A    between atoms: N_3  and  C_4
REMARK    3  A    between atoms: C_4  and  C_5
REMARK    4  A    between atoms: C_5  and  C_6
REMARK    5  A    between atoms: C_6  and  C_7
REMARK    6  A    between atoms: C_7  and  C_8
REMARK    7  A    between atoms: C_8  and  C_9
REMARK    8  A    between atoms: C_9  and  N_10
REMARK    9  A    between atoms: C_12  and  C_13
REMARK   10  A    between atoms: C_26  and  C_27
REMARK                            x       y       z     vdW  Elec       q    Type
REMARK                         _______ _______ _______ _____ _____    ______ ____
ROOT
ATOM      1  C   UNL     1       2.637   8.273  17.989  0.00  0.00    +0.000 C 
ENDROOT
BRANCH   1   4
ATOM      2  O   UNL     1       3.285   6.378  19.905  0.00  0.00    +0.000 OA
ATOM      3  C   UNL     1       2.756   5.987  18.873  0.00  0.00    +0.000 C 
ATOM      4  N   UNL     1       2.368   6.863  17.877  0.00  0.00    +0.000 N 
ATOM      5  H   UNL     1       1.820   6.552  17.087  0.00  0.00    +0.000 HD
BRANCH   3   6
ATOM      6  C   UNL     1       2.480   4.538  18.624  0.00  0.00    +0.000 A 
ATOM      7  C   UNL     1       1.265   4.031  19.141  0.00  0.00    +0.000 A 
ATOM      8  C   UNL     1       0.952   2.680  19.058  0.00  0.00    +0.000 A 
ATOM      9  C   UNL     1       1.848   1.811  18.461  0.00  0.00    +0.000 A 
ATOM     10  C   UNL     1       3.040   2.302  17.919  0.00  0.00    +0.000 A 
ATOM     11  C   UNL     1       3.404   3.672  17.978  0.00  0.00    +0.000 A 
BRANCH  11  12
ATOM     12  C   UNL     1       4.699   4.086  17.354  0.00  0.00    +0.000 A 
ATOM     13  C   UNL     1       5.848   4.378  18.108  0.00  0.00    +0.000 A 
ATOM     14  C   UNL     1       7.068   4.708  17.505  0.00  0.00    +0.000 A 
ATOM     15  C   UNL     1       7.155   4.825  16.124  0.00  0.00    +0.000 A 
ATOM     16  C   UNL     1       6.025   4.601  15.347  0.00  0.00    +0.000 A 
ATOM     17  C   UNL     1       4.821   4.224  15.954  0.00  0.00    +0.000 A 
ENDBRANCH  11  12
ENDBRANCH   3   6
ENDBRANCH   1   4
BRANCH   1  18
ATOM     18  C   UNL     1       1.549   8.993  18.779  0.00  0.00    +0.000 C 
BRANCH  18  19
ATOM     19  C   UNL     1       0.498   9.623  17.866  0.00  0.00    +0.000 C 
BRANCH  19  20
ATOM     20  C   UNL     1      -0.614  10.309  18.657  0.00  0.00    +0.000 C 
BRANCH  20  21
ATOM     21  C   UNL     1      -0.163  11.655  19.202  0.00  0.00    +0.000 C 
BRANCH  21  22
ATOM     22  C   UNL     1      -1.273  12.688  19.046  0.00  0.00    +0.000 C 
BRANCH  22  23
ATOM     23  N   UNL     1      -2.145  12.706  20.204  0.00  0.00    +0.000 N 
ATOM     24  C   UNL     1      -3.502  12.627  20.205  0.00  0.00    +0.000 A 
ATOM     25  C   UNL     1      -3.828  12.747  21.537  0.00  0.00    +0.000 A 
ATOM     26  N   UNL     1      -2.673  12.884  22.270  0.00  0.00    +0.000 NA
ATOM     27  N   UNL     1      -1.650  12.855  21.429  0.00  0.00    +0.000 NA
BRANCH  25  28
ATOM     28  C   UNL     1      -5.157  12.747  22.108  0.00  0.00    +0.000 A 
ATOM     29  C   UNL     1      -5.395  13.008  23.463  0.00  0.00    +0.000 A 
ATOM     30  C   UNL     1      -6.696  12.992  23.959  0.00  0.00    +0.000 A 
ATOM     31  C   UNL     1      -7.731  12.714  23.083  0.00  0.00    +0.000 A 
ATOM     32  N   UNL     1      -7.550  12.460  21.771  0.00  0.00    +0.000 NA
ATOM     33  C   UNL     1      -6.271  12.481  21.315  0.00  0.00    +0.000 A 
ENDBRANCH  25  28
ENDBRANCH  22  23
ENDBRANCH  21  22
ENDBRANCH  20  21
ENDBRANCH  19  20
ENDBRANCH  18  19
ENDBRANCH   1  18
TORSDOF 10
ENDMDL
MODEL 9
REMARK VINA RESULT:      -7.6      1.919      3.627
REMARK  Name = 
REMARK  10 active torsions:
REMARK  status: ('A' for Active; 'I' for Inactive)
REMARK    1  A    between atoms: C_2  and  C_21
REMARK    2  A    between atoms: N_3  and  C_4
REMARK    3  A    between atoms: C_4  and  C_5
REMARK    4  A    between atoms: C_5  and  C_6
REMARK    5  A    between atoms: C_6  and  C_7
REMARK    6  A    between atoms: C_7  and  C_8
REMARK    7  A    between atoms: C_8  and  C_9
REMARK    8  A    between atoms: C_9  and  N_10
REMARK    9  A    between atoms: C_12  and  C_13
REMARK   10  A    between atoms: C_26  and  C_27
REMARK                            x       y       z     vdW  Elec       q    Type
REMARK                         _______ _______ _______ _____ _____    ______ ____
ROOT
ATOM      1  C   UNL     1       6.391   4.796  18.412  0.00  0.00    +0.000 C 
ENDROOT
BRANCH   1   4
ATOM      2  O   UNL     1       4.194   5.224  16.777  0.00  0.00    +0.000 OA
ATOM      3  C   UNL     1       4.241   5.831  17.839  0.00  0.00    +0.000 C 
ATOM      4  N   UNL     1       5.281   5.657  18.732  0.00  0.00    +0.000 N 
ATOM      5  H   UNL     1       5.254   6.061  19.657  0.00  0.00    +0.000 HD
BRANCH   3   6
ATOM      6  C   UNL     1       3.172   6.794  18.248  0.00  0.00    +0.000 A 
ATOM      7  C   UNL     1       3.242   8.089  17.685  0.00  0.00    +0.000 A 
ATOM      8  C   UNL     1       2.362   9.094  18.069  0.00  0.00    +0.000 A 
ATOM      9  C   UNL     1       1.398   8.822  19.026  0.00  0.00    +0.000 A 
ATOM     10  C   UNL     1       1.297   7.538  19.569  0.00  0.00    +0.000 A 
ATOM     11  C   UNL     1       2.171   6.480  19.208  0.00  0.00    +0.000 A 
BRANCH  11  12
ATOM     12  C   UNL     1       1.962   5.143  19.846  0.00  0.00    +0.000 A 
ATOM     13  C   UNL     1       2.466   4.819  21.117  0.00  0.00    +0.000 A 
ATOM     14  C   UNL     1       2.213   3.583  21.725  0.00  0.00    +0.000 A 
ATOM     15  C   UNL     1       1.503   2.604  21.042  0.00  0.00    +0.000 A 
ATOM     16  C   UNL     1       1.037   2.865  19.760  0.00  0.00    +0.000 A 
ATOM     17  C   UNL     1       1.253   4.121  19.179  0.00  0.00    +0.000 A 
ENDBRANCH  11  12
ENDBRANCH   3   6
ENDBRANCH   1   4
BRANCH   1  18
ATOM     18  C   UNL     1       7.526   5.565  17.743  0.00  0.00    +0.000 C 
BRANCH  18  19
ATOM     19  C   UNL     1       8.009   6.734  18.598  0.00  0.00    +0.000 C 
BRANCH  19  20
ATOM     20  C   UNL     1       7.914   8.067  17.858  0.00  0.00    +0.000 C 
BRANCH  20  21
ATOM     21  C   UNL     1       8.585   9.188  18.637  0.00  0.00    +0.000 C 
BRANCH  21  22
ATOM     22  C   UNL     1       8.947  10.337  17.704  0.00  0.00    +0.000 C 
BRANCH  22  23
ATOM     23  N   UNL     1       9.688  11.369  18.400  0.00  0.00    +0.000 N 
ATOM     24  C   UNL     1       9.237  12.157  19.412  0.00  0.00    +0.000 A 
ATOM     25  C   UNL     1      10.300  12.993  19.667  0.00  0.00    +0.000 A 
ATOM     26  N   UNL     1      11.332  12.675  18.815  0.00  0.00    +0.000 NA
ATOM     27  N   UNL     1      10.933  11.674  18.046  0.00  0.00    +0.000 NA
BRANCH  25  28
ATOM     28  C   UNL     1      10.355  14.052  20.650  0.00  0.00    +0.000 A 
ATOM     29  C   UNL     1      11.143  15.197  20.480  0.00  0.00    +0.000 A 
ATOM     30  C   UNL     1      11.159  16.185  21.462  0.00  0.00    +0.000 A 
ATOM     31  C   UNL     1      10.384  16.000  22.594  0.00  0.00    +0.000 A 
ATOM     32  N   UNL     1       9.609  14.916  22.800  0.00  0.00    +0.000 NA
ATOM     33  C   UNL     1       9.612  13.969  21.826  0.00  0.00    +0.000 A 
ENDBRANCH  25  28
ENDBRANCH  22  23
ENDBRANCH  21  22
ENDBRANCH  20  21
ENDBRANCH  19  20
ENDBRANCH  18  19
ENDBRANCH   1  18
TORSDOF 10
ENDMDL
