MODEL 1
REMARK VINA RESULT:      -5.8      0.000      0.000
REMARK  Name = 
REMARK  8 active torsions:
REMARK  status: ('A' for Active; 'I' for Inactive)
REMARK    1  A    between atoms: C_1  and  C_2
REMARK    2  A    between atoms: N_5  and  C_6
REMARK    3  A    between atoms: C_6  and  C_7
REMARK    4  A    between atoms: C_7  and  C_8
REMARK    5  A    between atoms: C_8  and  N_9
REMARK    6  A    between atoms: N_9  and  C_10
REMARK    7  A    between atoms: C_10  and  C_11
REMARK    8  A    between atoms: C_11  and  C_12
REMARK                            x       y       z     vdW  Elec       q    Type
REMARK                         _______ _______ _______ _____ _____    ______ ____
ROOT
ATOM      1  C   UNL     1       3.894   4.323  17.968  0.00  0.00    +0.000 C 
ENDROOT
BRANCH   1   6
ATOM      2  C   UNL     1       1.353   2.683  21.559  0.00  0.00    +0.000 C 
ATOM      3  C   UNL     1       1.312   3.759  20.480  0.00  0.00    +0.000 C 
ATOM      4  C   UNL     1       1.309   3.126  19.079  0.00  0.00    +0.000 C 
ATOM      5  C   UNL     1       1.478   4.177  17.972  0.00  0.00    +0.000 C 
ATOM      6  N   UNL     1       2.637   5.061  18.171  0.00  0.00    +0.000 NA
ATOM      7  C   UNL     1       2.530   5.726  19.480  0.00  0.00    +0.000 C 
ATOM      8  C   UNL     1       2.475   4.742  20.647  0.00  0.00    +0.000 C 
ENDBRANCH   1   6
BRANCH   1   9
ATOM      9  C   UNL     1       4.543   4.566  16.608  0.00  0.00    +0.000 C 
BRANCH   9  10
ATOM     10  C   UNL     1       4.906   6.039  16.464  0.00  0.00    +0.000 C 
BRANCH  10  11
ATOM     11  N   UNL     1       6.191   6.123  15.779  0.00  0.00    +0.000 NA
ATOM     12  H   UNL     1       6.335   7.078  15.447  0.00  0.00    +0.000 HD
BRANCH  11  13
ATOM     13  C   UNL     1       7.273   5.730  16.673  0.00  0.00    +0.000 C 
BRANCH  13  14
ATOM     14  C   UNL     1       7.355   6.724  17.817  0.00  0.00    +0.000 C 
BRANCH  14  15
ATOM     15  C   UNL     1       7.622   5.954  19.101  0.00  0.00    +0.000 C 
ATOM     16  N   UNL     1       7.844   5.316  20.164  0.00  0.00    +0.000 NA
ENDBRANCH  14  15
ENDBRANCH  13  14
ENDBRANCH  11  13
ENDBRANCH  10  11
ENDBRANCH   9  10
ENDBRANCH   1   9
TORSDOF 7
ENDMDL
MODEL 2
REMARK VINA RESULT:      -5.6      1.969      5.640
REMARK  Name = 
REMARK  8 active torsions:
REMARK  status: ('A' for Active; 'I' for Inactive)
REMARK    1  A    between atoms: C_1  and  C_2
REMARK    2  A    between atoms: N_5  and  C_6
REMARK    3  A    between atoms: C_6  and  C_7
REMARK    4  A    between atoms: C_7  and  C_8
REMARK    5  A    between atoms: C_8  and  N_9
REMARK    6  A    between atoms: N_9  and  C_10
REMARK    7  A    between atoms: C_10  and  C_11
REMARK    8  A    between atoms: C_11  and  C_12
REMARK                            x       y       z     vdW  Elec       q    Type
REMARK                         _______ _______ _______ _____ _____    ______ ____
ROOT
ATOM      1  C   UNL     1       4.612   3.516  16.762  0.00  0.00    +0.000 C 
ENDROOT
BRANCH   1   6
ATOM      2  C   UNL     1       7.896   5.723  19.288  0.00  0.00    +0.000 C 
ATOM      3  C   UNL     1       6.886   5.989  18.178  0.00  0.00    +0.000 C 
ATOM      4  C   UNL     1       5.451   5.747  18.676  0.00  0.00    +0.000 C 
ATOM      5  C   UNL     1       4.429   5.803  17.533  0.00  0.00    +0.000 C 
ATOM      6  N   UNL     1       4.767   4.933  16.396  0.00  0.00    +0.000 NA
ATOM      7  C   UNL     1       6.103   5.284  15.888  0.00  0.00    +0.000 C 
ATOM      8  C   UNL     1       7.200   5.139  16.942  0.00  0.00    +0.000 C 
ENDBRANCH   1   6
BRANCH   1   9
ATOM      9  C   UNL     1       3.254   3.180  17.375  0.00  0.00    +0.000 C 
BRANCH   9  10
ATOM     10  C   UNL     1       3.324   1.831  18.079  0.00  0.00    +0.000 C 
BRANCH  10  11
ATOM     11  N   UNL     1       2.126   1.685  18.897  0.00  0.00    +0.000 NA
ATOM     12  H   UNL     1       2.393   1.605  19.879  0.00  0.00    +0.000 HD
BRANCH  11  13
ATOM     13  C   UNL     1       1.236   2.824  18.708  0.00  0.00    +0.000 C 
BRANCH  13  14
ATOM     14  C   UNL     1       0.707   3.268  20.060  0.00  0.00    +0.000 C 
BRANCH  14  15
ATOM     15  C   UNL     1       1.721   2.875  21.122  0.00  0.00    +0.000 C 
ATOM     16  N   UNL     1       2.563   2.550  22.002  0.00  0.00    +0.000 NA
ENDBRANCH  14  15
ENDBRANCH  13  14
ENDBRANCH  11  13
ENDBRANCH  10  11
ENDBRANCH   9  10
ENDBRANCH   1   9
TORSDOF 7
ENDMDL
MODEL 3
REMARK VINA RESULT:      -5.5      1.811      5.731
REMARK  Name = 
REMARK  8 active torsions:
REMARK  status: ('A' for Active; 'I' for Inactive)
REMARK    1  A    between atoms: C_1  and  C_2
REMARK    2  A    between atoms: N_5  and  C_6
REMARK    3  A    between atoms: C_6  and  C_7
REMARK    4  A    between atoms: C_7  and  C_8
REMARK    5  A    between atoms: C_8  and  N_9
REMARK    6  A    between atoms: N_9  and  C_10
REMARK    7  A    between atoms: C_10  and  C_11
REMARK    8  A    between atoms: C_11  and  C_12
REMARK                            x       y       z     vdW  Elec       q    Type
REMARK                         _______ _______ _______ _____ _____    ______ ____
ROOT
ATOM      1  C   UNL     1       4.026   4.822  16.836  0.00  0.00    +0.000 C 
ENDROOT
BRANCH   1   6
ATOM      2  C   UNL     1       7.772   7.501  17.751  0.00  0.00    +0.000 C 
ATOM      3  C   UNL     1       7.338   6.039  17.754  0.00  0.00    +0.000 C 
ATOM      4  C   UNL     1       6.945   5.585  16.338  0.00  0.00    +0.000 C 
ATOM      5  C   UNL     1       6.309   4.188  16.339  0.00  0.00    +0.000 C 
ATOM      6  N   UNL     1       5.193   4.048  17.289  0.00  0.00    +0.000 NA
ATOM      7  C   UNL     1       5.656   4.387  18.644  0.00  0.00    +0.000 C 
ATOM      8  C   UNL     1       6.199   5.811  18.752  0.00  0.00    +0.000 C 
ENDBRANCH   1   6
BRANCH   1   9
ATOM      9  C   UNL     1       3.080   5.232  17.962  0.00  0.00    +0.000 C 
BRANCH   9  10
ATOM     10  C   UNL     1       1.747   4.512  17.805  0.00  0.00    +0.000 C 
BRANCH  10  11
ATOM     11  N   UNL     1       2.020   3.128  17.436  0.00  0.00    +0.000 NA
ATOM     12  H   UNL     1       2.947   3.067  17.012  0.00  0.00    +0.000 HD
BRANCH  11  13
ATOM     13  C   UNL     1       1.943   2.262  18.607  0.00  0.00    +0.000 C 
BRANCH  13  14
ATOM     14  C   UNL     1       0.852   2.775  19.529  0.00  0.00    +0.000 C 
BRANCH  14  15
ATOM     15  C   UNL     1       1.373   2.730  20.957  0.00  0.00    +0.000 C 
ATOM     16  N   UNL     1       1.806   2.691  22.140  0.00  0.00    +0.000 NA
ENDBRANCH  14  15
ENDBRANCH  13  14
ENDBRANCH  11  13
ENDBRANCH  10  11
ENDBRANCH   9  10
ENDBRANCH   1   9
TORSDOF 7
ENDMDL
MODEL 4
REMARK VINA RESULT:      -5.5      1.786      2.900
REMARK  Name = 
REMARK  8 active torsions:
REMARK  status: ('A' for Active; 'I' for Inactive)
REMARK    1  A    between atoms: C_1  and  C_2
REMARK    2  A    between atoms: N_5  and  C_6
REMARK    3  A    between atoms: C_6  and  C_7
REMARK    4  A    between atoms: C_7  and  C_8
REMARK    5  A    between atoms: C_8  and  N_9
REMARK    6  A    between atoms: N_9  and  C_10
REMARK    7  A    between atoms: C_10  and  C_11
REMARK    8  A    between atoms: C_11  and  C_12
REMARK                            x       y       z     vdW  Elec       q    Type
REMARK                         _______ _______ _______ _____ _____    ______ ____
ROOT
ATOM      1  C   UNL     1       4.579   3.621  18.811  0.00  0.00    +0.000 C 
ENDROOT
BRANCH   1   6
ATOM      2  C   UNL     1       1.255   2.552  21.948  0.00  0.00    +0.000 C 
ATOM      3  C   UNL     1       1.424   3.233  20.595  0.00  0.00    +0.000 C 
ATOM      4  C   UNL     1       1.953   2.241  19.547  0.00  0.00    +0.000 C 
ATOM      5  C   UNL     1       2.330   2.938  18.233  0.00  0.00    +0.000 C 
ATOM      6  N   UNL     1       3.239   4.081  18.412  0.00  0.00    +0.000 NA
ATOM      7  C   UNL     1       2.633   5.052  19.338  0.00  0.00    +0.000 C 
ATOM      8  C   UNL     1       2.334   4.460  20.714  0.00  0.00    +0.000 C 
ENDBRANCH   1   6
BRANCH   1   9
ATOM      9  C   UNL     1       5.582   4.750  19.036  0.00  0.00    +0.000 C 
BRANCH   9  10
ATOM     10  C   UNL     1       6.376   4.998  17.760  0.00  0.00    +0.000 C 
BRANCH  10  11
ATOM     11  N   UNL     1       6.016   3.967  16.795  0.00  0.00    +0.000 NA
ATOM     12  H   UNL     1       5.316   3.348  17.206  0.00  0.00    +0.000 HD
BRANCH  11  13
ATOM     13  C   UNL     1       5.500   4.570  15.571  0.00  0.00    +0.000 C 
BRANCH  13  14
ATOM     14  C   UNL     1       6.178   3.922  14.377  0.00  0.00    +0.000 C 
BRANCH  14  15
ATOM     15  C   UNL     1       7.259   4.864  13.873  0.00  0.00    +0.000 C 
ATOM     16  N   UNL     1       8.156   5.645  13.456  0.00  0.00    +0.000 NA
ENDBRANCH  14  15
ENDBRANCH  13  14
ENDBRANCH  11  13
ENDBRANCH  10  11
ENDBRANCH   9  10
ENDBRANCH   1   9
TORSDOF 7
ENDMDL
MODEL 5
REMARK VINA RESULT:      -5.5      2.025      5.357
REMARK  Name = 
REMARK  8 active torsions:
REMARK  status: ('A' for Active; 'I' for Inactive)
REMARK    1  A    between atoms: C_1  and  C_2
REMARK    2  A    between atoms: N_5  and  C_6
REMARK    3  A    between atoms: C_6  and  C_7
REMARK    4  A    between atoms: C_7  and  C_8
REMARK    5  A    between atoms: C_8  and  N_9
REMARK    6  A    between atoms: N_9  and  C_10
REMARK    7  A    between atoms: C_10  and  C_11
REMARK    8  A    between atoms: C_11  and  C_12
REMARK                            x       y       z     vdW  Elec       q    Type
REMARK                         _______ _______ _______ _____ _____    ______ ____
ROOT
ATOM      1  C   UNL     1       4.110   5.622  18.726  0.00  0.00    +0.000 C 
ENDROOT
BRANCH   1   6
ATOM      2  C   UNL     1       7.955   8.156  17.812  0.00  0.00    +0.000 C 
ATOM      3  C   UNL     1       7.293   6.837  17.429  0.00  0.00    +0.000 C 
ATOM      4  C   UNL     1       5.934   7.084  16.756  0.00  0.00    +0.000 C 
ATOM      5  C   UNL     1       5.150   5.781  16.546  0.00  0.00    +0.000 C 
ATOM      6  N   UNL     1       5.017   4.971  17.767  0.00  0.00    +0.000 NA
ATOM      7  C   UNL     1       6.352   4.670  18.306  0.00  0.00    +0.000 C 
ATOM      8  C   UNL     1       7.155   5.923  18.651  0.00  0.00    +0.000 C 
ENDBRANCH   1   6
BRANCH   1   9
ATOM      9  C   UNL     1       2.753   6.002  18.137  0.00  0.00    +0.000 C 
BRANCH   9  10
ATOM     10  C   UNL     1       1.825   4.795  18.155  0.00  0.00    +0.000 C 
BRANCH  10  11
ATOM     11  N   UNL     1       2.569   3.660  18.690  0.00  0.00    +0.000 NA
ATOM     12  H   UNL     1       2.250   3.463  19.639  0.00  0.00    +0.000 HD
BRANCH  11  13
ATOM     13  C   UNL     1       2.390   2.487  17.843  0.00  0.00    +0.000 C 
BRANCH  13  14
ATOM     14  C   UNL     1       3.516   1.505  18.113  0.00  0.00    +0.000 C 
BRANCH  14  15
ATOM     15  C   UNL     1       4.173   1.883  19.431  0.00  0.00    +0.000 C 
ATOM     16  N   UNL     1       4.717   2.196  20.524  0.00  0.00    +0.000 NA
ENDBRANCH  14  15
ENDBRANCH  13  14
ENDBRANCH  11  13
ENDBRANCH  10  11
ENDBRANCH   9  10
ENDBRANCH   1   9
TORSDOF 7
ENDMDL
MODEL 6
REMARK VINA RESULT:      -5.5      1.081      1.192
REMARK  Name = 
REMARK  8 active torsions:
REMARK  status: ('A' for Active; 'I' for Inactive)
REMARK    1  A    between atoms: C_1  and  C_2
REMARK    2  A    between atoms: N_5  and  C_6
REMARK    3  A    between atoms: C_6  and  C_7
REMARK    4  A    between atoms: C_7  and  C_8
REMARK    5  A    between atoms: C_8  and  N_9
REMARK    6  A    between atoms: N_9  and  C_10
REMARK    7  A    between atoms: C_10  and  C_11
REMARK    8  A    between atoms: C_11  and  C_12
REMARK                            x       y       z     vdW  Elec       q    Type
REMARK                         _______ _______ _______ _____ _____    ______ ____
ROOT
ATOM      1  C   UNL     1       3.982   3.953  16.964  0.00  0.00    +0.000 C 
ENDROOT
BRANCH   1   6
ATOM      2  C   UNL     1       2.461   2.845  21.265  0.00  0.00    +0.000 C 
ATOM      3  C   UNL     1       2.377   3.968  20.237  0.00  0.00    +0.000 C 
ATOM      4  C   UNL     1       1.704   3.476  18.945  0.00  0.00    +0.000 C 
ATOM      5  C   UNL     1       1.789   4.517  17.820  0.00  0.00    +0.000 C 
ATOM      6  N   UNL     1       3.155   5.007  17.574  0.00  0.00    +0.000 NA
ATOM      7  C   UNL     1       3.708   5.568  18.816  0.00  0.00    +0.000 C 
ATOM      8  C   UNL     1       3.765   4.554  19.957  0.00  0.00    +0.000 C 
ENDBRANCH   1   6
BRANCH   1   9
ATOM      9  C   UNL     1       4.939   4.462  15.888  0.00  0.00    +0.000 C 
BRANCH   9  10
ATOM     10  C   UNL     1       6.319   3.851  16.092  0.00  0.00    +0.000 C 
BRANCH  10  11
ATOM     11  N   UNL     1       7.035   4.666  17.067  0.00  0.00    +0.000 NA
ATOM     12  H   UNL     1       8.001   4.344  17.134  0.00  0.00    +0.000 HD
BRANCH  11  13
ATOM     13  C   UNL     1       6.998   6.072  16.682  0.00  0.00    +0.000 C 
BRANCH  13  14
ATOM     14  C   UNL     1       7.525   6.913  17.831  0.00  0.00    +0.000 C 
BRANCH  14  15
ATOM     15  C   UNL     1       7.610   6.033  19.067  0.00  0.00    +0.000 C 
ATOM     16  N   UNL     1       7.680   5.303  20.092  0.00  0.00    +0.000 NA
ENDBRANCH  14  15
ENDBRANCH  13  14
ENDBRANCH  11  13
ENDBRANCH  10  11
ENDBRANCH   9  10
ENDBRANCH   1   9
TORSDOF 7
ENDMDL
MODEL 7
REMARK VINA RESULT:      -5.5      2.105      3.572
REMARK  Name = 
REMARK  8 active torsions:
REMARK  status: ('A' for Active; 'I' for Inactive)
REMARK    1  A    between atoms: C_1  and  C_2
REMARK    2  A    between atoms: N_5  and  C_6
REMARK    3  A    between atoms: C_6  and  C_7
REMARK    4  A    between atoms: C_7  and  C_8
REMARK    5  A    between atoms: C_8  and  N_9
REMARK    6  A    between atoms: N_9  and  C_10
REMARK    7  A    between atoms: C_10  and  C_11
REMARK    8  A    between atoms: C_11  and  C_12
REMARK                            x       y       z     vdW  Elec       q    Type
REMARK                         _______ _______ _______ _____ _____    ______ ____
ROOT
ATOM      1  C   UNL     1       5.529   4.902  19.092  0.00  0.00    +0.000 C 
ENDROOT
BRANCH   1   6
ATOM      2  C   UNL     1       1.079   4.382  20.495  0.00  0.00    +0.000 C 
ATOM      3  C   UNL     1       1.954   4.205  19.259  0.00  0.00    +0.000 C 
ATOM      4  C   UNL     1       3.053   3.160  19.515  0.00  0.00    +0.000 C 
ATOM      5  C   UNL     1       4.074   3.107  18.370  0.00  0.00    +0.000 C 
ATOM      6  N   UNL     1       4.639   4.421  18.023  0.00  0.00    +0.000 NA
ATOM      7  C   UNL     1       3.550   5.349  17.680  0.00  0.00    +0.000 C 
ATOM      8  C   UNL     1       2.549   5.546  18.817  0.00  0.00    +0.000 C 
ENDBRANCH   1   6
BRANCH   1   9
ATOM      9  C   UNL     1       6.791   5.594  18.583  0.00  0.00    +0.000 C 
BRANCH   9  10
ATOM     10  C   UNL     1       7.347   4.840  17.382  0.00  0.00    +0.000 C 
BRANCH  10  11
ATOM     11  N   UNL     1       7.120   5.653  16.193  0.00  0.00    +0.000 NA
ATOM     12  H   UNL     1       7.811   6.404  16.160  0.00  0.00    +0.000 HD
BRANCH  11  13
ATOM     13  C   UNL     1       7.207   4.834  14.990  0.00  0.00    +0.000 C 
BRANCH  13  14
ATOM     14  C   UNL     1       5.817   4.351  14.619  0.00  0.00    +0.000 C 
BRANCH  14  15
ATOM     15  C   UNL     1       5.890   3.690  13.252  0.00  0.00    +0.000 C 
ATOM     16  N   UNL     1       5.951   3.142  12.118  0.00  0.00    +0.000 NA
ENDBRANCH  14  15
ENDBRANCH  13  14
ENDBRANCH  11  13
ENDBRANCH  10  11
ENDBRANCH   9  10
ENDBRANCH   1   9
TORSDOF 7
ENDMDL
MODEL 8
REMARK VINA RESULT:      -5.4      1.482      2.674
REMARK  Name = 
REMARK  8 active torsions:
REMARK  status: ('A' for Active; 'I' for Inactive)
REMARK    1  A    between atoms: C_1  and  C_2
REMARK    2  A    between atoms: N_5  and  C_6
REMARK    3  A    between atoms: C_6  and  C_7
REMARK    4  A    between atoms: C_7  and  C_8
REMARK    5  A    between atoms: C_8  and  N_9
REMARK    6  A    between atoms: N_9  and  C_10
REMARK    7  A    between atoms: C_10  and  C_11
REMARK    8  A    between atoms: C_11  and  C_12
REMARK                            x       y       z     vdW  Elec       q    Type
REMARK                         _______ _______ _______ _____ _____    ______ ____
ROOT
ATOM      1  C   UNL     1       5.106   4.454  19.032  0.00  0.00    +0.000 C 
ENDROOT
BRANCH   1   6
ATOM      2  C   UNL     1       0.999   3.023  20.800  0.00  0.00    +0.000 C 
ATOM      3  C   UNL     1       1.567   4.014  19.789  0.00  0.00    +0.000 C 
ATOM      4  C   UNL     1       2.309   3.277  18.662  0.00  0.00    +0.000 C 
ATOM      5  C   UNL     1       3.067   4.246  17.744  0.00  0.00    +0.000 C 
ATOM      6  N   UNL     1       3.952   5.173  18.468  0.00  0.00    +0.000 NA
ATOM      7  C   UNL     1       3.168   5.931  19.456  0.00  0.00    +0.000 C 
ATOM      8  C   UNL     1       2.473   5.037  20.482  0.00  0.00    +0.000 C 
ENDBRANCH   1   6
BRANCH   1   9
ATOM      9  C   UNL     1       6.329   5.336  19.269  0.00  0.00    +0.000 C 
BRANCH   9  10
ATOM     10  C   UNL     1       7.327   5.153  18.134  0.00  0.00    +0.000 C 
BRANCH  10  11
ATOM     11  N   UNL     1       6.847   4.073  17.279  0.00  0.00    +0.000 NA
ATOM     12  H   UNL     1       5.830   4.016  17.344  0.00  0.00    +0.000 HD
BRANCH  11  13
ATOM     13  C   UNL     1       7.253   4.296  15.897  0.00  0.00    +0.000 C 
BRANCH  13  14
ATOM     14  C   UNL     1       6.012   4.450  15.036  0.00  0.00    +0.000 C 
BRANCH  14  15
ATOM     15  C   UNL     1       5.428   5.832  15.283  0.00  0.00    +0.000 C 
ATOM     16  N   UNL     1       4.944   6.977  15.487  0.00  0.00    +0.000 NA
ENDBRANCH  14  15
ENDBRANCH  13  14
ENDBRANCH  11  13
ENDBRANCH  10  11
ENDBRANCH   9  10
ENDBRANCH   1   9
TORSDOF 7
ENDMDL
MODEL 9
REMARK VINA RESULT:      -5.4      1.758      5.800
REMARK  Name = 
REMARK  8 active torsions:
REMARK  status: ('A' for Active; 'I' for Inactive)
REMARK    1  A    between atoms: C_1  and  C_2
REMARK    2  A    between atoms: N_5  and  C_6
REMARK    3  A    between atoms: C_6  and  C_7
REMARK    4  A    between atoms: C_7  and  C_8
REMARK    5  A    between atoms: C_8  and  N_9
REMARK    6  A    between atoms: N_9  and  C_10
REMARK    7  A    between atoms: C_10  and  C_11
REMARK    8  A    between atoms: C_11  and  C_12
REMARK                            x       y       z     vdW  Elec       q    Type
REMARK                         _______ _______ _______ _____ _____    ______ ____
ROOT
ATOM      1  C   UNL     1       4.329   4.403  17.070  0.00  0.00    +0.000 C 
ENDROOT
BRANCH   1   6
ATOM      2  C   UNL     1       8.024   6.872  18.584  0.00  0.00    +0.000 C 
ATOM      3  C   UNL     1       7.382   6.385  17.290  0.00  0.00    +0.000 C 
ATOM      4  C   UNL     1       5.974   6.980  17.123  0.00  0.00    +0.000 C 
ATOM      5  C   UNL     1       5.220   6.351  15.943  0.00  0.00    +0.000 C 
ATOM      6  N   UNL     1       5.192   4.880  15.977  0.00  0.00    +0.000 NA
ATOM      7  C   UNL     1       6.569   4.363  16.024  0.00  0.00    +0.000 C 
ATOM      8  C   UNL     1       7.352   4.854  17.241  0.00  0.00    +0.000 C 
ENDBRANCH   1   6
BRANCH   1   9
ATOM      9  C   UNL     1       3.596   3.101  16.757  0.00  0.00    +0.000 C 
BRANCH   9  10
ATOM     10  C   UNL     1       3.189   2.412  18.053  0.00  0.00    +0.000 C 
BRANCH  10  11
ATOM     11  N   UNL     1       2.795   3.442  19.008  0.00  0.00    +0.000 NA
ATOM     12  H   UNL     1       3.310   4.300  18.812  0.00  0.00    +0.000 HD
BRANCH  11  13
ATOM     13  C   UNL     1       1.359   3.686  18.932  0.00  0.00    +0.000 C 
BRANCH  13  14
ATOM     14  C   UNL     1       0.825   3.930  20.332  0.00  0.00    +0.000 C 
BRANCH  14  15
ATOM     15  C   UNL     1       1.736   3.221  21.321  0.00  0.00    +0.000 C 
ATOM     16  N   UNL     1       2.491   2.632  22.141  0.00  0.00    +0.000 NA
ENDBRANCH  14  15
ENDBRANCH  13  14
ENDBRANCH  11  13
ENDBRANCH  10  11
ENDBRANCH   9  10
ENDBRANCH   1   9
TORSDOF 7
ENDMDL
