MODEL 1
REMARK VINA RESULT:      -7.5      0.000      0.000
REMARK  Name = 
REMARK  7 active torsions:
REMARK  status: ('A' for Active; 'I' for Inactive)
REMARK    1  A    between atoms: C_1  and  C_2
REMARK    2  A    between atoms: C_4  and  C_5
REMARK    3  A    between atoms: N_7  and  C_8
REMARK    4  A    between atoms: C_10  and  C_11
REMARK    5  A    between atoms: C_15  and  N_16
REMARK    6  A    between atoms: C_19  and  O_20
REMARK    7  A    between atoms: O_20  and  C_21
REMARK                            x       y       z     vdW  Elec       q    Type
REMARK                         _______ _______ _______ _____ _____    ______ ____
ROOT
ATOM      1  C   UNL     1       0.039  11.991  18.674  0.00  0.00    +0.000 A 
ATOM      2  C   UNL     1       0.026  13.370  18.947  0.00  0.00    +0.000 A 
ATOM      3  C   UNL     1       0.772  13.891  20.001  0.00  0.00    +0.000 A 
ATOM      4  C   UNL     1       1.544  13.030  20.775  0.00  0.00    +0.000 A 
ATOM      5  C   UNL     1       1.566  11.657  20.489  0.00  0.00    +0.000 A 
ATOM      6  C   UNL     1       0.817  11.087  19.439  0.00  0.00    +0.000 A 
ENDROOT
BRANCH   6   7
ATOM      7  N   UNL     1       0.883   9.721  19.179  0.00  0.00    +0.000 N 
ATOM      8  C   UNL     1       0.634   8.733  20.232  0.00  0.00    +0.000 C 
ATOM      9  C   UNL     1       1.923   7.986  20.552  0.00  0.00    +0.000 C 
ATOM     10  C   UNL     1       2.476   7.282  19.306  0.00  0.00    +0.000 C 
ATOM     11  C   UNL     1       2.688   8.323  18.205  0.00  0.00    +0.000 C 
ATOM     12  C   UNL     1       1.443   9.169  17.936  0.00  0.00    +0.000 C 
BRANCH  10  13
ATOM     13  O   UNL     1       1.574   6.282  18.806  0.00  0.00    +0.000 OA
BRANCH  13  14
ATOM     14  C   UNL     1       2.061   5.020  18.587  0.00  0.00    +0.000 A 
ATOM     15  C   UNL     1       3.051   4.693  17.658  0.00  0.00    +0.000 A 
ATOM     16  C   UNL     1       3.527   3.383  17.560  0.00  0.00    +0.000 A 
ATOM     17  C   UNL     1       2.995   2.393  18.376  0.00  0.00    +0.000 A 
ATOM     18  F   UNL     1       3.456   1.140  18.272  0.00  0.00    +0.000 F 
ATOM     19  C   UNL     1       1.999   2.686  19.295  0.00  0.00    +0.000 A 
ATOM     20  C   UNL     1       1.546   3.999  19.400  0.00  0.00    +0.000 A 
ATOM     21  F   UNL     1       0.585   4.272  20.295  0.00  0.00    +0.000 F 
ENDBRANCH  13  14
ENDBRANCH  10  13
ENDBRANCH   6   7
BRANCH   1  24
ATOM     22  C   UNL     1      -2.174  11.276  17.919  0.00  0.00    +0.000 C 
ATOM     23  O   UNL     1      -2.712  11.363  19.020  0.00  0.00    +0.000 OA
ATOM     24  N   UNL     1      -0.830  11.511  17.675  0.00  0.00    +0.000 N 
ATOM     25  H   UNL     1      -0.587  11.730  16.713  0.00  0.00    +0.000 HD
BRANCH  22  29
ATOM     26  C   UNL     1      -3.823   9.831  13.340  0.00  0.00    +0.000 C 
ATOM     27  C   UNL     1      -3.587  10.321  14.709  0.00  0.00    +0.000 A 
ATOM     28  C   UNL     1      -2.525  10.265  15.575  0.00  0.00    +0.000 A 
ATOM     29  C   UNL     1      -2.955  10.989  16.714  0.00  0.00    +0.000 A 
ATOM     30  N   UNL     1      -4.226  11.402  16.567  0.00  0.00    +0.000 NA
ATOM     31  O   UNL     1      -4.609  10.996  15.298  0.00  0.00    +0.000 OA
ENDBRANCH  22  29
ENDBRANCH   1  24
BRANCH   3  32
ATOM     32  C   UNL     1       0.727  15.290  20.299  0.00  0.00    +0.000 C 
ATOM     33  N   UNL     1       0.679  16.424  20.555  0.00  0.00    +0.000 NA
ENDBRANCH   3  32
TORSDOF 6
ENDMDL
MODEL 2
REMARK VINA RESULT:      -7.3      1.648      2.448
REMARK  Name = 
REMARK  7 active torsions:
REMARK  status: ('A' for Active; 'I' for Inactive)
REMARK    1  A    between atoms: C_1  and  C_2
REMARK    2  A    between atoms: C_4  and  C_5
REMARK    3  A    between atoms: N_7  and  C_8
REMARK    4  A    between atoms: C_10  and  C_11
REMARK    5  A    between atoms: C_15  and  N_16
REMARK    6  A    between atoms: C_19  and  O_20
REMARK    7  A    between atoms: O_20  and  C_21
REMARK                            x       y       z     vdW  Elec       q    Type
REMARK                         _______ _______ _______ _____ _____    ______ ____
ROOT
ATOM      1  C   UNL     1      -0.065  13.444  18.634  0.00  0.00    +0.000 A 
ATOM      2  C   UNL     1      -0.493  14.777  18.498  0.00  0.00    +0.000 A 
ATOM      3  C   UNL     1      -0.009  15.766  19.351  0.00  0.00    +0.000 A 
ATOM      4  C   UNL     1       0.916  15.421  20.332  0.00  0.00    +0.000 A 
ATOM      5  C   UNL     1       1.352  14.094  20.452  0.00  0.00    +0.000 A 
ATOM      6  C   UNL     1       0.878  13.060  19.618  0.00  0.00    +0.000 A 
ENDROOT
BRANCH   6   7
ATOM      7  N   UNL     1       1.351  11.758  19.762  0.00  0.00    +0.000 N 
ATOM      8  C   UNL     1       2.134  11.112  18.706  0.00  0.00    +0.000 C 
ATOM      9  C   UNL     1       1.332   9.968  18.098  0.00  0.00    +0.000 C 
ATOM     10  C   UNL     1       0.954   8.932  19.164  0.00  0.00    +0.000 C 
ATOM     11  C   UNL     1       0.176   9.634  20.279  0.00  0.00    +0.000 C 
ATOM     12  C   UNL     1       0.904  10.858  20.835  0.00  0.00    +0.000 C 
BRANCH  10  13
ATOM     13  O   UNL     1       2.110   8.313  19.750  0.00  0.00    +0.000 OA
BRANCH  13  14
ATOM     14  C   UNL     1       2.219   6.949  19.687  0.00  0.00    +0.000 A 
ATOM     15  C   UNL     1       1.752   6.062  20.661  0.00  0.00    +0.000 A 
ATOM     16  C   UNL     1       1.851   4.683  20.469  0.00  0.00    +0.000 A 
ATOM     17  C   UNL     1       2.440   4.187  19.312  0.00  0.00    +0.000 A 
ATOM     18  F   UNL     1       2.533   2.863  19.140  0.00  0.00    +0.000 F 
ATOM     19  C   UNL     1       2.927   5.045  18.337  0.00  0.00    +0.000 A 
ATOM     20  C   UNL     1       2.804   6.419  18.528  0.00  0.00    +0.000 A 
ATOM     21  F   UNL     1       3.275   7.239  17.577  0.00  0.00    +0.000 F 
ENDBRANCH  13  14
ENDBRANCH  10  13
ENDBRANCH   6   7
BRANCH   1  24
ATOM     22  C   UNL     1      -1.865  11.848  18.192  0.00  0.00    +0.000 C 
ATOM     23  O   UNL     1      -2.429  12.000  19.273  0.00  0.00    +0.000 OA
ATOM     24  N   UNL     1      -0.682  12.471  17.824  0.00  0.00    +0.000 N 
ATOM     25  H   UNL     1      -0.506  12.527  16.824  0.00  0.00    +0.000 HD
BRANCH  22  29
ATOM     26  C   UNL     1      -3.939  10.078  13.911  0.00  0.00    +0.000 C 
ATOM     27  C   UNL     1      -3.349  10.349  15.232  0.00  0.00    +0.000 A 
ATOM     28  C   UNL     1      -2.754  11.443  15.808  0.00  0.00    +0.000 A 
ATOM     29  C   UNL     1      -2.462  11.033  17.133  0.00  0.00    +0.000 A 
ATOM     30  N   UNL     1      -2.804   9.746  17.323  0.00  0.00    +0.000 NA
ATOM     31  O   UNL     1      -3.378   9.331  16.132  0.00  0.00    +0.000 OA
ENDBRANCH  22  29
ENDBRANCH   1  24
BRANCH   3  32
ATOM     32  C   UNL     1      -0.474  17.114  19.235  0.00  0.00    +0.000 C 
ATOM     33  N   UNL     1      -0.851  18.209  19.122  0.00  0.00    +0.000 NA
ENDBRANCH   3  32
TORSDOF 6
ENDMDL
MODEL 3
REMARK VINA RESULT:      -7.3      1.474      2.143
REMARK  Name = 
REMARK  7 active torsions:
REMARK  status: ('A' for Active; 'I' for Inactive)
REMARK    1  A    between atoms: C_1  and  C_2
REMARK    2  A    between atoms: C_4  and  C_5
REMARK    3  A    between atoms: N_7  and  C_8
REMARK    4  A    between atoms: C_10  and  C_11
REMARK    5  A    between atoms: C_15  and  N_16
REMARK    6  A    between atoms: C_19  and  O_20
REMARK    7  A    between atoms: O_20  and  C_21
REMARK                            x       y       z     vdW  Elec       q    Type
REMARK                         _______ _______ _______ _____ _____    ______ ____
ROOT
ATOM      1  C   UNL     1      -0.070  13.365  18.613  0.00  0.00    +0.000 A 
ATOM      2  C   UNL     1      -0.517  14.694  18.510  0.00  0.00    +0.000 A 
ATOM      3  C   UNL     1      -0.076  15.661  19.410  0.00  0.00    +0.000 A 
ATOM      4  C   UNL     1       0.825  15.298  20.407  0.00  0.00    +0.000 A 
ATOM      5  C   UNL     1       1.280  13.975  20.495  0.00  0.00    +0.000 A 
ATOM      6  C   UNL     1       0.849  12.963  19.613  0.00  0.00    +0.000 A 
ENDROOT
BRANCH   6   7
ATOM      7  N   UNL     1       1.341  11.665  19.727  0.00  0.00    +0.000 N 
ATOM      8  C   UNL     1       2.127  11.052  18.654  0.00  0.00    +0.000 C 
ATOM      9  C   UNL     1       1.337   9.910  18.026  0.00  0.00    +0.000 C 
ATOM     10  C   UNL     1       0.979   8.847  19.072  0.00  0.00    +0.000 C 
ATOM     11  C   UNL     1       0.196   9.515  20.205  0.00  0.00    +0.000 C 
ATOM     12  C   UNL     1       0.911  10.737  20.783  0.00  0.00    +0.000 C 
BRANCH  10  13
ATOM     13  O   UNL     1       2.146   8.231  19.640  0.00  0.00    +0.000 OA
BRANCH  13  14
ATOM     14  C   UNL     1       2.586   7.052  19.099  0.00  0.00    +0.000 A 
ATOM     15  C   UNL     1       3.401   6.943  17.970  0.00  0.00    +0.000 A 
ATOM     16  C   UNL     1       3.851   5.693  17.539  0.00  0.00    +0.000 A 
ATOM     17  C   UNL     1       3.468   4.548  18.224  0.00  0.00    +0.000 A 
ATOM     18  F   UNL     1       3.903   3.354  17.801  0.00  0.00    +0.000 F 
ATOM     19  C   UNL     1       2.646   4.625  19.338  0.00  0.00    +0.000 A 
ATOM     20  C   UNL     1       2.220   5.878  19.773  0.00  0.00    +0.000 A 
ATOM     21  F   UNL     1       1.428   5.941  20.854  0.00  0.00    +0.000 F 
ENDBRANCH  13  14
ENDBRANCH  10  13
ENDBRANCH   6   7
BRANCH   1  24
ATOM     22  C   UNL     1      -1.837  11.770  18.054  0.00  0.00    +0.000 C 
ATOM     23  O   UNL     1      -2.447  11.889  19.114  0.00  0.00    +0.000 OA
ATOM     24  N   UNL     1      -0.645  12.410  17.753  0.00  0.00    +0.000 N 
ATOM     25  H   UNL     1      -0.428  12.495  16.763  0.00  0.00    +0.000 HD
BRANCH  22  29
ATOM     26  C   UNL     1      -4.049  10.126  13.791  0.00  0.00    +0.000 C 
ATOM     27  C   UNL     1      -3.355  10.356  15.069  0.00  0.00    +0.000 A 
ATOM     28  C   UNL     1      -2.938  11.476  15.743  0.00  0.00    +0.000 A 
ATOM     29  C   UNL     1      -2.384  10.980  16.950  0.00  0.00    +0.000 A 
ATOM     30  N   UNL     1      -2.409   9.635  16.971  0.00  0.00    +0.000 NA
ATOM     31  O   UNL     1      -3.037   9.253  15.797  0.00  0.00    +0.000 OA
ENDBRANCH  22  29
ENDBRANCH   1  24
BRANCH   3  32
ATOM     32  C   UNL     1      -0.561  17.005  19.325  0.00  0.00    +0.000 C 
ATOM     33  N   UNL     1      -0.973  18.092  19.257  0.00  0.00    +0.000 NA
ENDBRANCH   3  32
TORSDOF 6
ENDMDL
MODEL 4
REMARK VINA RESULT:      -7.2      0.870      1.221
REMARK  Name = 
REMARK  7 active torsions:
REMARK  status: ('A' for Active; 'I' for Inactive)
REMARK    1  A    between atoms: C_1  and  C_2
REMARK    2  A    between atoms: C_4  and  C_5
REMARK    3  A    between atoms: N_7  and  C_8
REMARK    4  A    between atoms: C_10  and  C_11
REMARK    5  A    between atoms: C_15  and  N_16
REMARK    6  A    between atoms: C_19  and  O_20
REMARK    7  A    between atoms: O_20  and  C_21
REMARK                            x       y       z     vdW  Elec       q    Type
REMARK                         _______ _______ _______ _____ _____    ______ ____
ROOT
ATOM      1  C   UNL     1      -0.049  11.828  18.684  0.00  0.00    +0.000 A 
ATOM      2  C   UNL     1      -0.131  13.188  19.032  0.00  0.00    +0.000 A 
ATOM      3  C   UNL     1       0.611  13.692  20.097  0.00  0.00    +0.000 A 
ATOM      4  C   UNL     1       1.448  12.836  20.806  0.00  0.00    +0.000 A 
ATOM      5  C   UNL     1       1.539  11.484  20.445  0.00  0.00    +0.000 A 
ATOM      6  C   UNL     1       0.796  10.930  19.382  0.00  0.00    +0.000 A 
ENDROOT
BRANCH   6   7
ATOM      7  N   UNL     1       0.930   9.585  19.047  0.00  0.00    +0.000 N 
ATOM      8  C   UNL     1       0.680   8.527  20.029  0.00  0.00    +0.000 C 
ATOM      9  C   UNL     1       1.985   7.814  20.362  0.00  0.00    +0.000 C 
ATOM     10  C   UNL     1       2.618   7.207  19.103  0.00  0.00    +0.000 C 
ATOM     11  C   UNL     1       2.831   8.320  18.074  0.00  0.00    +0.000 C 
ATOM     12  C   UNL     1       1.564   9.130  17.800  0.00  0.00    +0.000 C 
BRANCH  10  13
ATOM     13  O   UNL     1       1.781   6.204  18.507  0.00  0.00    +0.000 OA
BRANCH  13  14
ATOM     14  C   UNL     1       2.181   4.896  18.581  0.00  0.00    +0.000 A 
ATOM     15  C   UNL     1       1.606   3.927  19.408  0.00  0.00    +0.000 A 
ATOM     16  C   UNL     1       2.045   2.602  19.358  0.00  0.00    +0.000 A 
ATOM     17  C   UNL     1       3.077   2.249  18.499  0.00  0.00    +0.000 A 
ATOM     18  F   UNL     1       3.492   0.976  18.461  0.00  0.00    +0.000 F 
ATOM     19  C   UNL     1       3.677   3.193  17.680  0.00  0.00    +0.000 A 
ATOM     20  C   UNL     1       3.218   4.507  17.721  0.00  0.00    +0.000 A 
ATOM     21  F   UNL     1       3.804   5.412  16.921  0.00  0.00    +0.000 F 
ENDBRANCH  13  14
ENDBRANCH  10  13
ENDBRANCH   6   7
BRANCH   1  24
ATOM     22  C   UNL     1      -2.285  11.272  17.866  0.00  0.00    +0.000 C 
ATOM     23  O   UNL     1      -2.862  11.503  18.926  0.00  0.00    +0.000 OA
ATOM     24  N   UNL     1      -0.914  11.353  17.679  0.00  0.00    +0.000 N 
ATOM     25  H   UNL     1      -0.605  11.466  16.718  0.00  0.00    +0.000 HD
BRANCH  22  29
ATOM     26  C   UNL     1      -3.795   9.813  13.245  0.00  0.00    +0.000 C 
ATOM     27  C   UNL     1      -3.603  10.294  14.624  0.00  0.00    +0.000 A 
ATOM     28  C   UNL     1      -2.551  10.279  15.504  0.00  0.00    +0.000 A 
ATOM     29  C   UNL     1      -3.034  10.964  16.647  0.00  0.00    +0.000 A 
ATOM     30  N   UNL     1      -4.322  11.315  16.486  0.00  0.00    +0.000 NA
ATOM     31  O   UNL     1      -4.666  10.908  15.207  0.00  0.00    +0.000 OA
ENDBRANCH  22  29
ENDBRANCH   1  24
BRANCH   3  32
ATOM     32  C   UNL     1       0.497  15.069  20.471  0.00  0.00    +0.000 C 
ATOM     33  N   UNL     1       0.416  16.193  20.762  0.00  0.00    +0.000 NA
ENDBRANCH   3  32
TORSDOF 6
ENDMDL
MODEL 5
REMARK VINA RESULT:      -7.1      5.234      8.449
REMARK  Name = 
REMARK  7 active torsions:
REMARK  status: ('A' for Active; 'I' for Inactive)
REMARK    1  A    between atoms: C_1  and  C_2
REMARK    2  A    between atoms: C_4  and  C_5
REMARK    3  A    between atoms: N_7  and  C_8
REMARK    4  A    between atoms: C_10  and  C_11
REMARK    5  A    between atoms: C_15  and  N_16
REMARK    6  A    between atoms: C_19  and  O_20
REMARK    7  A    between atoms: O_20  and  C_21
REMARK                            x       y       z     vdW  Elec       q    Type
REMARK                         _______ _______ _______ _____ _____    ______ ____
ROOT
ATOM      1  C   UNL     1       0.018  11.859  21.188  0.00  0.00    +0.000 A 
ATOM      2  C   UNL     1      -1.121  11.557  21.953  0.00  0.00    +0.000 A 
ATOM      3  C   UNL     1      -1.751  12.545  22.706  0.00  0.00    +0.000 A 
ATOM      4  C   UNL     1      -1.247  13.841  22.679  0.00  0.00    +0.000 A 
ATOM      5  C   UNL     1      -0.120  14.141  21.901  0.00  0.00    +0.000 A 
ATOM      6  C   UNL     1       0.555  13.169  21.135  0.00  0.00    +0.000 A 
ENDROOT
BRANCH   6   7
ATOM      7  N   UNL     1       1.661  13.515  20.362  0.00  0.00    +0.000 N 
ATOM      8  C   UNL     1       2.966  13.773  20.975  0.00  0.00    +0.000 C 
ATOM      9  C   UNL     1       3.324  15.246  20.822  0.00  0.00    +0.000 C 
ATOM     10  C   UNL     1       3.360  15.655  19.344  0.00  0.00    +0.000 C 
ATOM     11  C   UNL     1       2.003  15.337  18.712  0.00  0.00    +0.000 C 
ATOM     12  C   UNL     1       1.561  13.892  18.944  0.00  0.00    +0.000 C 
BRANCH  10  13
ATOM     13  O   UNL     1       4.370  14.944  18.611  0.00  0.00    +0.000 OA
BRANCH  13  14
ATOM     14  C   UNL     1       5.603  15.525  18.473  0.00  0.00    +0.000 A 
ATOM     15  C   UNL     1       5.940  16.805  18.919  0.00  0.00    +0.000 A 
ATOM     16  C   UNL     1       7.247  17.279  18.790  0.00  0.00    +0.000 A 
ATOM     17  C   UNL     1       8.215  16.482  18.193  0.00  0.00    +0.000 A 
ATOM     18  F   UNL     1       9.464  16.947  18.071  0.00  0.00    +0.000 F 
ATOM     19  C   UNL     1       7.904  15.214  17.726  0.00  0.00    +0.000 A 
ATOM     20  C   UNL     1       6.602  14.741  17.878  0.00  0.00    +0.000 A 
ATOM     21  F   UNL     1       6.314  13.511  17.426  0.00  0.00    +0.000 F 
ENDBRANCH  13  14
ENDBRANCH  10  13
ENDBRANCH   6   7
BRANCH   1  24
ATOM     22  C   UNL     1       0.359  10.391  19.262  0.00  0.00    +0.000 C 
ATOM     23  O   UNL     1      -0.576  10.839  18.602  0.00  0.00    +0.000 OA
ATOM     24  N   UNL     1       0.682  10.794  20.548  0.00  0.00    +0.000 N 
ATOM     25  H   UNL     1       1.636  10.604  20.844  0.00  0.00    +0.000 HD
BRANCH  22  29
ATOM     26  C   UNL     1       3.481   6.489  18.370  0.00  0.00    +0.000 C 
ATOM     27  C   UNL     1       2.625   7.687  18.387  0.00  0.00    +0.000 A 
ATOM     28  C   UNL     1       1.716   8.201  19.276  0.00  0.00    +0.000 A 
ATOM     29  C   UNL     1       1.294   9.420  18.691  0.00  0.00    +0.000 A 
ATOM     30  N   UNL     1       1.869   9.598  17.488  0.00  0.00    +0.000 NA
ATOM     31  O   UNL     1       2.717   8.517  17.314  0.00  0.00    +0.000 OA
ENDBRANCH  22  29
ENDBRANCH   1  24
BRANCH   3  32
ATOM     32  C   UNL     1      -2.889  12.226  23.513  0.00  0.00    +0.000 C 
ATOM     33  N   UNL     1      -3.821  11.956  24.157  0.00  0.00    +0.000 NA
ENDBRANCH   3  32
TORSDOF 6
ENDMDL
MODEL 6
REMARK VINA RESULT:      -7.0      2.213      3.120
REMARK  Name = 
REMARK  7 active torsions:
REMARK  status: ('A' for Active; 'I' for Inactive)
REMARK    1  A    between atoms: C_1  and  C_2
REMARK    2  A    between atoms: C_4  and  C_5
REMARK    3  A    between atoms: N_7  and  C_8
REMARK    4  A    between atoms: C_10  and  C_11
REMARK    5  A    between atoms: C_15  and  N_16
REMARK    6  A    between atoms: C_19  and  O_20
REMARK    7  A    between atoms: O_20  and  C_21
REMARK                            x       y       z     vdW  Elec       q    Type
REMARK                         _______ _______ _______ _____ _____    ______ ____
ROOT
ATOM      1  C   UNL     1       0.067  13.783  18.689  0.00  0.00    +0.000 A 
ATOM      2  C   UNL     1      -0.202  15.136  18.421  0.00  0.00    +0.000 A 
ATOM      3  C   UNL     1       0.738  16.119  18.723  0.00  0.00    +0.000 A 
ATOM      4  C   UNL     1       1.955  15.742  19.282  0.00  0.00    +0.000 A 
ATOM      5  C   UNL     1       2.225  14.390  19.532  0.00  0.00    +0.000 A 
ATOM      6  C   UNL     1       1.298  13.365  19.253  0.00  0.00    +0.000 A 
ENDROOT
BRANCH   6   7
ATOM      7  N   UNL     1       1.615  12.032  19.501  0.00  0.00    +0.000 N 
ATOM      8  C   UNL     1       2.116  11.158  18.438  0.00  0.00    +0.000 C 
ATOM      9  C   UNL     1       1.080  10.085  18.124  0.00  0.00    +0.000 C 
ATOM     10  C   UNL     1       0.758   9.248  19.368  0.00  0.00    +0.000 C 
ATOM     11  C   UNL     1       0.279  10.184  20.481  0.00  0.00    +0.000 C 
ATOM     12  C   UNL     1       1.244  11.340  20.745  0.00  0.00    +0.000 C 
BRANCH  10  13
ATOM     13  O   UNL     1       1.907   8.534  19.852  0.00  0.00    +0.000 OA
BRANCH  13  14
ATOM     14  C   UNL     1       1.931   7.171  19.711  0.00  0.00    +0.000 A 
ATOM     15  C   UNL     1       1.446   6.260  20.653  0.00  0.00    +0.000 A 
ATOM     16  C   UNL     1       1.456   4.890  20.383  0.00  0.00    +0.000 A 
ATOM     17  C   UNL     1       1.972   4.427  19.180  0.00  0.00    +0.000 A 
ATOM     18  F   UNL     1       1.979   3.111  18.933  0.00  0.00    +0.000 F 
ATOM     19  C   UNL     1       2.475   5.308  18.235  0.00  0.00    +0.000 A 
ATOM     20  C   UNL     1       2.442   6.674  18.504  0.00  0.00    +0.000 A 
ATOM     21  F   UNL     1       2.928   7.517  17.580  0.00  0.00    +0.000 F 
ENDBRANCH  13  14
ENDBRANCH  10  13
ENDBRANCH   6   7
BRANCH   1  24
ATOM     22  C   UNL     1      -1.983  12.655  19.399  0.00  0.00    +0.000 C 
ATOM     23  O   UNL     1      -2.032  13.180  20.508  0.00  0.00    +0.000 OA
ATOM     24  N   UNL     1      -0.968  12.852  18.476  0.00  0.00    +0.000 N 
ATOM     25  H   UNL     1      -1.203  12.641  17.509  0.00  0.00    +0.000 HD
BRANCH  22  29
ATOM     26  C   UNL     1      -6.460  10.495  18.369  0.00  0.00    +0.000 C 
ATOM     27  C   UNL     1      -5.065  10.946  18.509  0.00  0.00    +0.000 A 
ATOM     28  C   UNL     1      -4.464  12.027  19.102  0.00  0.00    +0.000 A 
ATOM     29  C   UNL     1      -3.076  11.813  18.910  0.00  0.00    +0.000 A 
ATOM     30  N   UNL     1      -2.859  10.700  18.188  0.00  0.00    +0.000 NA
ATOM     31  O   UNL     1      -4.110  10.151  17.957  0.00  0.00    +0.000 OA
ENDBRANCH  22  29
ENDBRANCH   1  24
BRANCH   3  32
ATOM     32  C   UNL     1       0.445  17.499  18.483  0.00  0.00    +0.000 C 
ATOM     33  N   UNL     1       0.194  18.621  18.300  0.00  0.00    +0.000 NA
ENDBRANCH   3  32
TORSDOF 6
ENDMDL
MODEL 7
REMARK VINA RESULT:      -6.8      2.594      3.246
REMARK  Name = 
REMARK  7 active torsions:
REMARK  status: ('A' for Active; 'I' for Inactive)
REMARK    1  A    between atoms: C_1  and  C_2
REMARK    2  A    between atoms: C_4  and  C_5
REMARK    3  A    between atoms: N_7  and  C_8
REMARK    4  A    between atoms: C_10  and  C_11
REMARK    5  A    between atoms: C_15  and  N_16
REMARK    6  A    between atoms: C_19  and  O_20
REMARK    7  A    between atoms: O_20  and  C_21
REMARK                            x       y       z     vdW  Elec       q    Type
REMARK                         _______ _______ _______ _____ _____    ______ ____
ROOT
ATOM      1  C   UNL     1      -2.080  13.072  20.968  0.00  0.00    +0.000 A 
ATOM      2  C   UNL     1      -2.924  14.113  21.392  0.00  0.00    +0.000 A 
ATOM      3  C   UNL     1      -2.731  14.721  22.630  0.00  0.00    +0.000 A 
ATOM      4  C   UNL     1      -1.683  14.295  23.438  0.00  0.00    +0.000 A 
ATOM      5  C   UNL     1      -0.833  13.268  23.004  0.00  0.00    +0.000 A 
ATOM      6  C   UNL     1      -1.000  12.617  21.765  0.00  0.00    +0.000 A 
ENDROOT
BRANCH   6   7
ATOM      7  N   UNL     1      -0.122  11.612  21.366  0.00  0.00    +0.000 N 
ATOM      8  C   UNL     1       1.072  11.915  20.574  0.00  0.00    +0.000 C 
ATOM      9  C   UNL     1       0.926  11.324  19.177  0.00  0.00    +0.000 C 
ATOM     10  C   UNL     1       0.723   9.805  19.239  0.00  0.00    +0.000 C 
ATOM     11  C   UNL     1      -0.503   9.507  20.107  0.00  0.00    +0.000 C 
ATOM     12  C   UNL     1      -0.440  10.180  21.478  0.00  0.00    +0.000 C 
BRANCH  10  13
ATOM     13  O   UNL     1       1.852   9.131  19.818  0.00  0.00    +0.000 OA
BRANCH  13  14
ATOM     14  C   UNL     1       2.140   7.862  19.391  0.00  0.00    +0.000 A 
ATOM     15  C   UNL     1       2.705   7.542  18.154  0.00  0.00    +0.000 A 
ATOM     16  C   UNL     1       3.023   6.218  17.842  0.00  0.00    +0.000 A 
ATOM     17  C   UNL     1       2.756   5.209  18.758  0.00  0.00    +0.000 A 
ATOM     18  F   UNL     1       3.062   3.944  18.448  0.00  0.00    +0.000 F 
ATOM     19  C   UNL     1       2.181   5.497  19.987  0.00  0.00    +0.000 A 
ATOM     20  C   UNL     1       1.886   6.822  20.298  0.00  0.00    +0.000 A 
ATOM     21  F   UNL     1       1.333   7.089  21.490  0.00  0.00    +0.000 F 
ENDBRANCH  13  14
ENDBRANCH  10  13
ENDBRANCH   6   7
BRANCH   1  24
ATOM     22  C   UNL     1      -3.707  12.122  19.410  0.00  0.00    +0.000 C 
ATOM     23  O   UNL     1      -4.686  12.307  20.130  0.00  0.00    +0.000 OA
ATOM     24  N   UNL     1      -2.400  12.415  19.764  0.00  0.00    +0.000 N 
ATOM     25  H   UNL     1      -1.749  12.530  18.992  0.00  0.00    +0.000 HD
BRANCH  22  29
ATOM     26  C   UNL     1      -3.020  10.285  14.728  0.00  0.00    +0.000 C 
ATOM     27  C   UNL     1      -3.467  10.823  16.024  0.00  0.00    +0.000 A 
ATOM     28  C   UNL     1      -2.853  11.049  17.229  0.00  0.00    +0.000 A 
ATOM     29  C   UNL     1      -3.857  11.638  18.037  0.00  0.00    +0.000 A 
ATOM     30  N   UNL     1      -5.026  11.704  17.375  0.00  0.00    +0.000 NA
ATOM     31  O   UNL     1      -4.768  11.208  16.107  0.00  0.00    +0.000 OA
ENDBRANCH  22  29
ENDBRANCH   1  24
BRANCH   3  32
ATOM     32  C   UNL     1      -3.615  15.756  23.074  0.00  0.00    +0.000 C 
ATOM     33  N   UNL     1      -4.348  16.586  23.431  0.00  0.00    +0.000 NA
ENDBRANCH   3  32
TORSDOF 6
ENDMDL
MODEL 8
REMARK VINA RESULT:      -6.8      2.667      3.071
REMARK  Name = 
REMARK  7 active torsions:
REMARK  status: ('A' for Active; 'I' for Inactive)
REMARK    1  A    between atoms: C_1  and  C_2
REMARK    2  A    between atoms: C_4  and  C_5
REMARK    3  A    between atoms: N_7  and  C_8
REMARK    4  A    between atoms: C_10  and  C_11
REMARK    5  A    between atoms: C_15  and  N_16
REMARK    6  A    between atoms: C_19  and  O_20
REMARK    7  A    between atoms: O_20  and  C_21
REMARK                            x       y       z     vdW  Elec       q    Type
REMARK                         _______ _______ _______ _____ _____    ______ ____
ROOT
ATOM      1  C   UNL     1      -2.299  12.302  20.758  0.00  0.00    +0.000 A 
ATOM      2  C   UNL     1      -3.109  13.320  21.292  0.00  0.00    +0.000 A 
ATOM      3  C   UNL     1      -2.827  13.867  22.541  0.00  0.00    +0.000 A 
ATOM      4  C   UNL     1      -1.724  13.403  23.251  0.00  0.00    +0.000 A 
ATOM      5  C   UNL     1      -0.910  12.400  22.707  0.00  0.00    +0.000 A 
ATOM      6  C   UNL     1      -1.166  11.810  21.452  0.00  0.00    +0.000 A 
ENDROOT
BRANCH   6   7
ATOM      7  N   UNL     1      -0.320  10.828  20.943  0.00  0.00    +0.000 N 
ATOM      8  C   UNL     1      -0.841   9.538  20.484  0.00  0.00    +0.000 C 
ATOM      9  C   UNL     1      -0.361   8.429  21.412  0.00  0.00    +0.000 C 
ATOM     10  C   UNL     1       1.171   8.376  21.461  0.00  0.00    +0.000 C 
ATOM     11  C   UNL     1       1.697   9.744  21.900  0.00  0.00    +0.000 C 
ATOM     12  C   UNL     1       1.145  10.894  21.058  0.00  0.00    +0.000 C 
BRANCH  10  13
ATOM     13  O   UNL     1       1.743   8.070  20.179  0.00  0.00    +0.000 OA
BRANCH  13  14
ATOM     14  C   UNL     1       2.057   6.765  19.903  0.00  0.00    +0.000 A 
ATOM     15  C   UNL     1       1.774   5.679  20.736  0.00  0.00    +0.000 A 
ATOM     16  C   UNL     1       2.076   4.378  20.330  0.00  0.00    +0.000 A 
ATOM     17  C   UNL     1       2.682   4.161  19.099  0.00  0.00    +0.000 A 
ATOM     18  F   UNL     1       2.969   2.910  18.721  0.00  0.00    +0.000 F 
ATOM     19  C   UNL     1       2.989   5.222  18.260  0.00  0.00    +0.000 A 
ATOM     20  C   UNL     1       2.665   6.515  18.664  0.00  0.00    +0.000 A 
ATOM     21  F   UNL     1       2.963   7.533  17.843  0.00  0.00    +0.000 F 
ENDBRANCH  13  14
ENDBRANCH  10  13
ENDBRANCH   6   7
BRANCH   1  24
ATOM     22  C   UNL     1      -2.082  11.985  18.343  0.00  0.00    +0.000 C 
ATOM     23  O   UNL     1      -1.204  12.830  18.189  0.00  0.00    +0.000 OA
ATOM     24  N   UNL     1      -2.705  11.705  19.549  0.00  0.00    +0.000 N 
ATOM     25  H   UNL     1      -3.149  10.793  19.615  0.00  0.00    +0.000 HD
BRANCH  22  29
ATOM     26  C   UNL     1      -3.507  10.002  13.894  0.00  0.00    +0.000 C 
ATOM     27  C   UNL     1      -3.101  10.336  15.269  0.00  0.00    +0.000 A 
ATOM     28  C   UNL     1      -2.645  11.475  15.882  0.00  0.00    +0.000 A 
ATOM     29  C   UNL     1      -2.496  11.113  17.243  0.00  0.00    +0.000 A 
ATOM     30  N   UNL     1      -2.787   9.812  17.427  0.00  0.00    +0.000 NA
ATOM     31  O   UNL     1      -3.184   9.337  16.187  0.00  0.00    +0.000 OA
ENDBRANCH  22  29
ENDBRANCH   1  24
BRANCH   3  32
ATOM     32  C   UNL     1      -3.676  14.876  23.097  0.00  0.00    +0.000 C 
ATOM     33  N   UNL     1      -4.372  15.686  23.562  0.00  0.00    +0.000 NA
ENDBRANCH   3  32
TORSDOF 6
ENDMDL
MODEL 9
REMARK VINA RESULT:      -6.8      3.594      5.420
REMARK  Name = 
REMARK  7 active torsions:
REMARK  status: ('A' for Active; 'I' for Inactive)
REMARK    1  A    between atoms: C_1  and  C_2
REMARK    2  A    between atoms: C_4  and  C_5
REMARK    3  A    between atoms: N_7  and  C_8
REMARK    4  A    between atoms: C_10  and  C_11
REMARK    5  A    between atoms: C_15  and  N_16
REMARK    6  A    between atoms: C_19  and  O_20
REMARK    7  A    between atoms: O_20  and  C_21
REMARK                            x       y       z     vdW  Elec       q    Type
REMARK                         _______ _______ _______ _____ _____    ______ ____
ROOT
ATOM      1  C   UNL     1      -1.155  13.479  21.957  0.00  0.00    +0.000 A 
ATOM      2  C   UNL     1      -2.049  14.470  22.396  0.00  0.00    +0.000 A 
ATOM      3  C   UNL     1      -3.078  14.155  23.281  0.00  0.00    +0.000 A 
ATOM      4  C   UNL     1      -3.201  12.846  23.737  0.00  0.00    +0.000 A 
ATOM      5  C   UNL     1      -2.297  11.864  23.308  0.00  0.00    +0.000 A 
ATOM      6  C   UNL     1      -1.249  12.138  22.404  0.00  0.00    +0.000 A 
ENDROOT
BRANCH   6   7
ATOM      7  N   UNL     1      -0.363  11.136  22.019  0.00  0.00    +0.000 N 
ATOM      8  C   UNL     1       0.045  10.977  20.621  0.00  0.00    +0.000 C 
ATOM      9  C   UNL     1      -0.516   9.674  20.066  0.00  0.00    +0.000 C 
ATOM     10  C   UNL     1      -0.029   8.471  20.883  0.00  0.00    +0.000 C 
ATOM     11  C   UNL     1      -0.427   8.676  22.347  0.00  0.00    +0.000 C 
ATOM     12  C   UNL     1       0.025  10.026  22.903  0.00  0.00    +0.000 C 
BRANCH  10  13
ATOM     13  O   UNL     1       1.399   8.321  20.827  0.00  0.00    +0.000 OA
BRANCH  13  14
ATOM     14  C   UNL     1       1.914   7.276  20.106  0.00  0.00    +0.000 A 
ATOM     15  C   UNL     1       1.925   5.943  20.524  0.00  0.00    +0.000 A 
ATOM     16  C   UNL     1       2.414   4.941  19.683  0.00  0.00    +0.000 A 
ATOM     17  C   UNL     1       2.916   5.274  18.432  0.00  0.00    +0.000 A 
ATOM     18  F   UNL     1       3.385   4.306  17.635  0.00  0.00    +0.000 F 
ATOM     19  C   UNL     1       2.932   6.591  17.998  0.00  0.00    +0.000 A 
ATOM     20  C   UNL     1       2.423   7.581  18.835  0.00  0.00    +0.000 A 
ATOM     21  F   UNL     1       2.441   8.851  18.404  0.00  0.00    +0.000 F 
ENDBRANCH  13  14
ENDBRANCH  10  13
ENDBRANCH   6   7
BRANCH   1  24
ATOM     22  C   UNL     1       1.034  14.341  21.291  0.00  0.00    +0.000 C 
ATOM     23  O   UNL     1       1.405  14.621  22.428  0.00  0.00    +0.000 OA
ATOM     24  N   UNL     1      -0.215  13.833  20.970  0.00  0.00    +0.000 N 
ATOM     25  H   UNL     1      -0.277  13.344  20.081  0.00  0.00    +0.000 HD
BRANCH  22  29
ATOM     26  C   UNL     1       3.753  15.836  17.273  0.00  0.00    +0.000 C 
ATOM     27  C   UNL     1       3.093  15.182  18.416  0.00  0.00    +0.000 A 
ATOM     28  C   UNL     1       2.240  15.611  19.401  0.00  0.00    +0.000 A 
ATOM     29  C   UNL     1       1.945  14.445  20.150  0.00  0.00    +0.000 A 
ATOM     30  N   UNL     1       2.632  13.388  19.679  0.00  0.00    +0.000 NA
ATOM     31  O   UNL     1       3.334  13.855  18.580  0.00  0.00    +0.000 OA
ENDBRANCH  22  29
ENDBRANCH   1  24
BRANCH   3  32
ATOM     32  C   UNL     1      -4.009  15.158  23.697  0.00  0.00    +0.000 C 
ATOM     33  N   UNL     1      -4.778  15.969  24.023  0.00  0.00    +0.000 NA
ENDBRANCH   3  32
TORSDOF 6
ENDMDL
