MODEL 1
REMARK VINA RESULT:      -5.9      0.000      0.000
REMARK  Name = 
REMARK  12 active torsions:
REMARK  status: ('A' for Active; 'I' for Inactive)
REMARK    1  A    between atoms: N_1  and  C_2
REMARK    2  A    between atoms: C_5  and  O_6
REMARK    3  A    between atoms: O_6  and  C_7
REMARK    4  A    between atoms: C_7  and  C_8
REMARK    5  A    between atoms: N_10  and  C_11
REMARK    6  A    between atoms: C_11  and  C_12
REMARK    7  A    between atoms: C_12  and  C_13
REMARK    8  A    between atoms: C_13  and  C_14
REMARK    9  A    between atoms: C_14  and  C_15
REMARK   10  A    between atoms: C_15  and  N_16
REMARK   11  A    between atoms: C_15  and  C_17
REMARK   12  A    between atoms: C_17  and  O_19
REMARK                            x       y       z     vdW  Elec       q    Type
REMARK                         _______ _______ _______ _____ _____    ______ ____
ROOT
ATOM      1  C   UNK     1       2.996   6.953  18.609  0.00  0.00    +0.000 C 
ATOM      2  O   UNK     1       2.000   7.650  18.428  0.00  0.00    +0.000 OA
ATOM      3  N   UNK     1       3.080   5.998  19.606  0.00  0.00    +0.000 N 
ATOM      4  H   UNK     1       3.951   5.501  19.739  0.00  0.00    +0.000 HD
ENDROOT
BRANCH   1   5
ATOM      5  C   UNK     1       4.248   7.062  17.739  0.00  0.00    +0.000 C 
BRANCH   5   6
ATOM      6  O   UNK     1       5.059   5.916  17.963  0.00  0.00    +0.000 OA
BRANCH   6  10
ATOM      7  C   UNK     1       6.237   3.959  14.454  0.00  0.00    +0.000 A 
ATOM      8  C   UNK     1       5.007   3.714  15.067  0.00  0.00    +0.000 A 
ATOM      9  C   UNK     1       4.658   4.366  16.255  0.00  0.00    +0.000 A 
ATOM     10  C   UNK     1       5.524   5.292  16.836  0.00  0.00    +0.000 A 
ATOM     11  C   UNK     1       6.729   5.586  16.199  0.00  0.00    +0.000 A 
ATOM     12  C   UNK     1       7.069   4.936  15.006  0.00  0.00    +0.000 A 
BRANCH   7  13
ATOM     13  N   UNK     1       6.517   3.425  13.192  0.00  0.00    +0.000 N 
ATOM     14  H   UNK     1       6.029   3.889  12.433  0.00  0.00    +0.000 HD
ATOM     15  H   UNK     1       6.430   2.414  13.144  0.00  0.00    +0.000 HD
ENDBRANCH   7  13
ENDBRANCH   6  10
ENDBRANCH   5   6
ENDBRANCH   1   5
BRANCH   3  16
ATOM     16  C   UNK     1       2.014   5.793  20.566  0.00  0.00    +0.000 C 
BRANCH  16  17
ATOM     17  C   UNK     1       1.654   4.315  20.719  0.00  0.00    +0.000 C 
BRANCH  17  18
ATOM     18  C   UNK     1       1.549   3.643  19.348  0.00  0.00    +0.000 C 
BRANCH  18  19
ATOM     19  C   UNK     1       2.139   2.225  19.350  0.00  0.00    +0.000 C 
BRANCH  19  20
ATOM     20  C   UNK     1       3.565   2.174  18.777  0.00  0.00    +0.000 C 
BRANCH  20  21
ATOM     21  N   UNK     1       3.851   0.823  18.240  0.00  0.00    +0.000 NA
ATOM     22  H   UNK     1       4.814   0.582  18.490  0.00  0.00    +0.000 HD
ATOM     23  H   UNK     1       3.890   0.895  17.219  0.00  0.00    +0.000 HD
ENDBRANCH  20  21
BRANCH  20  24
ATOM     24  C   UNK     1       4.623   2.534  19.846  0.00  0.00    +0.000 C 
ATOM     25  O   UNK     1       5.007   1.760  20.710  0.00  0.00    +0.000 OA
BRANCH  24  26
ATOM     26  O   UNK     1       5.127   3.782  19.724  0.00  0.00    +0.000 OA
ATOM     27  H   UNK     1       5.774   3.892  19.001  0.00  0.00    +0.000 HD
ENDBRANCH  24  26
ENDBRANCH  20  24
ENDBRANCH  19  20
ENDBRANCH  18  19
ENDBRANCH  17  18
ENDBRANCH  16  17
ENDBRANCH   3  16
TORSDOF 12
ENDMDL
MODEL 2
REMARK VINA RESULT:      -5.8      1.630      2.229
REMARK  Name = 
REMARK  12 active torsions:
REMARK  status: ('A' for Active; 'I' for Inactive)
REMARK    1  A    between atoms: N_1  and  C_2
REMARK    2  A    between atoms: C_5  and  O_6
REMARK    3  A    between atoms: O_6  and  C_7
REMARK    4  A    between atoms: C_7  and  C_8
REMARK    5  A    between atoms: N_10  and  C_11
REMARK    6  A    between atoms: C_11  and  C_12
REMARK    7  A    between atoms: C_12  and  C_13
REMARK    8  A    between atoms: C_13  and  C_14
REMARK    9  A    between atoms: C_14  and  C_15
REMARK   10  A    between atoms: C_15  and  N_16
REMARK   11  A    between atoms: C_15  and  C_17
REMARK   12  A    between atoms: C_17  and  O_19
REMARK                            x       y       z     vdW  Elec       q    Type
REMARK                         _______ _______ _______ _____ _____    ______ ____
ROOT
ATOM      1  C   UNK     1       3.959   5.514  19.412  0.00  0.00    +0.000 C 
ATOM      2  O   UNK     1       4.571   4.458  19.550  0.00  0.00    +0.000 OA
ATOM      3  N   UNK     1       2.848   5.848  20.165  0.00  0.00    +0.000 N 
ATOM      4  H   UNK     1       2.354   6.707  19.959  0.00  0.00    +0.000 HD
ENDROOT
BRANCH   1   5
ATOM      5  C   UNK     1       4.371   6.580  18.397  0.00  0.00    +0.000 C 
BRANCH   5   6
ATOM      6  O   UNK     1       5.726   6.355  18.026  0.00  0.00    +0.000 OA
BRANCH   6  10
ATOM      7  C   UNK     1       6.362   4.297  14.436  0.00  0.00    +0.000 A 
ATOM      8  C   UNK     1       6.957   3.903  15.636  0.00  0.00    +0.000 A 
ATOM      9  C   UNK     1       6.744   4.632  16.811  0.00  0.00    +0.000 A 
ATOM     10  C   UNK     1       5.912   5.752  16.810  0.00  0.00    +0.000 A 
ATOM     11  C   UNK     1       5.268   6.117  15.630  0.00  0.00    +0.000 A 
ATOM     12  C   UNK     1       5.479   5.379  14.458  0.00  0.00    +0.000 A 
BRANCH   7  13
ATOM     13  N   UNK     1       6.452   3.483  13.302  0.00  0.00    +0.000 N 
ATOM     14  H   UNK     1       5.606   2.956  13.107  0.00  0.00    +0.000 HD
ATOM     15  H   UNK     1       7.283   2.899  13.278  0.00  0.00    +0.000 HD
ENDBRANCH   7  13
ENDBRANCH   6  10
ENDBRANCH   5   6
ENDBRANCH   1   5
BRANCH   3  16
ATOM     16  C   UNK     1       2.274   4.938  21.135  0.00  0.00    +0.000 C 
BRANCH  16  17
ATOM     17  C   UNK     1       1.039   4.219  20.588  0.00  0.00    +0.000 C 
BRANCH  17  18
ATOM     18  C   UNK     1       1.284   2.710  20.514  0.00  0.00    +0.000 C 
BRANCH  18  19
ATOM     19  C   UNK     1       0.904   2.126  19.146  0.00  0.00    +0.000 C 
BRANCH  19  20
ATOM     20  C   UNK     1       2.101   2.034  18.186  0.00  0.00    +0.000 C 
BRANCH  20  21
ATOM     21  N   UNK     1       3.354   1.831  18.950  0.00  0.00    +0.000 NA
ATOM     22  H   UNK     1       3.750   0.928  18.673  0.00  0.00    +0.000 HD
ATOM     23  H   UNK     1       3.100   1.679  19.931  0.00  0.00    +0.000 HD
ENDBRANCH  20  21
BRANCH  20  24
ATOM     24  C   UNK     1       2.233   3.304  17.314  0.00  0.00    +0.000 C 
ATOM     25  O   UNK     1       1.337   4.122  17.164  0.00  0.00    +0.000 OA
BRANCH  24  26
ATOM     26  O   UNK     1       3.451   3.464  16.752  0.00  0.00    +0.000 OA
ATOM     27  H   UNK     1       3.445   3.547  15.780  0.00  0.00    +0.000 HD
ENDBRANCH  24  26
ENDBRANCH  20  24
ENDBRANCH  19  20
ENDBRANCH  18  19
ENDBRANCH  17  18
ENDBRANCH  16  17
ENDBRANCH   3  16
TORSDOF 12
ENDMDL
MODEL 3
REMARK VINA RESULT:      -5.8      5.115      8.126
REMARK  Name = 
REMARK  12 active torsions:
REMARK  status: ('A' for Active; 'I' for Inactive)
REMARK    1  A    between atoms: N_1  and  C_2
REMARK    2  A    between atoms: C_5  and  O_6
REMARK    3  A    between atoms: O_6  and  C_7
REMARK    4  A    between atoms: C_7  and  C_8
REMARK    5  A    between atoms: N_10  and  C_11
REMARK    6  A    between atoms: C_11  and  C_12
REMARK    7  A    between atoms: C_12  and  C_13
REMARK    8  A    between atoms: C_13  and  C_14
REMARK    9  A    between atoms: C_14  and  C_15
REMARK   10  A    between atoms: C_15  and  N_16
REMARK   11  A    between atoms: C_15  and  C_17
REMARK   12  A    between atoms: C_17  and  O_19
REMARK                            x       y       z     vdW  Elec       q    Type
REMARK                         _______ _______ _______ _____ _____    ______ ____
ROOT
ATOM      1  C   UNK     1       7.031   5.380  16.722  0.00  0.00    +0.000 C 
ATOM      2  O   UNK     1       7.888   4.625  17.176  0.00  0.00    +0.000 OA
ATOM      3  N   UNK     1       6.995   6.734  16.996  0.00  0.00    +0.000 N 
ATOM      4  H   UNK     1       6.227   7.288  16.639  0.00  0.00    +0.000 HD
ENDROOT
BRANCH   1   5
ATOM      5  C   UNK     1       5.918   4.899  15.791  0.00  0.00    +0.000 C 
BRANCH   5   6
ATOM      6  O   UNK     1       5.197   3.859  16.442  0.00  0.00    +0.000 OA
BRANCH   6  10
ATOM      7  C   UNK     1       2.870   4.962  19.743  0.00  0.00    +0.000 A 
ATOM      8  C   UNK     1       3.737   3.868  19.775  0.00  0.00    +0.000 A 
ATOM      9  C   UNK     1       4.479   3.512  18.643  0.00  0.00    +0.000 A 
ATOM     10  C   UNK     1       4.384   4.259  17.469  0.00  0.00    +0.000 A 
ATOM     11  C   UNK     1       3.565   5.386  17.447  0.00  0.00    +0.000 A 
ATOM     12  C   UNK     1       2.830   5.742  18.586  0.00  0.00    +0.000 A 
BRANCH   7  13
ATOM     13  N   UNK     1       2.249   5.406  20.915  0.00  0.00    +0.000 N 
ATOM     14  H   UNK     1       2.322   6.408  21.063  0.00  0.00    +0.000 HD
ATOM     15  H   UNK     1       2.503   4.875  21.743  0.00  0.00    +0.000 HD
ENDBRANCH   7  13
ENDBRANCH   6  10
ENDBRANCH   5   6
ENDBRANCH   1   5
BRANCH   3  16
ATOM     16  C   UNK     1       7.933   7.360  17.906  0.00  0.00    +0.000 C 
BRANCH  16  17
ATOM     17  C   UNK     1       7.968   8.880  17.740  0.00  0.00    +0.000 C 
BRANCH  17  18
ATOM     18  C   UNK     1       8.850   9.519  18.816  0.00  0.00    +0.000 C 
BRANCH  18  19
ATOM     19  C   UNK     1       9.480  10.837  18.343  0.00  0.00    +0.000 C 
BRANCH  19  20
ATOM     20  C   UNK     1      10.629  11.305  19.251  0.00  0.00    +0.000 C 
BRANCH  20  21
ATOM     21  N   UNK     1      10.090  12.054  20.411  0.00  0.00    +0.000 NA
ATOM     22  H   UNK     1      10.637  11.793  21.236  0.00  0.00    +0.000 HD
ATOM     23  H   UNK     1       9.162  11.677  20.622  0.00  0.00    +0.000 HD
ENDBRANCH  20  21
BRANCH  20  24
ATOM     24  C   UNK     1      11.633  12.198  18.486  0.00  0.00    +0.000 C 
ATOM     25  O   UNK     1      12.035  13.276  18.898  0.00  0.00    +0.000 OA
BRANCH  24  26
ATOM     26  O   UNK     1      12.070  11.666  17.323  0.00  0.00    +0.000 OA
ATOM     27  H   UNK     1      11.397  11.167  16.824  0.00  0.00    +0.000 HD
ENDBRANCH  24  26
ENDBRANCH  20  24
ENDBRANCH  19  20
ENDBRANCH  18  19
ENDBRANCH  17  18
ENDBRANCH  16  17
ENDBRANCH   3  16
TORSDOF 12
ENDMDL
MODEL 4
REMARK VINA RESULT:      -5.8      5.114      8.291
REMARK  Name = 
REMARK  12 active torsions:
REMARK  status: ('A' for Active; 'I' for Inactive)
REMARK    1  A    between atoms: N_1  and  C_2
REMARK    2  A    between atoms: C_5  and  O_6
REMARK    3  A    between atoms: O_6  and  C_7
REMARK    4  A    between atoms: C_7  and  C_8
REMARK    5  A    between atoms: N_10  and  C_11
REMARK    6  A    between atoms: C_11  and  C_12
REMARK    7  A    between atoms: C_12  and  C_13
REMARK    8  A    between atoms: C_13  and  C_14
REMARK    9  A    between atoms: C_14  and  C_15
REMARK   10  A    between atoms: C_15  and  N_16
REMARK   11  A    between atoms: C_15  and  C_17
REMARK   12  A    between atoms: C_17  and  O_19
REMARK                            x       y       z     vdW  Elec       q    Type
REMARK                         _______ _______ _______ _____ _____    ______ ____
ROOT
ATOM      1  C   UNK     1       6.045   6.026  17.553  0.00  0.00    +0.000 C 
ATOM      2  O   UNK     1       6.495   5.239  18.382  0.00  0.00    +0.000 OA
ATOM      3  N   UNK     1       6.678   7.207  17.210  0.00  0.00    +0.000 N 
ATOM      4  H   UNK     1       6.223   7.840  16.565  0.00  0.00    +0.000 HD
ENDROOT
BRANCH   1   5
ATOM      5  C   UNK     1       4.738   5.775  16.801  0.00  0.00    +0.000 C 
BRANCH   5   6
ATOM      6  O   UNK     1       3.694   6.487  17.452  0.00  0.00    +0.000 OA
BRANCH   6  10
ATOM      7  C   UNK     1       1.371   4.045  19.937  0.00  0.00    +0.000 A 
ATOM      8  C   UNK     1       1.472   3.827  18.562  0.00  0.00    +0.000 A 
ATOM      9  C   UNK     1       2.236   4.680  17.758  0.00  0.00    +0.000 A 
ATOM     10  C   UNK     1       2.930   5.752  18.320  0.00  0.00    +0.000 A 
ATOM     11  C   UNK     1       2.882   5.942  19.700  0.00  0.00    +0.000 A 
ATOM     12  C   UNK     1       2.122   5.080  20.501  0.00  0.00    +0.000 A 
BRANCH   7  13
ATOM     13  N   UNK     1       0.736   3.107  20.757  0.00  0.00    +0.000 N 
ATOM     14  H   UNK     1       0.565   2.215  20.303  0.00  0.00    +0.000 HD
ATOM     15  H   UNK     1      -0.089   3.463  21.229  0.00  0.00    +0.000 HD
ENDBRANCH   7  13
ENDBRANCH   6  10
ENDBRANCH   5   6
ENDBRANCH   1   5
BRANCH   3  16
ATOM     16  C   UNK     1       7.896   7.644  17.861  0.00  0.00    +0.000 C 
BRANCH  16  17
ATOM     17  C   UNK     1       8.072   9.162  17.795  0.00  0.00    +0.000 C 
BRANCH  17  18
ATOM     18  C   UNK     1       9.087   9.632  18.839  0.00  0.00    +0.000 C 
BRANCH  18  19
ATOM     19  C   UNK     1       9.244  11.159  18.850  0.00  0.00    +0.000 C 
BRANCH  19  20
ATOM     20  C   UNK     1      10.386  11.647  17.943  0.00  0.00    +0.000 C 
BRANCH  20  21
ATOM     21  N   UNK     1      11.680  11.556  18.659  0.00  0.00    +0.000 NA
ATOM     22  H   UNK     1      12.051  10.612  18.521  0.00  0.00    +0.000 HD
ATOM     23  H   UNK     1      11.483  11.581  19.664  0.00  0.00    +0.000 HD
ENDBRANCH  20  21
BRANCH  20  24
ATOM     24  C   UNK     1      10.160  13.103  17.474  0.00  0.00    +0.000 C 
ATOM     25  O   UNK     1      11.064  13.902  17.279  0.00  0.00    +0.000 OA
BRANCH  24  26
ATOM     26  O   UNK     1       8.865  13.417  17.254  0.00  0.00    +0.000 OA
ATOM     27  H   UNK     1       8.538  13.199  16.360  0.00  0.00    +0.000 HD
ENDBRANCH  24  26
ENDBRANCH  20  24
ENDBRANCH  19  20
ENDBRANCH  18  19
ENDBRANCH  17  18
ENDBRANCH  16  17
ENDBRANCH   3  16
TORSDOF 12
ENDMDL
MODEL 5
REMARK VINA RESULT:      -5.7      5.329      8.210
REMARK  Name = 
REMARK  12 active torsions:
REMARK  status: ('A' for Active; 'I' for Inactive)
REMARK    1  A    between atoms: N_1  and  C_2
REMARK    2  A    between atoms: C_5  and  O_6
REMARK    3  A    between atoms: O_6  and  C_7
REMARK    4  A    between atoms: C_7  and  C_8
REMARK    5  A    between atoms: N_10  and  C_11
REMARK    6  A    between atoms: C_11  and  C_12
REMARK    7  A    between atoms: C_12  and  C_13
REMARK    8  A    between atoms: C_13  and  C_14
REMARK    9  A    between atoms: C_14  and  C_15
REMARK   10  A    between atoms: C_15  and  N_16
REMARK   11  A    between atoms: C_15  and  C_17
REMARK   12  A    between atoms: C_17  and  O_19
REMARK                            x       y       z     vdW  Elec       q    Type
REMARK                         _______ _______ _______ _____ _____    ______ ____
ROOT
ATOM      1  C   UNK     1       6.545   6.600  16.728  0.00  0.00    +0.000 C 
ATOM      2  O   UNK     1       7.442   6.070  16.076  0.00  0.00    +0.000 OA
ATOM      3  N   UNK     1       6.778   7.564  17.691  0.00  0.00    +0.000 N 
ATOM      4  H   UNK     1       6.000   7.917  18.233  0.00  0.00    +0.000 HD
ENDROOT
BRANCH   1   5
ATOM      5  C   UNK     1       5.068   6.256  16.531  0.00  0.00    +0.000 C 
BRANCH   5   6
ATOM      6  O   UNK     1       4.429   6.247  17.802  0.00  0.00    +0.000 OA
BRANCH   6  10
ATOM      7  C   UNK     1       2.158   2.818  18.585  0.00  0.00    +0.000 A 
ATOM      8  C   UNK     1       1.587   3.994  18.094  0.00  0.00    +0.000 A 
ATOM      9  C   UNK     1       2.373   5.130  17.871  0.00  0.00    +0.000 A 
ATOM     10  C   UNK     1       3.747   5.100  18.111  0.00  0.00    +0.000 A 
ATOM     11  C   UNK     1       4.334   3.914  18.545  0.00  0.00    +0.000 A 
ATOM     12  C   UNK     1       3.543   2.777  18.760  0.00  0.00    +0.000 A 
BRANCH   7  13
ATOM     13  N   UNK     1       1.402   1.644  18.662  0.00  0.00    +0.000 N 
ATOM     14  H   UNK     1       1.457   1.180  19.563  0.00  0.00    +0.000 HD
ATOM     15  H   UNK     1       1.555   1.003  17.889  0.00  0.00    +0.000 HD
ENDBRANCH   7  13
ENDBRANCH   6  10
ENDBRANCH   5   6
ENDBRANCH   1   5
BRANCH   3  16
ATOM     16  C   UNK     1       8.118   7.976  18.059  0.00  0.00    +0.000 C 
BRANCH  16  17
ATOM     17  C   UNK     1       8.311   9.488  17.928  0.00  0.00    +0.000 C 
BRANCH  17  18
ATOM     18  C   UNK     1       9.195  10.017  19.060  0.00  0.00    +0.000 C 
BRANCH  18  19
ATOM     19  C   UNK     1       9.365  11.541  18.999  0.00  0.00    +0.000 C 
BRANCH  19  20
ATOM     20  C   UNK     1      10.083  12.009  17.722  0.00  0.00    +0.000 C 
BRANCH  20  21
ATOM     21  N   UNK     1      11.446  11.431  17.662  0.00  0.00    +0.000 NA
ATOM     22  H   UNK     1      11.508  10.696  18.372  0.00  0.00    +0.000 HD
ATOM     23  H   UNK     1      12.101  12.139  18.007  0.00  0.00    +0.000 HD
ENDBRANCH  20  21
BRANCH  20  24
ATOM     24  C   UNK     1      10.177  13.551  17.652  0.00  0.00    +0.000 C 
ATOM     25  O   UNK     1       9.791  14.296  18.540  0.00  0.00    +0.000 OA
BRANCH  24  26
ATOM     26  O   UNK     1      10.767  14.017  16.529  0.00  0.00    +0.000 OA
ATOM     27  H   UNK     1      10.177  14.081  15.754  0.00  0.00    +0.000 HD
ENDBRANCH  24  26
ENDBRANCH  20  24
ENDBRANCH  19  20
ENDBRANCH  18  19
ENDBRANCH  17  18
ENDBRANCH  16  17
ENDBRANCH   3  16
TORSDOF 12
ENDMDL
MODEL 6
REMARK VINA RESULT:      -5.7      2.951      6.183
REMARK  Name = 
REMARK  12 active torsions:
REMARK  status: ('A' for Active; 'I' for Inactive)
REMARK    1  A    between atoms: N_1  and  C_2
REMARK    2  A    between atoms: C_5  and  O_6
REMARK    3  A    between atoms: O_6  and  C_7
REMARK    4  A    between atoms: C_7  and  C_8
REMARK    5  A    between atoms: N_10  and  C_11
REMARK    6  A    between atoms: C_11  and  C_12
REMARK    7  A    between atoms: C_12  and  C_13
REMARK    8  A    between atoms: C_13  and  C_14
REMARK    9  A    between atoms: C_14  and  C_15
REMARK   10  A    between atoms: C_15  and  N_16
REMARK   11  A    between atoms: C_15  and  C_17
REMARK   12  A    between atoms: C_17  and  O_19
REMARK                            x       y       z     vdW  Elec       q    Type
REMARK                         _______ _______ _______ _____ _____    ______ ____
ROOT
ATOM      1  C   UNK     1       1.750   4.296  19.652  0.00  0.00    +0.000 C 
ATOM      2  O   UNK     1       1.339   3.173  19.937  0.00  0.00    +0.000 OA
ATOM      3  N   UNK     1       2.465   4.570  18.501  0.00  0.00    +0.000 N 
ATOM      4  H   UNK     1       2.826   5.504  18.357  0.00  0.00    +0.000 HD
ENDROOT
BRANCH   1   5
ATOM      5  C   UNK     1       1.503   5.515  20.541  0.00  0.00    +0.000 C 
BRANCH   5   6
ATOM      6  O   UNK     1       2.476   6.506  20.236  0.00  0.00    +0.000 OA
BRANCH   6  10
ATOM      7  C   UNK     1       0.977  10.125  18.756  0.00  0.00    +0.000 A 
ATOM      8  C   UNK     1       0.778   9.721  20.078  0.00  0.00    +0.000 A 
ATOM      9  C   UNK     1       1.269   8.491  20.530  0.00  0.00    +0.000 A 
ATOM     10  C   UNK     1       1.989   7.657  19.674  0.00  0.00    +0.000 A 
ATOM     11  C   UNK     1       2.242   8.079  18.371  0.00  0.00    +0.000 A 
ATOM     12  C   UNK     1       1.754   9.314  17.926  0.00  0.00    +0.000 A 
BRANCH   7  13
ATOM     13  N   UNK     1       0.619  11.415  18.350  0.00  0.00    +0.000 N 
ATOM     14  H   UNK     1       1.395  12.070  18.337  0.00  0.00    +0.000 HD
ATOM     15  H   UNK     1      -0.192  11.789  18.833  0.00  0.00    +0.000 HD
ENDBRANCH   7  13
ENDBRANCH   6  10
ENDBRANCH   5   6
ENDBRANCH   1   5
BRANCH   3  16
ATOM     16  C   UNK     1       2.848   3.530  17.567  0.00  0.00    +0.000 C 
BRANCH  16  17
ATOM     17  C   UNK     1       4.121   3.888  16.798  0.00  0.00    +0.000 C 
BRANCH  17  18
ATOM     18  C   UNK     1       4.444   5.376  16.954  0.00  0.00    +0.000 C 
BRANCH  18  19
ATOM     19  C   UNK     1       5.715   5.777  16.194  0.00  0.00    +0.000 C 
BRANCH  19  20
ATOM     20  C   UNK     1       6.570   4.566  15.784  0.00  0.00    +0.000 C 
BRANCH  20  21
ATOM     21  N   UNK     1       7.802   4.509  16.605  0.00  0.00    +0.000 NA
ATOM     22  H   UNK     1       7.585   3.998  17.465  0.00  0.00    +0.000 HD
ATOM     23  H   UNK     1       7.996   5.456  16.942  0.00  0.00    +0.000 HD
ENDBRANCH  20  21
BRANCH  20  24
ATOM     24  C   UNK     1       6.953   4.618  14.287  0.00  0.00    +0.000 C 
ATOM     25  O   UNK     1       6.457   3.899  13.432  0.00  0.00    +0.000 OA
BRANCH  24  26
ATOM     26  O   UNK     1       7.867   5.566  13.984  0.00  0.00    +0.000 OA
ATOM     27  H   UNK     1       8.350   5.417  13.149  0.00  0.00    +0.000 HD
ENDBRANCH  24  26
ENDBRANCH  20  24
ENDBRANCH  19  20
ENDBRANCH  18  19
ENDBRANCH  17  18
ENDBRANCH  16  17
ENDBRANCH   3  16
TORSDOF 12
ENDMDL
MODEL 7
REMARK VINA RESULT:      -5.7      5.181      8.299
REMARK  Name = 
REMARK  12 active torsions:
REMARK  status: ('A' for Active; 'I' for Inactive)
REMARK    1  A    between atoms: N_1  and  C_2
REMARK    2  A    between atoms: C_5  and  O_6
REMARK    3  A    between atoms: O_6  and  C_7
REMARK    4  A    between atoms: C_7  and  C_8
REMARK    5  A    between atoms: N_10  and  C_11
REMARK    6  A    between atoms: C_11  and  C_12
REMARK    7  A    between atoms: C_12  and  C_13
REMARK    8  A    between atoms: C_13  and  C_14
REMARK    9  A    between atoms: C_14  and  C_15
REMARK   10  A    between atoms: C_15  and  N_16
REMARK   11  A    between atoms: C_15  and  C_17
REMARK   12  A    between atoms: C_17  and  O_19
REMARK                            x       y       z     vdW  Elec       q    Type
REMARK                         _______ _______ _______ _____ _____    ______ ____
ROOT
ATOM      1  C   UNK     1       6.284   6.633  17.348  0.00  0.00    +0.000 C 
ATOM      2  O   UNK     1       6.815   5.651  17.862  0.00  0.00    +0.000 OA
ATOM      3  N   UNK     1       6.876   7.881  17.313  0.00  0.00    +0.000 N 
ATOM      4  H   UNK     1       6.359   8.661  16.928  0.00  0.00    +0.000 HD
ENDROOT
BRANCH   1   5
ATOM      5  C   UNK     1       4.910   6.572  16.680  0.00  0.00    +0.000 C 
BRANCH   5   6
ATOM      6  O   UNK     1       3.935   7.047  17.600  0.00  0.00    +0.000 OA
BRANCH   6  10
ATOM      7  C   UNK     1       1.596   4.275  19.692  0.00  0.00    +0.000 A 
ATOM      8  C   UNK     1       1.929   5.522  20.225  0.00  0.00    +0.000 A 
ATOM      9  C   UNK     1       2.736   6.412  19.509  0.00  0.00    +0.000 A 
ATOM     10  C   UNK     1       3.203   6.080  18.237  0.00  0.00    +0.000 A 
ATOM     11  C   UNK     1       2.828   4.862  17.673  0.00  0.00    +0.000 A 
ATOM     12  C   UNK     1       2.013   3.978  18.392  0.00  0.00    +0.000 A 
BRANCH   7  13
ATOM     13  N   UNK     1       0.668   3.454  20.340  0.00  0.00    +0.000 N 
ATOM     14  H   UNK     1       0.969   3.141  21.258  0.00  0.00    +0.000 HD
ATOM     15  H   UNK     1       0.322   2.690  19.768  0.00  0.00    +0.000 HD
ENDBRANCH   7  13
ENDBRANCH   6  10
ENDBRANCH   5   6
ENDBRANCH   1   5
BRANCH   3  16
ATOM     16  C   UNK     1       8.152   8.146  17.948  0.00  0.00    +0.000 C 
BRANCH  16  17
ATOM     17  C   UNK     1       8.494   9.637  17.952  0.00  0.00    +0.000 C 
BRANCH  17  18
ATOM     18  C   UNK     1       9.028  10.062  19.322  0.00  0.00    +0.000 C 
BRANCH  18  19
ATOM     19  C   UNK     1      10.228  11.014  19.207  0.00  0.00    +0.000 C 
BRANCH  19  20
ATOM     20  C   UNK     1      10.384  11.604  17.795  0.00  0.00    +0.000 C 
BRANCH  20  21
ATOM     21  N   UNK     1      11.816  11.657  17.420  0.00  0.00    +0.000 NA
ATOM     22  H   UNK     1      12.364  11.326  18.219  0.00  0.00    +0.000 HD
ATOM     23  H   UNK     1      12.085  12.643  17.349  0.00  0.00    +0.000 HD
ENDBRANCH  20  21
BRANCH  20  24
ATOM     24  C   UNK     1       9.778  13.024  17.701  0.00  0.00    +0.000 C 
ATOM     25  O   UNK     1      10.440  14.036  17.526  0.00  0.00    +0.000 OA
BRANCH  24  26
ATOM     26  O   UNK     1       8.429  13.055  17.787  0.00  0.00    +0.000 OA
ATOM     27  H   UNK     1       8.006  13.791  17.306  0.00  0.00    +0.000 HD
ENDBRANCH  24  26
ENDBRANCH  20  24
ENDBRANCH  19  20
ENDBRANCH  18  19
ENDBRANCH  17  18
ENDBRANCH  16  17
ENDBRANCH   3  16
TORSDOF 12
ENDMDL
MODEL 8
REMARK VINA RESULT:      -5.7      2.002      2.818
REMARK  Name = 
REMARK  12 active torsions:
REMARK  status: ('A' for Active; 'I' for Inactive)
REMARK    1  A    between atoms: N_1  and  C_2
REMARK    2  A    between atoms: C_5  and  O_6
REMARK    3  A    between atoms: O_6  and  C_7
REMARK    4  A    between atoms: C_7  and  C_8
REMARK    5  A    between atoms: N_10  and  C_11
REMARK    6  A    between atoms: C_11  and  C_12
REMARK    7  A    between atoms: C_12  and  C_13
REMARK    8  A    between atoms: C_13  and  C_14
REMARK    9  A    between atoms: C_14  and  C_15
REMARK   10  A    between atoms: C_15  and  N_16
REMARK   11  A    between atoms: C_15  and  C_17
REMARK   12  A    between atoms: C_17  and  O_19
REMARK                            x       y       z     vdW  Elec       q    Type
REMARK                         _______ _______ _______ _____ _____    ______ ____
ROOT
ATOM      1  C   UNK     1       5.968   5.957  18.319  0.00  0.00    +0.000 C 
ATOM      2  O   UNK     1       6.274   5.355  19.345  0.00  0.00    +0.000 OA
ATOM      3  N   UNK     1       4.667   6.307  18.006  0.00  0.00    +0.000 N 
ATOM      4  H   UNK     1       4.477   6.749  17.116  0.00  0.00    +0.000 HD
ENDROOT
BRANCH   1   5
ATOM      5  C   UNK     1       7.001   6.397  17.281  0.00  0.00    +0.000 C 
BRANCH   5   6
ATOM      6  O   UNK     1       7.594   5.237  16.710  0.00  0.00    +0.000 OA
BRANCH   6  10
ATOM      7  C   UNK     1       5.938   3.785  13.149  0.00  0.00    +0.000 A 
ATOM      8  C   UNK     1       7.070   4.602  13.165  0.00  0.00    +0.000 A 
ATOM      9  C   UNK     1       7.580   5.091  14.373  0.00  0.00    +0.000 A 
ATOM     10  C   UNK     1       6.980   4.752  15.586  0.00  0.00    +0.000 A 
ATOM     11  C   UNK     1       5.884   3.891  15.583  0.00  0.00    +0.000 A 
ATOM     12  C   UNK     1       5.383   3.398  14.371  0.00  0.00    +0.000 A 
BRANCH   7  13
ATOM     13  N   UNK     1       5.523   3.175  11.961  0.00  0.00    +0.000 N 
ATOM     14  H   UNK     1       5.291   2.193  12.064  0.00  0.00    +0.000 HD
ATOM     15  H   UNK     1       6.142   3.343  11.173  0.00  0.00    +0.000 HD
ENDBRANCH   7  13
ENDBRANCH   6  10
ENDBRANCH   5   6
ENDBRANCH   1   5
BRANCH   3  16
ATOM     16  C   UNK     1       3.546   5.923  18.840  0.00  0.00    +0.000 C 
BRANCH  16  17
ATOM     17  C   UNK     1       2.449   5.218  18.040  0.00  0.00    +0.000 C 
BRANCH  17  18
ATOM     18  C   UNK     1       2.867   3.785  17.702  0.00  0.00    +0.000 C 
BRANCH  18  19
ATOM     19  C   UNK     1       3.429   3.041  18.922  0.00  0.00    +0.000 C 
BRANCH  19  20
ATOM     20  C   UNK     1       2.405   2.089  19.562  0.00  0.00    +0.000 C 
BRANCH  20  21
ATOM     21  N   UNK     1       1.352   1.738  18.581  0.00  0.00    +0.000 NA
ATOM     22  H   UNK     1       1.675   0.925  18.049  0.00  0.00    +0.000 HD
ATOM     23  H   UNK     1       1.324   2.479  17.874  0.00  0.00    +0.000 HD
ENDBRANCH  20  21
BRANCH  20  24
ATOM     24  C   UNK     1       1.750   2.716  20.815  0.00  0.00    +0.000 C 
ATOM     25  O   UNK     1       2.294   2.780  21.907  0.00  0.00    +0.000 OA
BRANCH  24  26
ATOM     26  O   UNK     1       0.521   3.233  20.595  0.00  0.00    +0.000 OA
ATOM     27  H   UNK     1      -0.123   2.607  20.212  0.00  0.00    +0.000 HD
ENDBRANCH  24  26
ENDBRANCH  20  24
ENDBRANCH  19  20
ENDBRANCH  18  19
ENDBRANCH  17  18
ENDBRANCH  16  17
ENDBRANCH   3  16
TORSDOF 12
ENDMDL
MODEL 9
REMARK VINA RESULT:      -5.7      5.006      8.019
REMARK  Name = 
REMARK  12 active torsions:
REMARK  status: ('A' for Active; 'I' for Inactive)
REMARK    1  A    between atoms: N_1  and  C_2
REMARK    2  A    between atoms: C_5  and  O_6
REMARK    3  A    between atoms: O_6  and  C_7
REMARK    4  A    between atoms: C_7  and  C_8
REMARK    5  A    between atoms: N_10  and  C_11
REMARK    6  A    between atoms: C_11  and  C_12
REMARK    7  A    between atoms: C_12  and  C_13
REMARK    8  A    between atoms: C_13  and  C_14
REMARK    9  A    between atoms: C_14  and  C_15
REMARK   10  A    between atoms: C_15  and  N_16
REMARK   11  A    between atoms: C_15  and  C_17
REMARK   12  A    between atoms: C_17  and  O_19
REMARK                            x       y       z     vdW  Elec       q    Type
REMARK                         _______ _______ _______ _____ _____    ______ ____
ROOT
ATOM      1  C   UNK     1       6.776   6.050  17.049  0.00  0.00    +0.000 C 
ATOM      2  O   UNK     1       7.444   5.164  17.577  0.00  0.00    +0.000 OA
ATOM      3  N   UNK     1       7.060   7.396  17.188  0.00  0.00    +0.000 N 
ATOM      4  H   UNK     1       6.434   8.076  16.777  0.00  0.00    +0.000 HD
ENDROOT
BRANCH   1   5
ATOM      5  C   UNK     1       5.562   5.754  16.168  0.00  0.00    +0.000 C 
BRANCH   5   6
ATOM      6  O   UNK     1       4.381   6.003  16.921  0.00  0.00    +0.000 OA
BRANCH   6  10
ATOM      7  C   UNK     1       2.167   2.727  18.299  0.00  0.00    +0.000 A 
ATOM      8  C   UNK     1       1.669   4.031  18.335  0.00  0.00    +0.000 A 
ATOM      9  C   UNK     1       2.449   5.105  17.892  0.00  0.00    +0.000 A 
ATOM     10  C   UNK     1       3.729   4.890  17.382  0.00  0.00    +0.000 A 
ATOM     11  C   UNK     1       4.211   3.586  17.288  0.00  0.00    +0.000 A 
ATOM     12  C   UNK     1       3.423   2.514  17.727  0.00  0.00    +0.000 A 
BRANCH   7  13
ATOM     13  N   UNK     1       1.334   1.644  18.598  0.00  0.00    +0.000 N 
ATOM     14  H   UNK     1       1.037   1.612  19.568  0.00  0.00    +0.000 HD
ATOM     15  H   UNK     1       1.689   0.750  18.274  0.00  0.00    +0.000 HD
ENDBRANCH   7  13
ENDBRANCH   6  10
ENDBRANCH   5   6
ENDBRANCH   1   5
BRANCH   3  16
ATOM     16  C   UNK     1       8.136   7.871  18.034  0.00  0.00    +0.000 C 
BRANCH  16  17
ATOM     17  C   UNK     1       8.280   9.393  17.981  0.00  0.00    +0.000 C 
BRANCH  17  18
ATOM     18  C   UNK     1       9.294   9.874  19.021  0.00  0.00    +0.000 C 
BRANCH  18  19
ATOM     19  C   UNK     1       9.214  11.390  19.252  0.00  0.00    +0.000 C 
BRANCH  19  20
ATOM     20  C   UNK     1       9.698  12.202  18.039  0.00  0.00    +0.000 C 
BRANCH  20  21
ATOM     21  N   UNK     1      10.884  13.010  18.406  0.00  0.00    +0.000 NA
ATOM     22  H   UNK     1      11.358  12.540  19.182  0.00  0.00    +0.000 HD
ATOM     23  H   UNK     1      10.549  13.879  18.833  0.00  0.00    +0.000 HD
ENDBRANCH  20  21
BRANCH  20  24
ATOM     24  C   UNK     1       8.589  13.134  17.499  0.00  0.00    +0.000 C 
ATOM     25  O   UNK     1       7.500  12.741  17.107  0.00  0.00    +0.000 OA
BRANCH  24  26
ATOM     26  O   UNK     1       8.907  14.447  17.531  0.00  0.00    +0.000 OA
ATOM     27  H   UNK     1       9.845  14.645  17.345  0.00  0.00    +0.000 HD
ENDBRANCH  24  26
ENDBRANCH  20  24
ENDBRANCH  19  20
ENDBRANCH  18  19
ENDBRANCH  17  18
ENDBRANCH  16  17
ENDBRANCH   3  16
TORSDOF 12
ENDMDL
