MODEL 1
REMARK VINA RESULT:      -7.4      0.000      0.000
REMARK  Name = 
REMARK  9 active torsions:
REMARK  status: ('A' for Active; 'I' for Inactive)
REMARK    1  A    between atoms: C_2  and  O_3
REMARK    2  A    between atoms: C_2  and  C_4
REMARK    3  A    between atoms: C_4  and  C_5
REMARK    4  A    between atoms: C_5  and  C_6
REMARK    5  A    between atoms: C_6  and  O_7
REMARK    6  A    between atoms: C_6  and  C_8
REMARK    7  A    between atoms: C_11  and  O_12
REMARK    8  A    between atoms: O_12  and  C_13
REMARK    9  A    between atoms: C_13  and  C_14
REMARK                            x       y       z     vdW  Elec       q    Type
REMARK                         _______ _______ _______ _____ _____    ______ ____
ROOT
ATOM      1  C   UNL     1       6.475   4.739  15.846  0.00  0.00    +0.000 A 
ATOM      2  C   UNL     1       5.539   3.844  16.383  0.00  0.00    +0.000 A 
ATOM      3  C   UNL     1       4.931   4.099  17.611  0.00  0.00    +0.000 A 
ATOM      4  C   UNL     1       5.278   5.236  18.342  0.00  0.00    +0.000 A 
ATOM      5  C   UNL     1       6.197   6.140  17.813  0.00  0.00    +0.000 A 
ATOM      6  C   UNL     1       6.801   5.891  16.576  0.00  0.00    +0.000 A 
ENDROOT
BRANCH   1   7
ATOM      7  C   UNL     1       7.047   4.463  14.471  0.00  0.00    +0.000 C 
BRANCH   7   8
ATOM      8  O   UNL     1       7.778   5.576  13.956  0.00  0.00    +0.000 OA
ATOM      9  H   UNL     1       7.908   5.430  13.002  0.00  0.00    +0.000 HD
ENDBRANCH   7   8
BRANCH   7  10
ATOM     10  C   UNL     1       5.952   4.090  13.464  0.00  0.00    +0.000 C 
BRANCH  10  11
ATOM     11  C   UNL     1       6.498   3.414  12.212  0.00  0.00    +0.000 C 
BRANCH  11  13
ATOM     12  O   UNL     1       4.349   2.828  11.299  0.00  0.00    +0.000 OA
ATOM     13  C   UNL     1       5.482   2.489  11.597  0.00  0.00    +0.000 C 
BRANCH  13  14
ATOM     14  O   UNL     1       5.924   1.220  11.457  0.00  0.00    +0.000 OA
ATOM     15  H   UNL     1       5.850   0.882  10.540  0.00  0.00    +0.000 HD
ENDBRANCH  13  14
ENDBRANCH  11  13
ENDBRANCH  10  11
ENDBRANCH   7  10
ENDBRANCH   1   7
BRANCH   4  16
ATOM     16  O   UNL     1       4.772   5.559  19.574  0.00  0.00    +0.000 OA
BRANCH  16  17
ATOM     17  C   UNL     1       3.369   5.846  19.585  0.00  0.00    +0.000 C 
BRANCH  17  18
ATOM     18  C   UNL     1       2.544   4.694  20.115  0.00  0.00    +0.000 A 
ATOM     19  C   UNL     1       2.655   4.272  21.451  0.00  0.00    +0.000 A 
ATOM     20  C   UNL     1       1.925   3.178  21.919  0.00  0.00    +0.000 A 
ATOM     21  C   UNL     1       1.070   2.490  21.063  0.00  0.00    +0.000 A 
ATOM     22  C   UNL     1       0.933   2.901  19.740  0.00  0.00    +0.000 A 
ATOM     23  C   UNL     1       1.656   4.001  19.270  0.00  0.00    +0.000 A 
ATOM     24 BR   UNL     1       1.402   4.493  17.449  0.00  0.00    +0.000 Br
ENDBRANCH  17  18
ENDBRANCH  16  17
ENDBRANCH   4  16
TORSDOF 9
ENDMDL
MODEL 2
REMARK VINA RESULT:      -7.3      0.773      1.078
REMARK  Name = 
REMARK  9 active torsions:
REMARK  status: ('A' for Active; 'I' for Inactive)
REMARK    1  A    between atoms: C_2  and  O_3
REMARK    2  A    between atoms: C_2  and  C_4
REMARK    3  A    between atoms: C_4  and  C_5
REMARK    4  A    between atoms: C_5  and  C_6
REMARK    5  A    between atoms: C_6  and  O_7
REMARK    6  A    between atoms: C_6  and  C_8
REMARK    7  A    between atoms: C_11  and  O_12
REMARK    8  A    between atoms: O_12  and  C_13
REMARK    9  A    between atoms: C_13  and  C_14
REMARK                            x       y       z     vdW  Elec       q    Type
REMARK                         _______ _______ _______ _____ _____    ______ ____
ROOT
ATOM      1  C   UNL     1       6.167   4.973  16.102  0.00  0.00    +0.000 A 
ATOM      2  C   UNL     1       6.576   4.488  17.353  0.00  0.00    +0.000 A 
ATOM      3  C   UNL     1       5.929   4.890  18.520  0.00  0.00    +0.000 A 
ATOM      4  C   UNL     1       4.887   5.815  18.461  0.00  0.00    +0.000 A 
ATOM      5  C   UNL     1       4.463   6.295  17.223  0.00  0.00    +0.000 A 
ATOM      6  C   UNL     1       5.104   5.885  16.049  0.00  0.00    +0.000 A 
ENDROOT
BRANCH   1   7
ATOM      7  C   UNL     1       6.843   4.444  14.855  0.00  0.00    +0.000 C 
BRANCH   7   8
ATOM      8  O   UNL     1       7.496   5.476  14.114  0.00  0.00    +0.000 OA
ATOM      9  H   UNL     1       7.167   5.437  13.198  0.00  0.00    +0.000 HD
ENDBRANCH   7   8
BRANCH   7  10
ATOM     10  C   UNL     1       5.850   3.732  13.929  0.00  0.00    +0.000 C 
BRANCH  10  11
ATOM     11  C   UNL     1       6.360   3.594  12.499  0.00  0.00    +0.000 C 
BRANCH  11  13
ATOM     12  O   UNL     1       5.797   1.584  11.300  0.00  0.00    +0.000 OA
ATOM     13  C   UNL     1       5.472   2.696  11.680  0.00  0.00    +0.000 C 
BRANCH  13  14
ATOM     14  O   UNL     1       4.291   3.264  11.347  0.00  0.00    +0.000 OA
ATOM     15  H   UNL     1       4.328   3.777  10.513  0.00  0.00    +0.000 HD
ENDBRANCH  13  14
ENDBRANCH  11  13
ENDBRANCH  10  11
ENDBRANCH   7  10
ENDBRANCH   1   7
BRANCH   4  16
ATOM     16  O   UNL     1       4.213   6.306  19.549  0.00  0.00    +0.000 OA
BRANCH  16  17
ATOM     17  C   UNL     1       2.789   6.170  19.479  0.00  0.00    +0.000 C 
BRANCH  17  18
ATOM     18  C   UNL     1       2.305   4.841  20.017  0.00  0.00    +0.000 A 
ATOM     19  C   UNL     1       2.437   4.514  21.377  0.00  0.00    +0.000 A 
ATOM     20  C   UNL     1       2.030   3.267  21.856  0.00  0.00    +0.000 A 
ATOM     21  C   UNL     1       1.483   2.328  20.985  0.00  0.00    +0.000 A 
ATOM     22  C   UNL     1       1.330   2.638  19.637  0.00  0.00    +0.000 A 
ATOM     23  C   UNL     1       1.728   3.888  19.156  0.00  0.00    +0.000 A 
ATOM     24 BR   UNL     1       1.477   4.224  17.299  0.00  0.00    +0.000 Br
ENDBRANCH  17  18
ENDBRANCH  16  17
ENDBRANCH   4  16
TORSDOF 9
ENDMDL
MODEL 3
REMARK VINA RESULT:      -7.0      1.341      1.623
REMARK  Name = 
REMARK  9 active torsions:
REMARK  status: ('A' for Active; 'I' for Inactive)
REMARK    1  A    between atoms: C_2  and  O_3
REMARK    2  A    between atoms: C_2  and  C_4
REMARK    3  A    between atoms: C_4  and  C_5
REMARK    4  A    between atoms: C_5  and  C_6
REMARK    5  A    between atoms: C_6  and  O_7
REMARK    6  A    between atoms: C_6  and  C_8
REMARK    7  A    between atoms: C_11  and  O_12
REMARK    8  A    between atoms: O_12  and  C_13
REMARK    9  A    between atoms: C_13  and  C_14
REMARK                            x       y       z     vdW  Elec       q    Type
REMARK                         _______ _______ _______ _____ _____    ______ ____
ROOT
ATOM      1  C   UNL     1       6.680   4.918  15.014  0.00  0.00    +0.000 A 
ATOM      2  C   UNL     1       7.307   4.439  16.173  0.00  0.00    +0.000 A 
ATOM      3  C   UNL     1       6.739   4.648  17.429  0.00  0.00    +0.000 A 
ATOM      4  C   UNL     1       5.554   5.373  17.551  0.00  0.00    +0.000 A 
ATOM      5  C   UNL     1       4.915   5.843  16.405  0.00  0.00    +0.000 A 
ATOM      6  C   UNL     1       5.477   5.626  15.143  0.00  0.00    +0.000 A 
ENDROOT
BRANCH   1   7
ATOM      7  C   UNL     1       7.289   4.595  13.665  0.00  0.00    +0.000 C 
BRANCH   7   8
ATOM      8  O   UNL     1       7.886   5.738  13.053  0.00  0.00    +0.000 OA
ATOM      9  H   UNL     1       7.175   6.260  12.642  0.00  0.00    +0.000 HD
ENDBRANCH   7   8
BRANCH   7  10
ATOM     10  C   UNL     1       6.252   4.009  12.699  0.00  0.00    +0.000 C 
BRANCH  10  11
ATOM     11  C   UNL     1       6.810   2.888  11.831  0.00  0.00    +0.000 C 
BRANCH  11  13
ATOM     12  O   UNL     1       5.911   0.768  11.133  0.00  0.00    +0.000 OA
ATOM     13  C   UNL     1       5.726   1.948  11.377  0.00  0.00    +0.000 C 
BRANCH  13  14
ATOM     14  O   UNL     1       4.529   2.550  11.205  0.00  0.00    +0.000 OA
ATOM     15  H   UNL     1       4.495   3.130  10.416  0.00  0.00    +0.000 HD
ENDBRANCH  13  14
ENDBRANCH  11  13
ENDBRANCH  10  11
ENDBRANCH   7  10
ENDBRANCH   1   7
BRANCH   4  16
ATOM     16  O   UNL     1       4.936   5.668  18.738  0.00  0.00    +0.000 OA
BRANCH  16  17
ATOM     17  C   UNL     1       4.747   4.546  19.607  0.00  0.00    +0.000 C 
BRANCH  17  18
ATOM     18  C   UNL     1       3.291   4.156  19.743  0.00  0.00    +0.000 A 
ATOM     19  C   UNL     1       2.412   4.893  20.554  0.00  0.00    +0.000 A 
ATOM     20  C   UNL     1       1.082   4.499  20.711  0.00  0.00    +0.000 A 
ATOM     21  C   UNL     1       0.607   3.364  20.058  0.00  0.00    +0.000 A 
ATOM     22  C   UNL     1       1.458   2.629  19.237  0.00  0.00    +0.000 A 
ATOM     23  C   UNL     1       2.788   3.025  19.072  0.00  0.00    +0.000 A 
ATOM     24 BR   UNL     1       3.875   1.961  17.928  0.00  0.00    +0.000 Br
ENDBRANCH  17  18
ENDBRANCH  16  17
ENDBRANCH   4  16
TORSDOF 9
ENDMDL
MODEL 4
REMARK VINA RESULT:      -7.0      1.441      1.831
REMARK  Name = 
REMARK  9 active torsions:
REMARK  status: ('A' for Active; 'I' for Inactive)
REMARK    1  A    between atoms: C_2  and  O_3
REMARK    2  A    between atoms: C_2  and  C_4
REMARK    3  A    between atoms: C_4  and  C_5
REMARK    4  A    between atoms: C_5  and  C_6
REMARK    5  A    between atoms: C_6  and  O_7
REMARK    6  A    between atoms: C_6  and  C_8
REMARK    7  A    between atoms: C_11  and  O_12
REMARK    8  A    between atoms: O_12  and  C_13
REMARK    9  A    between atoms: C_13  and  C_14
REMARK                            x       y       z     vdW  Elec       q    Type
REMARK                         _______ _______ _______ _____ _____    ______ ____
ROOT
ATOM      1  C   UNL     1       6.796   5.139  14.988  0.00  0.00    +0.000 A 
ATOM      2  C   UNL     1       6.975   4.431  16.185  0.00  0.00    +0.000 A 
ATOM      3  C   UNL     1       6.170   4.687  17.293  0.00  0.00    +0.000 A 
ATOM      4  C   UNL     1       5.196   5.684  17.237  0.00  0.00    +0.000 A 
ATOM      5  C   UNL     1       4.999   6.385  16.048  0.00  0.00    +0.000 A 
ATOM      6  C   UNL     1       5.799   6.123  14.932  0.00  0.00    +0.000 A 
ENDROOT
BRANCH   1   7
ATOM      7  C   UNL     1       7.637   4.768  13.785  0.00  0.00    +0.000 C 
BRANCH   7   8
ATOM      8  O   UNL     1       8.511   5.826  13.388  0.00  0.00    +0.000 OA
ATOM      9  H   UNL     1       8.296   6.607  13.929  0.00  0.00    +0.000 HD
ENDBRANCH   7   8
BRANCH   7  10
ATOM     10  C   UNL     1       6.769   4.376  12.583  0.00  0.00    +0.000 C 
BRANCH  10  11
ATOM     11  C   UNL     1       5.700   3.346  12.929  0.00  0.00    +0.000 C 
BRANCH  11  13
ATOM     12  O   UNL     1       4.222   2.900  11.082  0.00  0.00    +0.000 OA
ATOM     13  C   UNL     1       5.228   2.607  11.706  0.00  0.00    +0.000 C 
BRANCH  13  14
ATOM     14  O   UNL     1       5.995   1.540  11.392  0.00  0.00    +0.000 OA
ATOM     15  H   UNL     1       6.474   1.642  10.543  0.00  0.00    +0.000 HD
ENDBRANCH  13  14
ENDBRANCH  11  13
ENDBRANCH  10  11
ENDBRANCH   7  10
ENDBRANCH   1   7
BRANCH   4  16
ATOM     16  O   UNL     1       4.381   6.042  18.278  0.00  0.00    +0.000 OA
BRANCH  16  17
ATOM     17  C   UNL     1       2.980   5.997  17.982  0.00  0.00    +0.000 C 
BRANCH  17  18
ATOM     18  C   UNL     1       2.304   4.771  18.555  0.00  0.00    +0.000 A 
ATOM     19  C   UNL     1       2.281   3.555  17.850  0.00  0.00    +0.000 A 
ATOM     20  C   UNL     1       1.615   2.441  18.365  0.00  0.00    +0.000 A 
ATOM     21  C   UNL     1       0.963   2.522  19.593  0.00  0.00    +0.000 A 
ATOM     22  C   UNL     1       0.988   3.713  20.314  0.00  0.00    +0.000 A 
ATOM     23  C   UNL     1       1.660   4.827  19.805  0.00  0.00    +0.000 A 
ATOM     24 BR   UNL     1       1.643   6.409  20.863  0.00  0.00    +0.000 Br
ENDBRANCH  17  18
ENDBRANCH  16  17
ENDBRANCH   4  16
TORSDOF 9
ENDMDL
MODEL 5
REMARK VINA RESULT:      -6.9      1.349      1.490
REMARK  Name = 
REMARK  9 active torsions:
REMARK  status: ('A' for Active; 'I' for Inactive)
REMARK    1  A    between atoms: C_2  and  O_3
REMARK    2  A    between atoms: C_2  and  C_4
REMARK    3  A    between atoms: C_4  and  C_5
REMARK    4  A    between atoms: C_5  and  C_6
REMARK    5  A    between atoms: C_6  and  O_7
REMARK    6  A    between atoms: C_6  and  C_8
REMARK    7  A    between atoms: C_11  and  O_12
REMARK    8  A    between atoms: O_12  and  C_13
REMARK    9  A    between atoms: C_13  and  C_14
REMARK                            x       y       z     vdW  Elec       q    Type
REMARK                         _______ _______ _______ _____ _____    ______ ____
ROOT
ATOM      1  C   UNL     1       6.877   4.835  14.737  0.00  0.00    +0.000 A 
ATOM      2  C   UNL     1       5.768   4.047  15.074  0.00  0.00    +0.000 A 
ATOM      3  C   UNL     1       5.096   4.238  16.280  0.00  0.00    +0.000 A 
ATOM      4  C   UNL     1       5.546   5.196  17.189  0.00  0.00    +0.000 A 
ATOM      5  C   UNL     1       6.639   5.995  16.860  0.00  0.00    +0.000 A 
ATOM      6  C   UNL     1       7.308   5.812  15.646  0.00  0.00    +0.000 A 
ENDROOT
BRANCH   1   7
ATOM      7  C   UNL     1       7.523   4.649  13.381  0.00  0.00    +0.000 C 
BRANCH   7   8
ATOM      8  O   UNL     1       8.144   5.845  12.908  0.00  0.00    +0.000 OA
ATOM      9  H   UNL     1       7.443   6.429  12.567  0.00  0.00    +0.000 HD
ENDBRANCH   7   8
BRANCH   7  10
ATOM     10  C   UNL     1       6.513   4.176  12.329  0.00  0.00    +0.000 C 
BRANCH  10  11
ATOM     11  C   UNL     1       6.899   2.851  11.683  0.00  0.00    +0.000 C 
BRANCH  11  13
ATOM     12  O   UNL     1       4.564   2.439  11.268  0.00  0.00    +0.000 OA
ATOM     13  C   UNL     1       5.692   1.995  11.410  0.00  0.00    +0.000 C 
BRANCH  13  14
ATOM     14  O   UNL     1       5.961   0.672  11.397  0.00  0.00    +0.000 OA
ATOM     15  H   UNL     1       6.871   0.457  11.690  0.00  0.00    +0.000 HD
ENDBRANCH  13  14
ENDBRANCH  11  13
ENDBRANCH  10  11
ENDBRANCH   7  10
ENDBRANCH   1   7
BRANCH   4  16
ATOM     16  O   UNL     1       4.984   5.436  18.415  0.00  0.00    +0.000 OA
BRANCH  16  17
ATOM     17  C   UNL     1       4.815   4.271  19.232  0.00  0.00    +0.000 C 
BRANCH  17  18
ATOM     18  C   UNL     1       3.367   4.015  19.586  0.00  0.00    +0.000 A 
ATOM     19  C   UNL     1       2.599   4.981  20.258  0.00  0.00    +0.000 A 
ATOM     20  C   UNL     1       1.277   4.719  20.623  0.00  0.00    +0.000 A 
ATOM     21  C   UNL     1       0.699   3.488  20.319  0.00  0.00    +0.000 A 
ATOM     22  C   UNL     1       1.438   2.524  19.640  0.00  0.00    +0.000 A 
ATOM     23  C   UNL     1       2.759   2.786  19.267  0.00  0.00    +0.000 A 
ATOM     24 BR   UNL     1       3.688   1.409  18.338  0.00  0.00    +0.000 Br
ENDBRANCH  17  18
ENDBRANCH  16  17
ENDBRANCH   4  16
TORSDOF 9
ENDMDL
MODEL 6
REMARK VINA RESULT:      -6.9      4.737      8.432
REMARK  Name = 
REMARK  9 active torsions:
REMARK  status: ('A' for Active; 'I' for Inactive)
REMARK    1  A    between atoms: C_2  and  O_3
REMARK    2  A    between atoms: C_2  and  C_4
REMARK    3  A    between atoms: C_4  and  C_5
REMARK    4  A    between atoms: C_5  and  C_6
REMARK    5  A    between atoms: C_6  and  O_7
REMARK    6  A    between atoms: C_6  and  C_8
REMARK    7  A    between atoms: C_11  and  O_12
REMARK    8  A    between atoms: O_12  and  C_13
REMARK    9  A    between atoms: C_13  and  C_14
REMARK                            x       y       z     vdW  Elec       q    Type
REMARK                         _______ _______ _______ _____ _____    ______ ____
ROOT
ATOM      1  C   UNL     1       1.089   9.721  19.644  0.00  0.00    +0.000 A 
ATOM      2  C   UNL     1       1.415   8.660  20.499  0.00  0.00    +0.000 A 
ATOM      3  C   UNL     1       2.044   7.517  20.010  0.00  0.00    +0.000 A 
ATOM      4  C   UNL     1       2.323   7.398  18.648  0.00  0.00    +0.000 A 
ATOM      5  C   UNL     1       2.015   8.452  17.789  0.00  0.00    +0.000 A 
ATOM      6  C   UNL     1       1.393   9.605  18.280  0.00  0.00    +0.000 A 
ENDROOT
BRANCH   1   7
ATOM      7  C   UNL     1       0.483  10.978  20.233  0.00  0.00    +0.000 C 
BRANCH   7   8
ATOM      8  O   UNL     1       1.377  11.643  21.127  0.00  0.00    +0.000 OA
ATOM      9  H   UNL     1       2.153  11.068  21.252  0.00  0.00    +0.000 HD
ENDBRANCH   7   8
BRANCH   7  10
ATOM     10  C   UNL     1      -0.824  10.684  20.978  0.00  0.00    +0.000 C 
BRANCH  10  11
ATOM     11  C   UNL     1      -0.728  10.942  22.477  0.00  0.00    +0.000 C 
BRANCH  11  13
ATOM     12  O   UNL     1       0.618   9.648  23.997  0.00  0.00    +0.000 OA
ATOM     13  C   UNL     1      -0.327   9.700  23.227  0.00  0.00    +0.000 C 
BRANCH  13  14
ATOM     14  O   UNL     1      -1.080   8.620  22.924  0.00  0.00    +0.000 OA
ATOM     15  H   UNL     1      -2.041   8.809  22.907  0.00  0.00    +0.000 HD
ENDBRANCH  13  14
ENDBRANCH  11  13
ENDBRANCH  10  11
ENDBRANCH   7  10
ENDBRANCH   1   7
BRANCH   4  16
ATOM     16  O   UNL     1       2.900   6.304  18.060  0.00  0.00    +0.000 OA
BRANCH  16  17
ATOM     17  C   UNL     1       2.039   5.165  17.945  0.00  0.00    +0.000 C 
BRANCH  17  18
ATOM     18  C   UNL     1       2.157   4.226  19.126  0.00  0.00    +0.000 A 
ATOM     19  C   UNL     1       1.065   3.987  19.978  0.00  0.00    +0.000 A 
ATOM     20  C   UNL     1       1.196   3.156  21.093  0.00  0.00    +0.000 A 
ATOM     21  C   UNL     1       2.418   2.548  21.372  0.00  0.00    +0.000 A 
ATOM     22  C   UNL     1       3.507   2.760  20.531  0.00  0.00    +0.000 A 
ATOM     23  C   UNL     1       3.377   3.585  19.411  0.00  0.00    +0.000 A 
ATOM     24 BR   UNL     1       4.918   3.812  18.317  0.00  0.00    +0.000 Br
ENDBRANCH  17  18
ENDBRANCH  16  17
ENDBRANCH   4  16
TORSDOF 9
ENDMDL
MODEL 7
REMARK VINA RESULT:      -6.9      5.616      8.177
REMARK  Name = 
REMARK  9 active torsions:
REMARK  status: ('A' for Active; 'I' for Inactive)
REMARK    1  A    between atoms: C_2  and  O_3
REMARK    2  A    between atoms: C_2  and  C_4
REMARK    3  A    between atoms: C_4  and  C_5
REMARK    4  A    between atoms: C_5  and  C_6
REMARK    5  A    between atoms: C_6  and  O_7
REMARK    6  A    between atoms: C_6  and  C_8
REMARK    7  A    between atoms: C_11  and  O_12
REMARK    8  A    between atoms: O_12  and  C_13
REMARK    9  A    between atoms: C_13  and  C_14
REMARK                            x       y       z     vdW  Elec       q    Type
REMARK                         _______ _______ _______ _____ _____    ______ ____
ROOT
ATOM      1  C   UNL     1       0.440  10.149  18.980  0.00  0.00    +0.000 A 
ATOM      2  C   UNL     1       0.363   9.607  20.270  0.00  0.00    +0.000 A 
ATOM      3  C   UNL     1       1.123   8.494  20.624  0.00  0.00    +0.000 A 
ATOM      4  C   UNL     1       1.946   7.879  19.681  0.00  0.00    +0.000 A 
ATOM      5  C   UNL     1       2.042   8.415  18.398  0.00  0.00    +0.000 A 
ATOM      6  C   UNL     1       1.287   9.539  18.044  0.00  0.00    +0.000 A 
ENDROOT
BRANCH   1   7
ATOM      7  C   UNL     1      -0.339  11.408  18.665  0.00  0.00    +0.000 C 
BRANCH   7   8
ATOM      8  O   UNL     1      -0.103  12.444  19.619  0.00  0.00    +0.000 OA
ATOM      9  H   UNL     1      -0.918  12.559  20.140  0.00  0.00    +0.000 HD
ENDBRANCH   7   8
BRANCH   7  10
ATOM     10  C   UNL     1      -1.848  11.141  18.597  0.00  0.00    +0.000 C 
BRANCH  10  11
ATOM     11  C   UNL     1      -2.256  10.324  17.378  0.00  0.00    +0.000 C 
BRANCH  11  13
ATOM     12  O   UNL     1      -4.541  10.935  16.933  0.00  0.00    +0.000 OA
ATOM     13  C   UNL     1      -3.366  10.991  16.611  0.00  0.00    +0.000 C 
BRANCH  13  14
ATOM     14  O   UNL     1      -2.947  11.615  15.488  0.00  0.00    +0.000 OA
ATOM     15  H   UNL     1      -2.651  12.536  15.643  0.00  0.00    +0.000 HD
ENDBRANCH  13  14
ENDBRANCH  11  13
ENDBRANCH  10  11
ENDBRANCH   7  10
ENDBRANCH   1   7
BRANCH   4  16
ATOM     16  O   UNL     1       2.702   6.760  19.913  0.00  0.00    +0.000 OA
BRANCH  16  17
ATOM     17  C   UNL     1       1.952   5.606  20.312  0.00  0.00    +0.000 C 
BRANCH  17  18
ATOM     18  C   UNL     1       2.160   4.429  19.384  0.00  0.00    +0.000 A 
ATOM     19  C   UNL     1       2.389   4.616  18.010  0.00  0.00    +0.000 A 
ATOM     20  C   UNL     1       2.533   3.522  17.153  0.00  0.00    +0.000 A 
ATOM     21  C   UNL     1       2.454   2.226  17.655  0.00  0.00    +0.000 A 
ATOM     22  C   UNL     1       2.244   2.019  19.016  0.00  0.00    +0.000 A 
ATOM     23  C   UNL     1       2.107   3.111  19.877  0.00  0.00    +0.000 A 
ATOM     24 BR   UNL     1       1.826   2.732  21.721  0.00  0.00    +0.000 Br
ENDBRANCH  17  18
ENDBRANCH  16  17
ENDBRANCH   4  16
TORSDOF 9
ENDMDL
MODEL 8
REMARK VINA RESULT:      -6.8      4.490      5.868
REMARK  Name = 
REMARK  9 active torsions:
REMARK  status: ('A' for Active; 'I' for Inactive)
REMARK    1  A    between atoms: C_2  and  O_3
REMARK    2  A    between atoms: C_2  and  C_4
REMARK    3  A    between atoms: C_4  and  C_5
REMARK    4  A    between atoms: C_5  and  C_6
REMARK    5  A    between atoms: C_6  and  O_7
REMARK    6  A    between atoms: C_6  and  C_8
REMARK    7  A    between atoms: C_11  and  O_12
REMARK    8  A    between atoms: O_12  and  C_13
REMARK    9  A    between atoms: C_13  and  C_14
REMARK                            x       y       z     vdW  Elec       q    Type
REMARK                         _______ _______ _______ _____ _____    ______ ____
ROOT
ATOM      1  C   UNL     1       3.961   5.442  18.253  0.00  0.00    +0.000 A 
ATOM      2  C   UNL     1       3.955   6.604  17.469  0.00  0.00    +0.000 A 
ATOM      3  C   UNL     1       3.177   7.703  17.828  0.00  0.00    +0.000 A 
ATOM      4  C   UNL     1       2.361   7.645  18.958  0.00  0.00    +0.000 A 
ATOM      5  C   UNL     1       2.368   6.501  19.753  0.00  0.00    +0.000 A 
ATOM      6  C   UNL     1       3.155   5.400  19.400  0.00  0.00    +0.000 A 
ENDROOT
BRANCH   1   7
ATOM      7  C   UNL     1       4.885   4.305  17.871  0.00  0.00    +0.000 C 
BRANCH   7   8
ATOM      8  O   UNL     1       5.616   3.802  18.990  0.00  0.00    +0.000 OA
ATOM      9  H   UNL     1       6.206   4.511  19.301  0.00  0.00    +0.000 HD
ENDBRANCH   7   8
BRANCH   7  10
ATOM     10  C   UNL     1       5.882   4.723  16.784  0.00  0.00    +0.000 C 
BRANCH  10  11
ATOM     11  C   UNL     1       5.455   4.293  15.385  0.00  0.00    +0.000 C 
BRANCH  11  13
ATOM     12  O   UNL     1       7.490   5.206  14.479  0.00  0.00    +0.000 OA
ATOM     13  C   UNL     1       6.598   4.377  14.409  0.00  0.00    +0.000 C 
BRANCH  13  14
ATOM     14  O   UNL     1       6.513   3.480  13.402  0.00  0.00    +0.000 OA
ATOM     15  H   UNL     1       6.417   3.895  12.519  0.00  0.00    +0.000 HD
ENDBRANCH  13  14
ENDBRANCH  11  13
ENDBRANCH  10  11
ENDBRANCH   7  10
ENDBRANCH   1   7
BRANCH   4  16
ATOM     16  O   UNL     1       1.530   8.652  19.375  0.00  0.00    +0.000 OA
BRANCH  16  17
ATOM     17  C   UNL     1       1.335   9.699  18.418  0.00  0.00    +0.000 C 
BRANCH  17  18
ATOM     18  C   UNL     1      -0.058  10.289  18.478  0.00  0.00    +0.000 A 
ATOM     19  C   UNL     1      -1.079   9.835  17.626  0.00  0.00    +0.000 A 
ATOM     20  C   UNL     1      -2.348  10.417  17.656  0.00  0.00    +0.000 A 
ATOM     21  C   UNL     1      -2.619  11.459  18.538  0.00  0.00    +0.000 A 
ATOM     22  C   UNL     1      -1.625  11.913  19.402  0.00  0.00    +0.000 A 
ATOM     23  C   UNL     1      -0.357  11.328  19.380  0.00  0.00    +0.000 A 
ATOM     24 BR   UNL     1       0.935  12.011  20.599  0.00  0.00    +0.000 Br
ENDBRANCH  17  18
ENDBRANCH  16  17
ENDBRANCH   4  16
TORSDOF 9
ENDMDL
MODEL 9
REMARK VINA RESULT:      -6.8      5.592      7.535
REMARK  Name = 
REMARK  9 active torsions:
REMARK  status: ('A' for Active; 'I' for Inactive)
REMARK    1  A    between atoms: C_2  and  O_3
REMARK    2  A    between atoms: C_2  and  C_4
REMARK    3  A    between atoms: C_4  and  C_5
REMARK    4  A    between atoms: C_5  and  C_6
REMARK    5  A    between atoms: C_6  and  O_7
REMARK    6  A    between atoms: C_6  and  C_8
REMARK    7  A    between atoms: C_11  and  O_12
REMARK    8  A    between atoms: O_12  and  C_13
REMARK    9  A    between atoms: C_13  and  C_14
REMARK                            x       y       z     vdW  Elec       q    Type
REMARK                         _______ _______ _______ _____ _____    ______ ____
ROOT
ATOM      1  C   UNL     1       2.713   6.902  19.252  0.00  0.00    +0.000 A 
ATOM      2  C   UNL     1       1.962   7.485  20.282  0.00  0.00    +0.000 A 
ATOM      3  C   UNL     1       1.237   8.655  20.064  0.00  0.00    +0.000 A 
ATOM      4  C   UNL     1       1.281   9.285  18.820  0.00  0.00    +0.000 A 
ATOM      5  C   UNL     1       2.013   8.709  17.783  0.00  0.00    +0.000 A 
ATOM      6  C   UNL     1       2.734   7.529  17.998  0.00  0.00    +0.000 A 
ENDROOT
BRANCH   1   7
ATOM      7  C   UNL     1       3.416   5.587  19.511  0.00  0.00    +0.000 C 
BRANCH   7   8
ATOM      8  O   UNL     1       4.831   5.687  19.345  0.00  0.00    +0.000 OA
ATOM      9  H   UNL     1       5.147   6.405  19.923  0.00  0.00    +0.000 HD
ENDBRANCH   7   8
BRANCH   7  10
ATOM     10  C   UNL     1       2.896   4.473  18.594  0.00  0.00    +0.000 C 
BRANCH  10  11
ATOM     11  C   UNL     1       2.731   3.138  19.310  0.00  0.00    +0.000 C 
BRANCH  11  13
ATOM     12  O   UNL     1       3.680   1.066  18.536  0.00  0.00    +0.000 OA
ATOM     13  C   UNL     1       3.852   2.190  18.977  0.00  0.00    +0.000 C 
BRANCH  13  14
ATOM     14  O   UNL     1       5.077   2.680  19.269  0.00  0.00    +0.000 OA
ATOM     15  H   UNL     1       5.636   2.052  19.773  0.00  0.00    +0.000 HD
ENDBRANCH  13  14
ENDBRANCH  11  13
ENDBRANCH  10  11
ENDBRANCH   7  10
ENDBRANCH   1   7
BRANCH   4  16
ATOM     16  O   UNL     1       0.640  10.456  18.512  0.00  0.00    +0.000 OA
BRANCH  16  17
ATOM     17  C   UNL     1      -0.601  10.654  19.199  0.00  0.00    +0.000 C 
BRANCH  17  18
ATOM     18  C   UNL     1      -1.785  10.699  18.258  0.00  0.00    +0.000 A 
ATOM     19  C   UNL     1      -1.818   9.916  17.092  0.00  0.00    +0.000 A 
ATOM     20  C   UNL     1      -2.893   9.998  16.205  0.00  0.00    +0.000 A 
ATOM     21  C   UNL     1      -3.954  10.861  16.469  0.00  0.00    +0.000 A 
ATOM     22  C   UNL     1      -3.947  11.634  17.627  0.00  0.00    +0.000 A 
ATOM     23  C   UNL     1      -2.876  11.548  18.521  0.00  0.00    +0.000 A 
ATOM     24 BR   UNL     1      -2.956  12.639  20.078  0.00  0.00    +0.000 Br
ENDBRANCH  17  18
ENDBRANCH  16  17
ENDBRANCH   4  16
TORSDOF 9
ENDMDL
