MODEL 1
REMARK VINA RESULT:      -8.8      0.000      0.000
REMARK  Name = 
REMARK  5 active torsions:
REMARK  status: ('A' for Active; 'I' for Inactive)
REMARK    1  A    between atoms: C_1  and  C_2
REMARK    2  A    between atoms: C_2  and  C_3
REMARK    3  A    between atoms: C_2  and  C_4
REMARK    4  A    between atoms: C_8  and  C_9
REMARK    5  A    between atoms: C_15  and  C_16
REMARK                            x       y       z     vdW  Elec       q    Type
REMARK                         _______ _______ _______ _____ _____    ______ ____
ROOT
ATOM      1  C   UNL     1       6.544   4.979  15.873  0.00  0.00    +0.000 A 
ATOM      2  C   UNL     1       7.443   5.830  16.650  0.00  0.00    +0.000 A 
ATOM      3  C   UNL     1       7.213   6.106  17.949  0.00  0.00    +0.000 A 
ATOM      4  C   UNL     1       6.064   5.567  18.585  0.00  0.00    +0.000 A 
ATOM      5  N   UNL     1       5.534   5.757  19.773  0.00  0.00    +0.000 NA
ATOM      6  N   UNL     1       4.363   5.032  19.829  0.00  0.00    +0.000 NA
ATOM      7  C   UNL     1       4.242   4.350  18.704  0.00  0.00    +0.000 A 
ATOM      8  N   UNL     1       5.262   4.708  17.848  0.00  0.00    +0.000 N 
ATOM      9  C   UNL     1       5.486   4.424  16.502  0.00  0.00    +0.000 A 
ENDROOT
BRANCH   1  14
ATOM     10  C   UNL     1       6.067   3.465  12.444  0.00  0.00    +0.000 A 
ATOM     11  C   UNL     1       7.037   4.169  11.717  0.00  0.00    +0.000 A 
ATOM     12  C   UNL     1       7.840   5.131  12.338  0.00  0.00    +0.000 A 
ATOM     13  C   UNL     1       7.684   5.397  13.698  0.00  0.00    +0.000 A 
ATOM     14  C   UNL     1       6.725   4.702  14.441  0.00  0.00    +0.000 A 
ATOM     15  C   UNL     1       5.925   3.741  13.815  0.00  0.00    +0.000 A 
BRANCH  10  17
ATOM     16  C   UNL     1       4.071   3.057  10.953  0.00  0.00    +0.000 C 
ATOM     17  C   UNL     1       5.176   2.419  11.797  0.00  0.00    +0.000 C 
ATOM     18  C   UNL     1       5.990   1.418  10.977  0.00  0.00    +0.000 C 
ENDBRANCH  10  17
ENDBRANCH   1  14
BRANCH   7  19
ATOM     19  C   UNL     1       3.133   3.404  18.443  0.00  0.00    +0.000 A 
ATOM     20  C   UNL     1       1.769   3.715  18.299  0.00  0.00    +0.000 A 
ATOM     21  N   UNL     1       1.027   2.629  18.059  0.00  0.00    +0.000 NA
ATOM     22  N   UNL     1       1.913   1.622  18.105  0.00  0.00    +0.000 N 
ATOM     23  C   UNL     1       3.197   2.036  18.321  0.00  0.00    +0.000 A 
ATOM     24  H   UNL     1       1.569   0.673  17.988  0.00  0.00    +0.000 HD
ENDBRANCH   7  19
TORSDOF 3
ENDMDL
MODEL 2
REMARK VINA RESULT:      -8.6      4.503      8.376
REMARK  Name = 
REMARK  5 active torsions:
REMARK  status: ('A' for Active; 'I' for Inactive)
REMARK    1  A    between atoms: C_1  and  C_2
REMARK    2  A    between atoms: C_2  and  C_3
REMARK    3  A    between atoms: C_2  and  C_4
REMARK    4  A    between atoms: C_8  and  C_9
REMARK    5  A    between atoms: C_15  and  C_16
REMARK                            x       y       z     vdW  Elec       q    Type
REMARK                         _______ _______ _______ _____ _____    ______ ____
ROOT
ATOM      1  C   UNL     1       2.367   6.591  19.801  0.00  0.00    +0.000 A 
ATOM      2  C   UNL     1       1.835   5.539  20.666  0.00  0.00    +0.000 A 
ATOM      3  C   UNL     1       2.401   4.317  20.727  0.00  0.00    +0.000 A 
ATOM      4  C   UNL     1       3.537   4.033  19.925  0.00  0.00    +0.000 A 
ATOM      5  N   UNL     1       4.207   2.926  19.693  0.00  0.00    +0.000 NA
ATOM      6  N   UNL     1       5.180   3.214  18.760  0.00  0.00    +0.000 NA
ATOM      7  C   UNL     1       5.138   4.507  18.501  0.00  0.00    +0.000 A 
ATOM      8  N   UNL     1       4.064   5.065  19.163  0.00  0.00    +0.000 N 
ATOM      9  C   UNL     1       3.481   6.329  19.086  0.00  0.00    +0.000 A 
ENDROOT
BRANCH   1  14
ATOM     10  C   UNL     1       0.398   9.713  20.612  0.00  0.00    +0.000 A 
ATOM     11  C   UNL     1       0.567  10.437  19.423  0.00  0.00    +0.000 A 
ATOM     12  C   UNL     1       1.318   9.914  18.367  0.00  0.00    +0.000 A 
ATOM     13  C   UNL     1       1.906   8.655  18.485  0.00  0.00    +0.000 A 
ATOM     14  C   UNL     1       1.745   7.916  19.660  0.00  0.00    +0.000 A 
ATOM     15  C   UNL     1       0.992   8.444  20.714  0.00  0.00    +0.000 A 
BRANCH  10  17
ATOM     16  C   UNL     1      -0.043   9.562  23.093  0.00  0.00    +0.000 C 
ATOM     17  C   UNL     1      -0.407  10.256  21.780  0.00  0.00    +0.000 C 
ATOM     18  C   UNL     1      -0.267  11.773  21.899  0.00  0.00    +0.000 C 
ENDBRANCH  10  17
ENDBRANCH   1  14
BRANCH   7  19
ATOM     19  C   UNL     1       6.090   5.186  17.592  0.00  0.00    +0.000 A 
ATOM     20  C   UNL     1       6.555   4.719  16.349  0.00  0.00    +0.000 A 
ATOM     21  N   UNL     1       7.402   5.578  15.772  0.00  0.00    +0.000 NA
ATOM     22  N   UNL     1       7.517   6.564  16.675  0.00  0.00    +0.000 N 
ATOM     23  C   UNL     1       6.739   6.383  17.783  0.00  0.00    +0.000 A 
ATOM     24  H   UNL     1       8.154   7.329  16.472  0.00  0.00    +0.000 HD
ENDBRANCH   7  19
TORSDOF 3
ENDMDL
MODEL 3
REMARK VINA RESULT:      -8.6      4.476      8.260
REMARK  Name = 
REMARK  5 active torsions:
REMARK  status: ('A' for Active; 'I' for Inactive)
REMARK    1  A    between atoms: C_1  and  C_2
REMARK    2  A    between atoms: C_2  and  C_3
REMARK    3  A    between atoms: C_2  and  C_4
REMARK    4  A    between atoms: C_8  and  C_9
REMARK    5  A    between atoms: C_15  and  C_16
REMARK                            x       y       z     vdW  Elec       q    Type
REMARK                         _______ _______ _______ _____ _____    ______ ____
ROOT
ATOM      1  C   UNL     1       2.394   6.575  19.755  0.00  0.00    +0.000 A 
ATOM      2  C   UNL     1       1.841   5.558  20.648  0.00  0.00    +0.000 A 
ATOM      3  C   UNL     1       2.368   4.320  20.727  0.00  0.00    +0.000 A 
ATOM      4  C   UNL     1       3.484   3.983  19.917  0.00  0.00    +0.000 A 
ATOM      5  N   UNL     1       4.115   2.851  19.700  0.00  0.00    +0.000 NA
ATOM      6  N   UNL     1       5.084   3.088  18.749  0.00  0.00    +0.000 NA
ATOM      7  C   UNL     1       5.080   4.377  18.463  0.00  0.00    +0.000 A 
ATOM      8  N   UNL     1       4.033   4.983  19.128  0.00  0.00    +0.000 N 
ATOM      9  C   UNL     1       3.490   6.263  19.032  0.00  0.00    +0.000 A 
ENDROOT
BRANCH   1  14
ATOM     10  C   UNL     1       0.675   9.839  20.571  0.00  0.00    +0.000 A 
ATOM     11  C   UNL     1       0.717  10.470  19.319  0.00  0.00    +0.000 A 
ATOM     12  C   UNL     1       1.302   9.837  18.218  0.00  0.00    +0.000 A 
ATOM     13  C   UNL     1       1.849   8.562  18.356  0.00  0.00    +0.000 A 
ATOM     14  C   UNL     1       1.813   7.916  19.594  0.00  0.00    +0.000 A 
ATOM     15  C   UNL     1       1.226   8.553  20.693  0.00  0.00    +0.000 A 
BRANCH  10  17
ATOM     16  C   UNL     1      -1.059  11.478  21.397  0.00  0.00    +0.000 C 
ATOM     17  C   UNL     1       0.052  10.502  21.788  0.00  0.00    +0.000 C 
ATOM     18  C   UNL     1      -0.449   9.468  22.795  0.00  0.00    +0.000 C 
ENDBRANCH  10  17
ENDBRANCH   1  14
BRANCH   7  19
ATOM     19  C   UNL     1       6.041   5.006  17.529  0.00  0.00    +0.000 A 
ATOM     20  C   UNL     1       6.706   6.234  17.696  0.00  0.00    +0.000 A 
ATOM     21  N   UNL     1       7.519   6.511  16.671  0.00  0.00    +0.000 NA
ATOM     22  N   UNL     1       7.327   5.484  15.827  0.00  0.00    +0.000 N 
ATOM     23  C   UNL     1       6.456   4.545  16.302  0.00  0.00    +0.000 A 
ATOM     24  H   UNL     1       7.819   5.495  14.938  0.00  0.00    +0.000 HD
ENDBRANCH   7  19
TORSDOF 3
ENDMDL
MODEL 4
REMARK VINA RESULT:      -8.1      4.839      8.008
REMARK  Name = 
REMARK  5 active torsions:
REMARK  status: ('A' for Active; 'I' for Inactive)
REMARK    1  A    between atoms: C_1  and  C_2
REMARK    2  A    between atoms: C_2  and  C_3
REMARK    3  A    between atoms: C_2  and  C_4
REMARK    4  A    between atoms: C_8  and  C_9
REMARK    5  A    between atoms: C_15  and  C_16
REMARK                            x       y       z     vdW  Elec       q    Type
REMARK                         _______ _______ _______ _____ _____    ______ ____
ROOT
ATOM      1  C   UNL     1       2.550   7.722  18.518  0.00  0.00    +0.000 A 
ATOM      2  C   UNL     1       3.565   7.843  17.474  0.00  0.00    +0.000 A 
ATOM      3  C   UNL     1       4.360   6.810  17.133  0.00  0.00    +0.000 A 
ATOM      4  C   UNL     1       4.222   5.569  17.810  0.00  0.00    +0.000 A 
ATOM      5  N   UNL     1       4.919   4.456  17.775  0.00  0.00    +0.000 NA
ATOM      6  N   UNL     1       4.379   3.596  18.707  0.00  0.00    +0.000 NA
ATOM      7  C   UNL     1       3.313   4.170  19.235  0.00  0.00    +0.000 A 
ATOM      8  N   UNL     1       3.208   5.457  18.750  0.00  0.00    +0.000 N 
ATOM      9  C   UNL     1       2.387   6.522  19.115  0.00  0.00    +0.000 A 
ENDROOT
BRANCH   1  14
ATOM     10  C   UNL     1       0.304   9.857  20.680  0.00  0.00    +0.000 A 
ATOM     11  C   UNL     1       0.105  10.957  19.833  0.00  0.00    +0.000 A 
ATOM     12  C   UNL     1       0.699  11.004  18.569  0.00  0.00    +0.000 A 
ATOM     13  C   UNL     1       1.497   9.946  18.134  0.00  0.00    +0.000 A 
ATOM     14  C   UNL     1       1.704   8.840  18.961  0.00  0.00    +0.000 A 
ATOM     15  C   UNL     1       1.106   8.797  20.225  0.00  0.00    +0.000 A 
BRANCH  10  17
ATOM     16  C   UNL     1       0.684   9.321  23.117  0.00  0.00    +0.000 C 
ATOM     17  C   UNL     1      -0.323   9.779  22.061  0.00  0.00    +0.000 C 
ATOM     18  C   UNL     1      -0.975  11.103  22.457  0.00  0.00    +0.000 C 
ENDBRANCH  10  17
ENDBRANCH   1  14
BRANCH   7  19
ATOM     19  C   UNL     1       2.438   3.504  20.226  0.00  0.00    +0.000 A 
ATOM     20  C   UNL     1       2.835   2.876  21.420  0.00  0.00    +0.000 A 
ATOM     21  N   UNL     1       1.794   2.380  22.099  0.00  0.00    +0.000 NA
ATOM     22  N   UNL     1       0.744   2.645  21.307  0.00  0.00    +0.000 N 
ATOM     23  C   UNL     1       1.075   3.331  20.173  0.00  0.00    +0.000 A 
ATOM     24  H   UNL     1      -0.173   2.320  21.600  0.00  0.00    +0.000 HD
ENDBRANCH   7  19
TORSDOF 3
ENDMDL
MODEL 5
REMARK VINA RESULT:      -8.1      4.427      7.950
REMARK  Name = 
REMARK  5 active torsions:
REMARK  status: ('A' for Active; 'I' for Inactive)
REMARK    1  A    between atoms: C_1  and  C_2
REMARK    2  A    between atoms: C_2  and  C_3
REMARK    3  A    between atoms: C_2  and  C_4
REMARK    4  A    between atoms: C_8  and  C_9
REMARK    5  A    between atoms: C_15  and  C_16
REMARK                            x       y       z     vdW  Elec       q    Type
REMARK                         _______ _______ _______ _____ _____    ______ ____
ROOT
ATOM      1  C   UNL     1       2.415   6.525  19.650  0.00  0.00    +0.000 A 
ATOM      2  C   UNL     1       1.737   5.695  20.644  0.00  0.00    +0.000 A 
ATOM      3  C   UNL     1       2.146   4.441  20.920  0.00  0.00    +0.000 A 
ATOM      4  C   UNL     1       3.258   3.899  20.223  0.00  0.00    +0.000 A 
ATOM      5  N   UNL     1       3.792   2.699  20.197  0.00  0.00    +0.000 NA
ATOM      6  N   UNL     1       4.815   2.717  19.274  0.00  0.00    +0.000 NA
ATOM      7  C   UNL     1       4.940   3.948  18.814  0.00  0.00    +0.000 A 
ATOM      8  N   UNL     1       3.927   4.727  19.333  0.00  0.00    +0.000 N 
ATOM      9  C   UNL     1       3.506   6.022  19.034  0.00  0.00    +0.000 A 
ENDROOT
BRANCH   1  14
ATOM     10  C   UNL     1       0.582   9.827  19.743  0.00  0.00    +0.000 A 
ATOM     11  C   UNL     1       1.106  10.442  18.596  0.00  0.00    +0.000 A 
ATOM     12  C   UNL     1       2.049   9.787  17.800  0.00  0.00    +0.000 A 
ATOM     13  C   UNL     1       2.478   8.505  18.139  0.00  0.00    +0.000 A 
ATOM     14  C   UNL     1       1.965   7.874  19.275  0.00  0.00    +0.000 A 
ATOM     15  C   UNL     1       1.021   8.533  20.069  0.00  0.00    +0.000 A 
BRANCH  10  17
ATOM     16  C   UNL     1       0.229  11.344  21.730  0.00  0.00    +0.000 C 
ATOM     17  C   UNL     1      -0.439  10.515  20.632  0.00  0.00    +0.000 C 
ATOM     18  C   UNL     1      -1.413  11.364  19.814  0.00  0.00    +0.000 C 
ENDBRANCH  10  17
ENDBRANCH   1  14
BRANCH   7  19
ATOM     19  C   UNL     1       5.991   4.355  17.853  0.00  0.00    +0.000 A 
ATOM     20  C   UNL     1       5.965   4.205  16.455  0.00  0.00    +0.000 A 
ATOM     21  N   UNL     1       7.070   4.687  15.876  0.00  0.00    +0.000 NA
ATOM     22  N   UNL     1       7.820   5.093  16.912  0.00  0.00    +0.000 N 
ATOM     23  C   UNL     1       7.212   4.927  18.124  0.00  0.00    +0.000 A 
ATOM     24  H   UNL     1       8.744   5.468  16.718  0.00  0.00    +0.000 HD
ENDBRANCH   7  19
TORSDOF 3
ENDMDL
MODEL 6
REMARK VINA RESULT:      -7.8      1.630      1.972
REMARK  Name = 
REMARK  5 active torsions:
REMARK  status: ('A' for Active; 'I' for Inactive)
REMARK    1  A    between atoms: C_1  and  C_2
REMARK    2  A    between atoms: C_2  and  C_3
REMARK    3  A    between atoms: C_2  and  C_4
REMARK    4  A    between atoms: C_8  and  C_9
REMARK    5  A    between atoms: C_15  and  C_16
REMARK                            x       y       z     vdW  Elec       q    Type
REMARK                         _______ _______ _______ _____ _____    ______ ____
ROOT
ATOM      1  C   UNL     1       5.365   5.328  15.867  0.00  0.00    +0.000 A 
ATOM      2  C   UNL     1       4.956   6.707  16.126  0.00  0.00    +0.000 A 
ATOM      3  C   UNL     1       4.321   7.057  17.262  0.00  0.00    +0.000 A 
ATOM      4  C   UNL     1       4.027   6.064  18.233  0.00  0.00    +0.000 A 
ATOM      5  N   UNL     1       3.332   6.090  19.348  0.00  0.00    +0.000 NA
ATOM      6  N   UNL     1       3.310   4.808  19.856  0.00  0.00    +0.000 NA
ATOM      7  C   UNL     1       4.059   4.042  19.085  0.00  0.00    +0.000 A 
ATOM      8  N   UNL     1       4.484   4.776  17.996  0.00  0.00    +0.000 N 
ATOM      9  C   UNL     1       5.133   4.402  16.821  0.00  0.00    +0.000 A 
ENDROOT
BRANCH   1  14
ATOM     10  C   UNL     1       5.972   3.491  12.621  0.00  0.00    +0.000 A 
ATOM     11  C   UNL     1       7.192   4.061  12.230  0.00  0.00    +0.000 A 
ATOM     12  C   UNL     1       7.812   5.036  13.015  0.00  0.00    +0.000 A 
ATOM     13  C   UNL     1       7.219   5.452  14.207  0.00  0.00    +0.000 A 
ATOM     14  C   UNL     1       6.005   4.893  14.617  0.00  0.00    +0.000 A 
ATOM     15  C   UNL     1       5.390   3.916  13.827  0.00  0.00    +0.000 A 
BRANCH  10  17
ATOM     16  C   UNL     1       4.176   3.037  10.907  0.00  0.00    +0.000 C 
ATOM     17  C   UNL     1       5.271   2.433  11.787  0.00  0.00    +0.000 C 
ATOM     18  C   UNL     1       6.267   1.625  10.954  0.00  0.00    +0.000 C 
ENDBRANCH  10  17
ENDBRANCH   1  14
BRANCH   7  19
ATOM     19  C   UNL     1       4.323   2.613  19.369  0.00  0.00    +0.000 A 
ATOM     20  C   UNL     1       5.036   2.083  20.459  0.00  0.00    +0.000 A 
ATOM     21  N   UNL     1       5.084   0.747  20.429  0.00  0.00    +0.000 NA
ATOM     22  N   UNL     1       4.449   0.432  19.289  0.00  0.00    +0.000 N 
ATOM     23  C   UNL     1       3.961   1.519  18.620  0.00  0.00    +0.000 A 
ATOM     24  H   UNL     1       4.393  -0.547  19.025  0.00  0.00    +0.000 HD
ENDBRANCH   7  19
TORSDOF 3
ENDMDL
MODEL 7
REMARK VINA RESULT:      -7.7      2.315      4.043
REMARK  Name = 
REMARK  5 active torsions:
REMARK  status: ('A' for Active; 'I' for Inactive)
REMARK    1  A    between atoms: C_1  and  C_2
REMARK    2  A    between atoms: C_2  and  C_3
REMARK    3  A    between atoms: C_2  and  C_4
REMARK    4  A    between atoms: C_8  and  C_9
REMARK    5  A    between atoms: C_15  and  C_16
REMARK                            x       y       z     vdW  Elec       q    Type
REMARK                         _______ _______ _______ _____ _____    ______ ____
ROOT
ATOM      1  C   UNL     1       4.155   3.692  17.388  0.00  0.00    +0.000 A 
ATOM      2  C   UNL     1       3.786   2.293  17.598  0.00  0.00    +0.000 A 
ATOM      3  C   UNL     1       2.876   1.931  18.524  0.00  0.00    +0.000 A 
ATOM      4  C   UNL     1       2.263   2.927  19.328  0.00  0.00    +0.000 A 
ATOM      5  N   UNL     1       1.454   2.861  20.362  0.00  0.00    +0.000 NA
ATOM      6  N   UNL     1       1.236   4.148  20.805  0.00  0.00    +0.000 NA
ATOM      7  C   UNL     1       1.851   4.980  19.984  0.00  0.00    +0.000 A 
ATOM      8  N   UNL     1       2.579   4.252  19.066  0.00  0.00    +0.000 N 
ATOM      9  C   UNL     1       3.525   4.636  18.118  0.00  0.00    +0.000 A 
ENDROOT
BRANCH   1  14
ATOM     10  C   UNL     1       6.154   4.006  14.197  0.00  0.00    +0.000 A 
ATOM     11  C   UNL     1       7.122   4.940  14.592  0.00  0.00    +0.000 A 
ATOM     12  C   UNL     1       7.123   5.464  15.888  0.00  0.00    +0.000 A 
ATOM     13  C   UNL     1       6.156   5.057  16.807  0.00  0.00    +0.000 A 
ATOM     14  C   UNL     1       5.186   4.124  16.432  0.00  0.00    +0.000 A 
ATOM     15  C   UNL     1       5.189   3.601  15.135  0.00  0.00    +0.000 A 
BRANCH  10  17
ATOM     16  C   UNL     1       4.723   3.496  12.179  0.00  0.00    +0.000 C 
ATOM     17  C   UNL     1       6.122   3.422  12.794  0.00  0.00    +0.000 C 
ATOM     18  C   UNL     1       7.160   4.083  11.888  0.00  0.00    +0.000 C 
ENDBRANCH  10  17
ENDBRANCH   1  14
BRANCH   7  19
ATOM     19  C   UNL     1       1.774   6.453  20.113  0.00  0.00    +0.000 A 
ATOM     20  C   UNL     1       1.218   7.183  21.179  0.00  0.00    +0.000 A 
ATOM     21  N   UNL     1       1.319   8.504  20.992  0.00  0.00    +0.000 NA
ATOM     22  N   UNL     1       1.889   8.610  19.782  0.00  0.00    +0.000 N 
ATOM     23  C   UNL     1       2.194   7.406  19.215  0.00  0.00    +0.000 A 
ATOM     24  H   UNL     1       2.033   9.541  19.399  0.00  0.00    +0.000 HD
ENDBRANCH   7  19
TORSDOF 3
ENDMDL
MODEL 8
REMARK VINA RESULT:      -7.7      2.925      6.876
REMARK  Name = 
REMARK  5 active torsions:
REMARK  status: ('A' for Active; 'I' for Inactive)
REMARK    1  A    between atoms: C_1  and  C_2
REMARK    2  A    between atoms: C_2  and  C_3
REMARK    3  A    between atoms: C_2  and  C_4
REMARK    4  A    between atoms: C_8  and  C_9
REMARK    5  A    between atoms: C_15  and  C_16
REMARK                            x       y       z     vdW  Elec       q    Type
REMARK                         _______ _______ _______ _____ _____    ______ ____
ROOT
ATOM      1  C   UNL     1       4.664   4.269  17.041  0.00  0.00    +0.000 A 
ATOM      2  C   UNL     1       5.504   5.277  17.686  0.00  0.00    +0.000 A 
ATOM      3  C   UNL     1       6.539   5.853  17.045  0.00  0.00    +0.000 A 
ATOM      4  C   UNL     1       6.837   5.469  15.710  0.00  0.00    +0.000 A 
ATOM      5  N   UNL     1       7.829   5.764  14.901  0.00  0.00    +0.000 NA
ATOM      6  N   UNL     1       7.652   5.039  13.742  0.00  0.00    +0.000 NA
ATOM      7  C   UNL     1       6.513   4.378  13.835  0.00  0.00    +0.000 A 
ATOM      8  N   UNL     1       5.987   4.561  15.097  0.00  0.00    +0.000 N 
ATOM      9  C   UNL     1       4.919   3.952  15.754  0.00  0.00    +0.000 A 
ENDROOT
BRANCH   1  14
ATOM     10  C   UNL     1       1.978   3.464  19.574  0.00  0.00    +0.000 A 
ATOM     11  C   UNL     1       1.463   2.278  19.032  0.00  0.00    +0.000 A 
ATOM     12  C   UNL     1       1.986   1.745  17.851  0.00  0.00    +0.000 A 
ATOM     13  C   UNL     1       3.035   2.391  17.198  0.00  0.00    +0.000 A 
ATOM     14  C   UNL     1       3.564   3.572  17.724  0.00  0.00    +0.000 A 
ATOM     15  C   UNL     1       3.038   4.101  18.908  0.00  0.00    +0.000 A 
BRANCH  10  17
ATOM     16  C   UNL     1       1.997   3.389  22.098  0.00  0.00    +0.000 C 
ATOM     17  C   UNL     1       1.428   4.072  20.853  0.00  0.00    +0.000 C 
ATOM     18  C   UNL     1       1.656   5.583  20.899  0.00  0.00    +0.000 C 
ENDBRANCH  10  17
ENDBRANCH   1  14
BRANCH   7  19
ATOM     19  C   UNL     1       5.964   3.545  12.739  0.00  0.00    +0.000 A 
ATOM     20  C   UNL     1       4.668   3.605  12.198  0.00  0.00    +0.000 A 
ATOM     21  N   UNL     1       4.494   2.722  11.208  0.00  0.00    +0.000 NA
ATOM     22  N   UNL     1       5.663   2.065  11.160  0.00  0.00    +0.000 N 
ATOM     23  C   UNL     1       6.587   2.531  12.052  0.00  0.00    +0.000 A 
ATOM     24  H   UNL     1       5.758   1.302  10.496  0.00  0.00    +0.000 HD
ENDBRANCH   7  19
TORSDOF 3
ENDMDL
MODEL 9
REMARK VINA RESULT:      -7.6      5.855      9.216
REMARK  Name = 
REMARK  5 active torsions:
REMARK  status: ('A' for Active; 'I' for Inactive)
REMARK    1  A    between atoms: C_1  and  C_2
REMARK    2  A    between atoms: C_2  and  C_3
REMARK    3  A    between atoms: C_2  and  C_4
REMARK    4  A    between atoms: C_8  and  C_9
REMARK    5  A    between atoms: C_15  and  C_16
REMARK                            x       y       z     vdW  Elec       q    Type
REMARK                         _______ _______ _______ _____ _____    ______ ____
ROOT
ATOM      1  C   UNL     1       1.448   8.442  19.891  0.00  0.00    +0.000 A 
ATOM      2  C   UNL     1       2.017   8.981  18.658  0.00  0.00    +0.000 A 
ATOM      3  C   UNL     1       2.742   8.216  17.817  0.00  0.00    +0.000 A 
ATOM      4  C   UNL     1       2.972   6.852  18.137  0.00  0.00    +0.000 A 
ATOM      5  N   UNL     1       3.719   5.923  17.584  0.00  0.00    +0.000 NA
ATOM      6  N   UNL     1       3.626   4.792  18.365  0.00  0.00    +0.000 NA
ATOM      7  C   UNL     1       2.761   5.025  19.335  0.00  0.00    +0.000 A 
ATOM      8  N   UNL     1       2.367   6.346  19.278  0.00  0.00    +0.000 N 
ATOM      9  C   UNL     1       1.624   7.131  20.158  0.00  0.00    +0.000 A 
ENDROOT
BRANCH   1  14
ATOM     10  C   UNL     1      -0.755  11.154  21.330  0.00  0.00    +0.000 A 
ATOM     11  C   UNL     1      -0.731  10.809  22.688  0.00  0.00    +0.000 A 
ATOM     12  C   UNL     1      -0.004   9.701  23.133  0.00  0.00    +0.000 A 
ATOM     13  C   UNL     1       0.712   8.926  22.222  0.00  0.00    +0.000 A 
ATOM     14  C   UNL     1       0.704   9.256  20.864  0.00  0.00    +0.000 A 
ATOM     15  C   UNL     1      -0.024  10.367  20.425  0.00  0.00    +0.000 A 
BRANCH  10  17
ATOM     16  C   UNL     1      -2.094  12.103  19.411  0.00  0.00    +0.000 C 
ATOM     17  C   UNL     1      -1.540  12.349  20.815  0.00  0.00    +0.000 C 
ATOM     18  C   UNL     1      -2.651  12.750  21.785  0.00  0.00    +0.000 C 
ENDBRANCH  10  17
ENDBRANCH   1  14
BRANCH   7  19
ATOM     19  C   UNL     1       2.357   4.004  20.328  0.00  0.00    +0.000 A 
ATOM     20  C   UNL     1       3.206   3.188  21.097  0.00  0.00    +0.000 A 
ATOM     21  N   UNL     1       2.524   2.375  21.911  0.00  0.00    +0.000 NA
ATOM     22  N   UNL     1       1.240   2.637  21.616  0.00  0.00    +0.000 N 
ATOM     23  C   UNL     1       1.085   3.618  20.679  0.00  0.00    +0.000 A 
ATOM     24  H   UNL     1       0.520   2.100  22.090  0.00  0.00    +0.000 HD
ENDBRANCH   7  19
TORSDOF 3
ENDMDL
