MODEL 1
REMARK VINA RESULT:      -8.7      0.000      0.000
REMARK  Name = 
REMARK  5 active torsions:
REMARK  status: ('A' for Active; 'I' for Inactive)
REMARK    1  A    between atoms: C_1  and  C_2
REMARK    2  A    between atoms: C_7  and  N_8
REMARK    3  A    between atoms: N_11  and  C_12
REMARK    4  A    between atoms: C_15  and  O_16
REMARK    5  A    between atoms: O_16  and  C_17
REMARK                            x       y       z     vdW  Elec       q    Type
REMARK                         _______ _______ _______ _____ _____    ______ ____
ROOT
ATOM      1  C   UNL     1       7.585   6.515  18.508  0.00  0.00    +0.000 A 
ATOM      2  C   UNL     1       6.946   5.542  19.264  0.00  0.00    +0.000 A 
ATOM      3  N   UNL     1       6.095   4.623  18.759  0.00  0.00    +0.000 NA
ATOM      4  C   UNL     1       5.905   4.671  17.433  0.00  0.00    +0.000 A 
ATOM      5  N   UNL     1       6.473   5.571  16.601  0.00  0.00    +0.000 NA
ATOM      6  C   UNL     1       7.278   6.491  17.167  0.00  0.00    +0.000 A 
ENDROOT
BRANCH   1  10
ATOM      7  N   UNL     1       9.456   9.534  19.231  0.00  0.00    +0.000 N 
ATOM      8  C   UNL     1       8.513   8.720  18.626  0.00  0.00    +0.000 C 
ATOM      9  O   UNL     1       7.642   9.093  17.848  0.00  0.00    +0.000 OA
ATOM     10  N   UNL     1       8.576   7.392  19.032  0.00  0.00    +0.000 N 
ATOM     11  H   UNL     1      10.085   9.124  19.902  0.00  0.00    +0.000 HD
ATOM     12  H   UNL     1       8.824   7.265  20.003  0.00  0.00    +0.000 HD
BRANCH   7  19
ATOM     13  C   UNL     1       8.912  11.433  21.467  0.00  0.00    +0.000 C 
ATOM     14  C   UNL     1       9.257  11.851  20.065  0.00  0.00    +0.000 A 
ATOM     15  C   UNL     1       9.299  13.242  19.804  0.00  0.00    +0.000 A 
ATOM     16  C   UNL     1       9.602  13.736  18.535  0.00  0.00    +0.000 A 
ATOM     17  C   UNL     1       9.897  12.846  17.517  0.00  0.00    +0.000 A 
ATOM     18  C   UNL     1       9.880  11.478  17.766  0.00  0.00    +0.000 A 
ATOM     19  C   UNL     1       9.539  10.946  19.023  0.00  0.00    +0.000 A 
ENDBRANCH   7  19
ENDBRANCH   1  10
BRANCH   4  20
ATOM     20  O   UNL     1       5.059   3.696  16.923  0.00  0.00    +0.000 OA
BRANCH  20  21
ATOM     21  C   UNL     1       3.768   3.636  17.394  0.00  0.00    +0.000 A 
ATOM     22  C   UNL     1       2.944   4.755  17.553  0.00  0.00    +0.000 A 
ATOM     23  C   UNL     1       1.640   4.613  18.022  0.00  0.00    +0.000 A 
ATOM     24  C   UNL     1       1.165   3.354  18.395  0.00  0.00    +0.000 A 
ATOM     25  C   UNL     1       2.000   2.240  18.300  0.00  0.00    +0.000 A 
ATOM     26  C   UNL     1       3.293   2.387  17.802  0.00  0.00    +0.000 A 
ATOM     27  F   UNL     1       4.082   1.303  17.725  0.00  0.00    +0.000 F 
ENDBRANCH  20  21
ENDBRANCH   4  20
TORSDOF 4
ENDMDL
MODEL 2
REMARK VINA RESULT:      -8.6      2.904      9.196
REMARK  Name = 
REMARK  5 active torsions:
REMARK  status: ('A' for Active; 'I' for Inactive)
REMARK    1  A    between atoms: C_1  and  C_2
REMARK    2  A    between atoms: C_7  and  N_8
REMARK    3  A    between atoms: N_11  and  C_12
REMARK    4  A    between atoms: C_15  and  O_16
REMARK    5  A    between atoms: O_16  and  C_17
REMARK                            x       y       z     vdW  Elec       q    Type
REMARK                         _______ _______ _______ _____ _____    ______ ____
ROOT
ATOM      1  C   UNL     1       7.338   5.973  18.264  0.00  0.00    +0.000 A 
ATOM      2  C   UNL     1       8.193   6.654  19.119  0.00  0.00    +0.000 A 
ATOM      3  N   UNL     1       8.618   7.920  18.921  0.00  0.00    +0.000 NA
ATOM      4  C   UNL     1       8.137   8.532  17.831  0.00  0.00    +0.000 A 
ATOM      5  N   UNL     1       7.301   7.970  16.931  0.00  0.00    +0.000 NA
ATOM      6  C   UNL     1       6.945   6.690  17.157  0.00  0.00    +0.000 A 
ENDROOT
BRANCH   1  10
ATOM      7  N   UNL     1       5.006   3.373  19.233  0.00  0.00    +0.000 N 
ATOM      8  C   UNL     1       5.499   4.653  19.047  0.00  0.00    +0.000 C 
ATOM      9  O   UNL     1       4.872   5.693  19.225  0.00  0.00    +0.000 OA
ATOM     10  N   UNL     1       6.797   4.688  18.552  0.00  0.00    +0.000 N 
ATOM     11  H   UNL     1       5.596   2.592  18.995  0.00  0.00    +0.000 HD
ATOM     12  H   UNL     1       7.013   3.950  17.898  0.00  0.00    +0.000 HD
BRANCH   7  19
ATOM     13  C   UNL     1       2.763   3.258  17.269  0.00  0.00    +0.000 C 
ATOM     14  C   UNL     1       2.603   3.058  18.750  0.00  0.00    +0.000 A 
ATOM     15  C   UNL     1       1.291   2.823  19.227  0.00  0.00    +0.000 A 
ATOM     16  C   UNL     1       1.033   2.634  20.584  0.00  0.00    +0.000 A 
ATOM     17  C   UNL     1       2.087   2.643  21.481  0.00  0.00    +0.000 A 
ATOM     18  C   UNL     1       3.383   2.852  21.022  0.00  0.00    +0.000 A 
ATOM     19  C   UNL     1       3.673   3.087  19.665  0.00  0.00    +0.000 A 
ENDBRANCH   7  19
ENDBRANCH   1  10
BRANCH   4  20
ATOM     20  O   UNL     1       8.552   9.846  17.661  0.00  0.00    +0.000 OA
BRANCH  20  21
ATOM     21  C   UNL     1       9.226  10.459  18.691  0.00  0.00    +0.000 A 
ATOM     22  C   UNL     1       8.741  10.538  20.001  0.00  0.00    +0.000 A 
ATOM     23  C   UNL     1       9.490  11.162  20.996  0.00  0.00    +0.000 A 
ATOM     24  C   UNL     1      10.707  11.768  20.678  0.00  0.00    +0.000 A 
ATOM     25  C   UNL     1      11.170  11.750  19.363  0.00  0.00    +0.000 A 
ATOM     26  C   UNL     1      10.429  11.097  18.380  0.00  0.00    +0.000 A 
ATOM     27  F   UNL     1      10.889  11.097  17.118  0.00  0.00    +0.000 F 
ENDBRANCH  20  21
ENDBRANCH   4  20
TORSDOF 4
ENDMDL
MODEL 3
REMARK VINA RESULT:      -8.5      6.782      9.319
REMARK  Name = 
REMARK  5 active torsions:
REMARK  status: ('A' for Active; 'I' for Inactive)
REMARK    1  A    between atoms: C_1  and  C_2
REMARK    2  A    between atoms: C_7  and  N_8
REMARK    3  A    between atoms: N_11  and  C_12
REMARK    4  A    between atoms: C_15  and  O_16
REMARK    5  A    between atoms: O_16  and  C_17
REMARK                            x       y       z     vdW  Elec       q    Type
REMARK                         _______ _______ _______ _____ _____    ______ ____
ROOT
ATOM      1  C   UNL     1       1.025   9.773  18.740  0.00  0.00    +0.000 A 
ATOM      2  C   UNL     1       1.749   9.069  17.787  0.00  0.00    +0.000 A 
ATOM      3  N   UNL     1       2.439   7.936  18.039  0.00  0.00    +0.000 NA
ATOM      4  C   UNL     1       2.370   7.479  19.297  0.00  0.00    +0.000 A 
ATOM      5  N   UNL     1       1.698   8.079  20.303  0.00  0.00    +0.000 NA
ATOM      6  C   UNL     1       1.064   9.229  20.004  0.00  0.00    +0.000 A 
ENDROOT
BRANCH   1  10
ATOM      7  N   UNL     1      -1.918  11.808  18.168  0.00  0.00    +0.000 N 
ATOM      8  C   UNL     1      -1.170  10.665  18.396  0.00  0.00    +0.000 C 
ATOM      9  O   UNL     1      -1.623   9.546  18.614  0.00  0.00    +0.000 OA
ATOM     10  N   UNL     1       0.201  10.891  18.433  0.00  0.00    +0.000 N 
ATOM     11  H   UNL     1      -1.436  12.685  18.062  0.00  0.00    +0.000 HD
ATOM     12  H   UNL     1       0.465  11.775  18.844  0.00  0.00    +0.000 HD
BRANCH   7  19
ATOM     13  C   UNL     1      -3.435  11.039  15.716  0.00  0.00    +0.000 C 
ATOM     14  C   UNL     1      -4.073  11.499  16.997  0.00  0.00    +0.000 A 
ATOM     15  C   UNL     1      -5.485  11.588  17.014  0.00  0.00    +0.000 A 
ATOM     16  C   UNL     1      -6.175  12.012  18.150  0.00  0.00    +0.000 A 
ATOM     17  C   UNL     1      -5.464  12.322  19.295  0.00  0.00    +0.000 A 
ATOM     18  C   UNL     1      -4.077  12.218  19.298  0.00  0.00    +0.000 A 
ATOM     19  C   UNL     1      -3.348  11.834  18.158  0.00  0.00    +0.000 A 
ENDBRANCH   7  19
ENDBRANCH   1  10
BRANCH   4  20
ATOM     20  O   UNL     1       3.051   6.292  19.531  0.00  0.00    +0.000 OA
BRANCH  20  21
ATOM     21  C   UNL     1       2.335   5.118  19.549  0.00  0.00    +0.000 A 
ATOM     22  C   UNL     1       1.747   4.582  20.700  0.00  0.00    +0.000 A 
ATOM     23  C   UNL     1       1.022   3.395  20.636  0.00  0.00    +0.000 A 
ATOM     24  C   UNL     1       0.928   2.697  19.430  0.00  0.00    +0.000 A 
ATOM     25  C   UNL     1       1.564   3.190  18.291  0.00  0.00    +0.000 A 
ATOM     26  C   UNL     1       2.261   4.395  18.357  0.00  0.00    +0.000 A 
ATOM     27  F   UNL     1       2.872   4.848  17.249  0.00  0.00    +0.000 F 
ENDBRANCH  20  21
ENDBRANCH   4  20
TORSDOF 4
ENDMDL
MODEL 4
REMARK VINA RESULT:      -8.4      1.094      1.721
REMARK  Name = 
REMARK  5 active torsions:
REMARK  status: ('A' for Active; 'I' for Inactive)
REMARK    1  A    between atoms: C_1  and  C_2
REMARK    2  A    between atoms: C_7  and  N_8
REMARK    3  A    between atoms: N_11  and  C_12
REMARK    4  A    between atoms: C_15  and  O_16
REMARK    5  A    between atoms: O_16  and  C_17
REMARK                            x       y       z     vdW  Elec       q    Type
REMARK                         _______ _______ _______ _____ _____    ______ ____
ROOT
ATOM      1  C   UNL     1       7.518   6.602  18.302  0.00  0.00    +0.000 A 
ATOM      2  C   UNL     1       7.159   6.707  16.965  0.00  0.00    +0.000 A 
ATOM      3  N   UNL     1       6.150   6.018  16.391  0.00  0.00    +0.000 NA
ATOM      4  C   UNL     1       5.457   5.212  17.207  0.00  0.00    +0.000 A 
ATOM      5  N   UNL     1       5.715   5.031  18.521  0.00  0.00    +0.000 NA
ATOM      6  C   UNL     1       6.761   5.712  19.028  0.00  0.00    +0.000 A 
ENDROOT
BRANCH   1  10
ATOM      7  N   UNL     1       9.437   9.530  19.238  0.00  0.00    +0.000 N 
ATOM      8  C   UNL     1       8.514   8.766  18.544  0.00  0.00    +0.000 C 
ATOM      9  O   UNL     1       7.717   9.189  17.713  0.00  0.00    +0.000 OA
ATOM     10  N   UNL     1       8.498   7.428  18.920  0.00  0.00    +0.000 N 
ATOM     11  H   UNL     1       9.999   9.082  19.943  0.00  0.00    +0.000 HD
ATOM     12  H   UNL     1       8.668   7.271  19.903  0.00  0.00    +0.000 HD
BRANCH   7  19
ATOM     13  C   UNL     1       8.901  11.390  21.508  0.00  0.00    +0.000 C 
ATOM     14  C   UNL     1       9.310  11.831  20.130  0.00  0.00    +0.000 A 
ATOM     15  C   UNL     1       9.419  13.225  19.910  0.00  0.00    +0.000 A 
ATOM     16  C   UNL     1       9.783  13.739  18.665  0.00  0.00    +0.000 A 
ATOM     17  C   UNL     1      10.073  12.866  17.632  0.00  0.00    +0.000 A 
ATOM     18  C   UNL     1       9.990  11.493  17.842  0.00  0.00    +0.000 A 
ATOM     19  C   UNL     1       9.586  10.943  19.073  0.00  0.00    +0.000 A 
ENDBRANCH   7  19
ENDBRANCH   1  10
BRANCH   4  20
ATOM     20  O   UNL     1       4.397   4.540  16.612  0.00  0.00    +0.000 OA
BRANCH  20  21
ATOM     21  C   UNL     1       3.518   3.858  17.419  0.00  0.00    +0.000 A 
ATOM     22  C   UNL     1       3.625   2.494  17.709  0.00  0.00    +0.000 A 
ATOM     23  C   UNL     1       2.703   1.874  18.549  0.00  0.00    +0.000 A 
ATOM     24  C   UNL     1       1.626   2.601  19.061  0.00  0.00    +0.000 A 
ATOM     25  C   UNL     1       1.474   3.946  18.726  0.00  0.00    +0.000 A 
ATOM     26  C   UNL     1       2.418   4.565  17.910  0.00  0.00    +0.000 A 
ATOM     27  F   UNL     1       2.249   5.860  17.595  0.00  0.00    +0.000 F 
ENDBRANCH  20  21
ENDBRANCH   4  20
TORSDOF 4
ENDMDL
MODEL 5
REMARK VINA RESULT:      -8.4      0.938      1.345
REMARK  Name = 
REMARK  5 active torsions:
REMARK  status: ('A' for Active; 'I' for Inactive)
REMARK    1  A    between atoms: C_1  and  C_2
REMARK    2  A    between atoms: C_7  and  N_8
REMARK    3  A    between atoms: N_11  and  C_12
REMARK    4  A    between atoms: C_15  and  O_16
REMARK    5  A    between atoms: O_16  and  C_17
REMARK                            x       y       z     vdW  Elec       q    Type
REMARK                         _______ _______ _______ _____ _____    ______ ____
ROOT
ATOM      1  C   UNL     1       7.651   6.587  18.525  0.00  0.00    +0.000 A 
ATOM      2  C   UNL     1       7.087   5.539  19.240  0.00  0.00    +0.000 A 
ATOM      3  N   UNL     1       6.262   4.613  18.709  0.00  0.00    +0.000 NA
ATOM      4  C   UNL     1       6.019   4.732  17.396  0.00  0.00    +0.000 A 
ATOM      5  N   UNL     1       6.512   5.708  16.603  0.00  0.00    +0.000 NA
ATOM      6  C   UNL     1       7.295   6.629  17.196  0.00  0.00    +0.000 A 
ENDROOT
BRANCH   1  10
ATOM      7  N   UNL     1       9.475   9.629  19.270  0.00  0.00    +0.000 N 
ATOM      8  C   UNL     1       8.557   8.801  18.647  0.00  0.00    +0.000 C 
ATOM      9  O   UNL     1       7.703   9.158  17.841  0.00  0.00    +0.000 OA
ATOM     10  N   UNL     1       8.619   7.478  19.067  0.00  0.00    +0.000 N 
ATOM     11  H   UNL     1      10.088   9.231  19.962  0.00  0.00    +0.000 HD
ATOM     12  H   UNL     1       8.842   7.362  20.046  0.00  0.00    +0.000 HD
BRANCH   7  19
ATOM     13  C   UNL     1       8.922  11.543  21.491  0.00  0.00    +0.000 C 
ATOM     14  C   UNL     1       9.265  11.952  20.086  0.00  0.00    +0.000 A 
ATOM     15  C   UNL     1       9.301  13.341  19.814  0.00  0.00    +0.000 A 
ATOM     16  C   UNL     1       9.600  13.826  18.541  0.00  0.00    +0.000 A 
ATOM     17  C   UNL     1       9.900  12.930  17.529  0.00  0.00    +0.000 A 
ATOM     18  C   UNL     1       9.889  11.564  17.790  0.00  0.00    +0.000 A 
ATOM     19  C   UNL     1       9.551  11.040  19.051  0.00  0.00    +0.000 A 
ENDBRANCH   7  19
ENDBRANCH   1  10
BRANCH   4  20
ATOM     20  O   UNL     1       5.200   3.749  16.856  0.00  0.00    +0.000 OA
BRANCH  20  21
ATOM     21  C   UNL     1       3.964   3.542  17.422  0.00  0.00    +0.000 A 
ATOM     22  C   UNL     1       3.495   2.289  17.831  0.00  0.00    +0.000 A 
ATOM     23  C   UNL     1       2.236   2.160  18.412  0.00  0.00    +0.000 A 
ATOM     24  C   UNL     1       1.405   3.276  18.534  0.00  0.00    +0.000 A 
ATOM     25  C   UNL     1       1.839   4.519  18.071  0.00  0.00    +0.000 A 
ATOM     26  C   UNL     1       3.112   4.644  17.520  0.00  0.00    +0.000 A 
ATOM     27  F   UNL     1       3.507   5.848  17.075  0.00  0.00    +0.000 F 
ENDBRANCH  20  21
ENDBRANCH   4  20
TORSDOF 4
ENDMDL
MODEL 6
REMARK VINA RESULT:      -8.4      6.894      9.399
REMARK  Name = 
REMARK  5 active torsions:
REMARK  status: ('A' for Active; 'I' for Inactive)
REMARK    1  A    between atoms: C_1  and  C_2
REMARK    2  A    between atoms: C_7  and  N_8
REMARK    3  A    between atoms: N_11  and  C_12
REMARK    4  A    between atoms: C_15  and  O_16
REMARK    5  A    between atoms: O_16  and  C_17
REMARK                            x       y       z     vdW  Elec       q    Type
REMARK                         _______ _______ _______ _____ _____    ______ ____
ROOT
ATOM      1  C   UNL     1       0.974   9.854  18.702  0.00  0.00    +0.000 A 
ATOM      2  C   UNL     1       1.682   9.176  17.719  0.00  0.00    +0.000 A 
ATOM      3  N   UNL     1       2.383   8.042  17.931  0.00  0.00    +0.000 NA
ATOM      4  C   UNL     1       2.343   7.557  19.180  0.00  0.00    +0.000 A 
ATOM      5  N   UNL     1       1.689   8.130  20.213  0.00  0.00    +0.000 NA
ATOM      6  C   UNL     1       1.043   9.283  19.952  0.00  0.00    +0.000 A 
ENDROOT
BRANCH   1  10
ATOM      7  N   UNL     1      -1.992  11.885  18.245  0.00  0.00    +0.000 N 
ATOM      8  C   UNL     1      -1.233  10.742  18.433  0.00  0.00    +0.000 C 
ATOM      9  O   UNL     1      -1.676   9.617  18.645  0.00  0.00    +0.000 OA
ATOM     10  N   UNL     1       0.137  10.973  18.436  0.00  0.00    +0.000 N 
ATOM     11  H   UNL     1      -1.517  12.766  18.141  0.00  0.00    +0.000 HD
ATOM     12  H   UNL     1       0.409  11.851  18.854  0.00  0.00    +0.000 HD
BRANCH   7  19
ATOM     13  C   UNL     1      -3.573  11.068  15.850  0.00  0.00    +0.000 C 
ATOM     14  C   UNL     1      -4.177  11.547  17.140  0.00  0.00    +0.000 A 
ATOM     15  C   UNL     1      -5.589  11.630  17.195  0.00  0.00    +0.000 A 
ATOM     16  C   UNL     1      -6.249  12.070  18.342  0.00  0.00    +0.000 A 
ATOM     17  C   UNL     1      -5.508  12.403  19.462  0.00  0.00    +0.000 A 
ATOM     18  C   UNL     1      -4.121  12.305  19.428  0.00  0.00    +0.000 A 
ATOM     19  C   UNL     1      -3.422  11.904  18.274  0.00  0.00    +0.000 A 
ENDBRANCH   7  19
ENDBRANCH   1  10
BRANCH   4  20
ATOM     20  O   UNL     1       3.036   6.369  19.374  0.00  0.00    +0.000 OA
BRANCH  20  21
ATOM     21  C   UNL     1       2.348   5.184  19.263  0.00  0.00    +0.000 A 
ATOM     22  C   UNL     1       1.972   4.612  18.044  0.00  0.00    +0.000 A 
ATOM     23  C   UNL     1       1.290   3.398  18.011  0.00  0.00    +0.000 A 
ATOM     24  C   UNL     1       0.922   2.772  19.204  0.00  0.00    +0.000 A 
ATOM     25  C   UNL     1       1.237   3.365  20.426  0.00  0.00    +0.000 A 
ATOM     26  C   UNL     1       1.946   4.564  20.449  0.00  0.00    +0.000 A 
ATOM     27  F   UNL     1       2.233   5.122  21.637  0.00  0.00    +0.000 F 
ENDBRANCH  20  21
ENDBRANCH   4  20
TORSDOF 4
ENDMDL
MODEL 7
REMARK VINA RESULT:      -8.3      6.997      9.349
REMARK  Name = 
REMARK  5 active torsions:
REMARK  status: ('A' for Active; 'I' for Inactive)
REMARK    1  A    between atoms: C_1  and  C_2
REMARK    2  A    between atoms: C_7  and  N_8
REMARK    3  A    between atoms: N_11  and  C_12
REMARK    4  A    between atoms: C_15  and  O_16
REMARK    5  A    between atoms: O_16  and  C_17
REMARK                            x       y       z     vdW  Elec       q    Type
REMARK                         _______ _______ _______ _____ _____    ______ ____
ROOT
ATOM      1  C   UNL     1       0.883   9.966  18.764  0.00  0.00    +0.000 A 
ATOM      2  C   UNL     1       1.574   9.274  17.779  0.00  0.00    +0.000 A 
ATOM      3  N   UNL     1       2.284   8.146  17.997  0.00  0.00    +0.000 NA
ATOM      4  C   UNL     1       2.271   7.683  19.254  0.00  0.00    +0.000 A 
ATOM      5  N   UNL     1       1.634   8.272  20.290  0.00  0.00    +0.000 NA
ATOM      6  C   UNL     1       0.978   9.417  20.022  0.00  0.00    +0.000 A 
ENDROOT
BRANCH   1  10
ATOM      7  N   UNL     1      -2.101  11.968  18.295  0.00  0.00    +0.000 N 
ATOM      8  C   UNL     1      -1.332  10.833  18.485  0.00  0.00    +0.000 C 
ATOM      9  O   UNL     1      -1.764   9.704  18.694  0.00  0.00    +0.000 OA
ATOM     10  N   UNL     1       0.036  11.078  18.495  0.00  0.00    +0.000 N 
ATOM     11  H   UNL     1      -1.633  12.854  18.194  0.00  0.00    +0.000 HD
ATOM     12  H   UNL     1       0.298  11.958  18.915  0.00  0.00    +0.000 HD
BRANCH   7  19
ATOM     13  C   UNL     1      -3.579  12.809  20.747  0.00  0.00    +0.000 C 
ATOM     14  C   UNL     1      -4.238  12.344  19.479  0.00  0.00    +0.000 A 
ATOM     15  C   UNL     1      -5.652  12.286  19.475  0.00  0.00    +0.000 A 
ATOM     16  C   UNL     1      -6.361  11.859  18.352  0.00  0.00    +0.000 A 
ATOM     17  C   UNL     1      -5.667  11.515  17.206  0.00  0.00    +0.000 A 
ATOM     18  C   UNL     1      -4.278  11.588  17.190  0.00  0.00    +0.000 A 
ATOM     19  C   UNL     1      -3.531  11.974  18.318  0.00  0.00    +0.000 A 
ENDBRANCH   7  19
ENDBRANCH   1  10
BRANCH   4  20
ATOM     20  O   UNL     1       2.971   6.501  19.455  0.00  0.00    +0.000 OA
BRANCH  20  21
ATOM     21  C   UNL     1       2.274   5.317  19.454  0.00  0.00    +0.000 A 
ATOM     22  C   UNL     1       1.596   4.811  20.568  0.00  0.00    +0.000 A 
ATOM     23  C   UNL     1       0.896   3.609  20.485  0.00  0.00    +0.000 A 
ATOM     24  C   UNL     1       0.917   2.869  19.301  0.00  0.00    +0.000 A 
ATOM     25  C   UNL     1       1.641   3.334  18.204  0.00  0.00    +0.000 A 
ATOM     26  C   UNL     1       2.314   4.551  18.286  0.00  0.00    +0.000 A 
ATOM     27  F   UNL     1       3.010   4.977  17.220  0.00  0.00    +0.000 F 
ENDBRANCH  20  21
ENDBRANCH   4  20
TORSDOF 4
ENDMDL
MODEL 8
REMARK VINA RESULT:      -8.2      6.848      9.149
REMARK  Name = 
REMARK  5 active torsions:
REMARK  status: ('A' for Active; 'I' for Inactive)
REMARK    1  A    between atoms: C_1  and  C_2
REMARK    2  A    between atoms: C_7  and  N_8
REMARK    3  A    between atoms: N_11  and  C_12
REMARK    4  A    between atoms: C_15  and  O_16
REMARK    5  A    between atoms: O_16  and  C_17
REMARK                            x       y       z     vdW  Elec       q    Type
REMARK                         _______ _______ _______ _____ _____    ______ ____
ROOT
ATOM      1  C   UNL     1       1.108   9.740  18.724  0.00  0.00    +0.000 A 
ATOM      2  C   UNL     1       1.838   9.057  17.761  0.00  0.00    +0.000 A 
ATOM      3  N   UNL     1       2.510   7.908  17.989  0.00  0.00    +0.000 NA
ATOM      4  C   UNL     1       2.417   7.414  19.231  0.00  0.00    +0.000 A 
ATOM      5  N   UNL     1       1.736   7.991  20.245  0.00  0.00    +0.000 NA
ATOM      6  C   UNL     1       1.121   9.158  19.971  0.00  0.00    +0.000 A 
ENDROOT
BRANCH   1  10
ATOM      7  N   UNL     1      -1.803  11.840  18.224  0.00  0.00    +0.000 N 
ATOM      8  C   UNL     1      -1.075  10.681  18.432  0.00  0.00    +0.000 C 
ATOM      9  O   UNL     1      -1.547   9.571  18.658  0.00  0.00    +0.000 OA
ATOM     10  N   UNL     1       0.301  10.877  18.438  0.00  0.00    +0.000 N 
ATOM     11  H   UNL     1      -1.304  12.707  18.109  0.00  0.00    +0.000 HD
ATOM     12  H   UNL     1       0.594  11.753  18.845  0.00  0.00    +0.000 HD
BRANCH   7  19
ATOM     13  C   UNL     1      -3.249  12.774  20.662  0.00  0.00    +0.000 C 
ATOM     14  C   UNL     1      -3.924  12.311  19.401  0.00  0.00    +0.000 A 
ATOM     15  C   UNL     1      -5.340  12.303  19.399  0.00  0.00    +0.000 A 
ATOM     16  C   UNL     1      -6.064  11.884  18.283  0.00  0.00    +0.000 A 
ATOM     17  C   UNL     1      -5.383  11.496  17.142  0.00  0.00    +0.000 A 
ATOM     18  C   UNL     1      -3.993  11.520  17.125  0.00  0.00    +0.000 A 
ATOM     19  C   UNL     1      -3.232  11.897  18.246  0.00  0.00    +0.000 A 
ENDBRANCH   7  19
ENDBRANCH   1  10
BRANCH   4  20
ATOM     20  O   UNL     1       3.080   6.213  19.439  0.00  0.00    +0.000 OA
BRANCH  20  21
ATOM     21  C   UNL     1       2.366   5.043  19.333  0.00  0.00    +0.000 A 
ATOM     22  C   UNL     1       1.935   4.500  18.118  0.00  0.00    +0.000 A 
ATOM     23  C   UNL     1       1.228   3.300  18.090  0.00  0.00    +0.000 A 
ATOM     24  C   UNL     1       0.891   2.659  19.285  0.00  0.00    +0.000 A 
ATOM     25  C   UNL     1       1.261   3.225  20.505  0.00  0.00    +0.000 A 
ATOM     26  C   UNL     1       1.994   4.410  20.522  0.00  0.00    +0.000 A 
ATOM     27  F   UNL     1       2.335   4.941  21.708  0.00  0.00    +0.000 F 
ENDBRANCH  20  21
ENDBRANCH   4  20
TORSDOF 4
ENDMDL
MODEL 9
REMARK VINA RESULT:      -8.2      1.623      1.919
REMARK  Name = 
REMARK  5 active torsions:
REMARK  status: ('A' for Active; 'I' for Inactive)
REMARK    1  A    between atoms: C_1  and  C_2
REMARK    2  A    between atoms: C_7  and  N_8
REMARK    3  A    between atoms: N_11  and  C_12
REMARK    4  A    between atoms: C_15  and  O_16
REMARK    5  A    between atoms: O_16  and  C_17
REMARK                            x       y       z     vdW  Elec       q    Type
REMARK                         _______ _______ _______ _____ _____    ______ ____
ROOT
ATOM      1  C   UNL     1       7.568   7.587  17.837  0.00  0.00    +0.000 A 
ATOM      2  C   UNL     1       8.103   6.665  18.726  0.00  0.00    +0.000 A 
ATOM      3  N   UNL     1       7.467   5.547  19.138  0.00  0.00    +0.000 NA
ATOM      4  C   UNL     1       6.255   5.337  18.607  0.00  0.00    +0.000 A 
ATOM      5  N   UNL     1       5.637   6.163  17.735  0.00  0.00    +0.000 NA
ATOM      6  C   UNL     1       6.301   7.285  17.394  0.00  0.00    +0.000 A 
ENDROOT
BRANCH   1  10
ATOM      7  N   UNL     1       9.540  10.623  17.669  0.00  0.00    +0.000 N 
ATOM      8  C   UNL     1       8.773   9.618  18.234  0.00  0.00    +0.000 C 
ATOM      9  O   UNL     1       8.553   9.475  19.432  0.00  0.00    +0.000 OA
ATOM     10  N   UNL     1       8.299   8.691  17.314  0.00  0.00    +0.000 N 
ATOM     11  H   UNL     1       9.702  10.603  16.676  0.00  0.00    +0.000 HD
ATOM     12  H   UNL     1       8.937   8.493  16.557  0.00  0.00    +0.000 HD
BRANCH   7  19
ATOM     13  C   UNL     1       8.324  13.337  17.914  0.00  0.00    +0.000 C 
ATOM     14  C   UNL     1       9.639  12.940  18.524  0.00  0.00    +0.000 A 
ATOM     15  C   UNL     1      10.341  13.939  19.239  0.00  0.00    +0.000 A 
ATOM     16  C   UNL     1      11.574  13.677  19.836  0.00  0.00    +0.000 A 
ATOM     17  C   UNL     1      12.107  12.403  19.755  0.00  0.00    +0.000 A 
ATOM     18  C   UNL     1      11.416  11.406  19.074  0.00  0.00    +0.000 A 
ATOM     19  C   UNL     1      10.191  11.648  18.425  0.00  0.00    +0.000 A 
ENDBRANCH   7  19
ENDBRANCH   1  10
BRANCH   4  20
ATOM     20  O   UNL     1       5.631   4.164  19.009  0.00  0.00    +0.000 OA
BRANCH  20  21
ATOM     21  C   UNL     1       4.268   4.060  18.856  0.00  0.00    +0.000 A 
ATOM     22  C   UNL     1       3.342   4.497  19.808  0.00  0.00    +0.000 A 
ATOM     23  C   UNL     1       1.974   4.373  19.574  0.00  0.00    +0.000 A 
ATOM     24  C   UNL     1       1.519   3.753  18.408  0.00  0.00    +0.000 A 
ATOM     25  C   UNL     1       2.435   3.258  17.481  0.00  0.00    +0.000 A 
ATOM     26  C   UNL     1       3.801   3.414  17.709  0.00  0.00    +0.000 A 
ATOM     27  F   UNL     1       4.666   2.923  16.807  0.00  0.00    +0.000 F 
ENDBRANCH  20  21
ENDBRANCH   4  20
TORSDOF 4
ENDMDL
