MODEL 1
REMARK VINA RESULT:      -8.2      0.000      0.000
REMARK  Name = 
REMARK  7 active torsions:
REMARK  status: ('A' for Active; 'I' for Inactive)
REMARK    1  A    between atoms: C_1  and  C_2
REMARK    2  A    between atoms: N_4  and  C_5
REMARK    3  A    between atoms: C_5  and  C_6
REMARK    4  A    between atoms: C_5  and  C_7
REMARK    5  A    between atoms: C_7  and  C_8
REMARK    6  A    between atoms: C_11  and  C_12
REMARK    7  A    between atoms: C_13  and  C_14
REMARK                            x       y       z     vdW  Elec       q    Type
REMARK                         _______ _______ _______ _____ _____    ______ ____
ROOT
ATOM      1  C   UNL     1       5.429   4.822  17.252  0.00  0.00    +0.000 A 
ATOM      2  C   UNL     1       6.559   4.706  18.073  0.00  0.00    +0.000 A 
ATOM      3  C   UNL     1       7.375   5.814  18.323  0.00  0.00    +0.000 A 
ATOM      4  C   UNL     1       7.076   7.049  17.750  0.00  0.00    +0.000 A 
ATOM      5  C   UNL     1       5.975   7.167  16.898  0.00  0.00    +0.000 A 
ATOM      6  C   UNL     1       5.158   6.059  16.649  0.00  0.00    +0.000 A 
ENDROOT
BRANCH   4   7
ATOM      7  C   UNL     1       7.877   8.196  18.056  0.00  0.00    +0.000 C 
ATOM      8  C   UNL     1       8.528   9.168  18.325  0.00  0.00    +0.000 C 
BRANCH   8   9
ATOM      9  C   UNL     1       9.306  10.327  18.643  0.00  0.00    +0.000 A 
ATOM     10  C   UNL     1       9.845  11.110  17.618  0.00  0.00    +0.000 A 
ATOM     11  C   UNL     1      10.630  12.224  17.926  0.00  0.00    +0.000 A 
ATOM     12  C   UNL     1      10.870  12.552  19.260  0.00  0.00    +0.000 A 
ATOM     13 BR   UNL     1      11.959  14.040  19.679  0.00  0.00    +0.000 Br
ATOM     14  C   UNL     1      10.322  11.786  20.288  0.00  0.00    +0.000 A 
ATOM     15  C   UNL     1       9.537  10.672  19.978  0.00  0.00    +0.000 A 
ENDBRANCH   8   9
ENDBRANCH   4   7
BRANCH   1  16
ATOM     16  C   UNL     1       4.516   3.637  17.016  0.00  0.00    +0.000 C 
BRANCH  16  17
ATOM     17  C   UNL     1       3.974   2.993  18.311  0.00  0.00    +0.000 C 
ATOM     18  C   UNL     1       3.562   1.543  18.051  0.00  0.00    +0.000 C 
BRANCH  17  22
ATOM     19  C   UNL     1       1.265   4.460  20.529  0.00  0.00    +0.000 C 
ATOM     20  C   UNL     1       2.464   3.623  20.174  0.00  0.00    +0.000 C 
ATOM     21  O   UNL     1       3.040   2.918  20.995  0.00  0.00    +0.000 OA
ATOM     22  N   UNL     1       2.845   3.740  18.856  0.00  0.00    +0.000 N 
ATOM     23  H   UNL     1       2.280   4.300  18.230  0.00  0.00    +0.000 HD
ENDBRANCH  17  22
ENDBRANCH  16  17
ENDBRANCH   1  16
TORSDOF 5
ENDMDL
MODEL 2
REMARK VINA RESULT:      -7.9      0.489      1.512
REMARK  Name = 
REMARK  7 active torsions:
REMARK  status: ('A' for Active; 'I' for Inactive)
REMARK    1  A    between atoms: C_1  and  C_2
REMARK    2  A    between atoms: N_4  and  C_5
REMARK    3  A    between atoms: C_5  and  C_6
REMARK    4  A    between atoms: C_5  and  C_7
REMARK    5  A    between atoms: C_7  and  C_8
REMARK    6  A    between atoms: C_11  and  C_12
REMARK    7  A    between atoms: C_13  and  C_14
REMARK                            x       y       z     vdW  Elec       q    Type
REMARK                         _______ _______ _______ _____ _____    ______ ____
ROOT
ATOM      1  C   UNL     1       5.647   4.989  17.218  0.00  0.00    +0.000 A 
ATOM      2  C   UNL     1       5.232   6.248  16.762  0.00  0.00    +0.000 A 
ATOM      3  C   UNL     1       5.975   7.395  17.062  0.00  0.00    +0.000 A 
ATOM      4  C   UNL     1       7.135   7.298  17.829  0.00  0.00    +0.000 A 
ATOM      5  C   UNL     1       7.534   6.055  18.324  0.00  0.00    +0.000 A 
ATOM      6  C   UNL     1       6.793   4.907  18.022  0.00  0.00    +0.000 A 
ENDROOT
BRANCH   4   7
ATOM      7  C   UNL     1       7.925   8.464  18.085  0.00  0.00    +0.000 C 
ATOM      8  C   UNL     1       8.587   9.437  18.325  0.00  0.00    +0.000 C 
BRANCH   8   9
ATOM      9  C   UNL     1       9.374  10.598  18.610  0.00  0.00    +0.000 A 
ATOM     10  C   UNL     1       9.981  10.743  19.860  0.00  0.00    +0.000 A 
ATOM     11  C   UNL     1      10.724  11.890  20.151  0.00  0.00    +0.000 A 
ATOM     12  C   UNL     1      10.858  12.888  19.186  0.00  0.00    +0.000 A 
ATOM     13 BR   UNL     1      11.835  14.456  19.589  0.00  0.00    +0.000 Br
ATOM     14  C   UNL     1      10.270  12.744  17.931  0.00  0.00    +0.000 A 
ATOM     15  C   UNL     1       9.527  11.596  17.642  0.00  0.00    +0.000 A 
ENDBRANCH   8   9
ENDBRANCH   4   7
BRANCH   1  16
ATOM     16  C   UNL     1       4.872   3.739  16.856  0.00  0.00    +0.000 C 
BRANCH  16  17
ATOM     17  C   UNL     1       4.046   3.152  18.021  0.00  0.00    +0.000 C 
ATOM     18  C   UNL     1       3.114   2.051  17.510  0.00  0.00    +0.000 C 
BRANCH  17  22
ATOM     19  C   UNL     1       2.067   5.202  20.530  0.00  0.00    +0.000 C 
ATOM     20  C   UNL     1       2.876   4.041  20.019  0.00  0.00    +0.000 C 
ATOM     21  O   UNL     1       3.156   3.075  20.720  0.00  0.00    +0.000 OA
ATOM     22  N   UNL     1       3.270   4.181  18.707  0.00  0.00    +0.000 N 
ATOM     23  H   UNL     1       2.947   4.983  18.181  0.00  0.00    +0.000 HD
ENDBRANCH  17  22
ENDBRANCH  16  17
ENDBRANCH   1  16
TORSDOF 5
ENDMDL
MODEL 3
REMARK VINA RESULT:      -7.8      0.666      1.224
REMARK  Name = 
REMARK  7 active torsions:
REMARK  status: ('A' for Active; 'I' for Inactive)
REMARK    1  A    between atoms: C_1  and  C_2
REMARK    2  A    between atoms: N_4  and  C_5
REMARK    3  A    between atoms: C_5  and  C_6
REMARK    4  A    between atoms: C_5  and  C_7
REMARK    5  A    between atoms: C_7  and  C_8
REMARK    6  A    between atoms: C_11  and  C_12
REMARK    7  A    between atoms: C_13  and  C_14
REMARK                            x       y       z     vdW  Elec       q    Type
REMARK                         _______ _______ _______ _____ _____    ______ ____
ROOT
ATOM      1  C   UNL     1       5.762   4.986  17.299  0.00  0.00    +0.000 A 
ATOM      2  C   UNL     1       5.337   6.218  16.785  0.00  0.00    +0.000 A 
ATOM      3  C   UNL     1       6.056   7.388  17.052  0.00  0.00    +0.000 A 
ATOM      4  C   UNL     1       7.202   7.341  17.845  0.00  0.00    +0.000 A 
ATOM      5  C   UNL     1       7.611   6.126  18.396  0.00  0.00    +0.000 A 
ATOM      6  C   UNL     1       6.894   4.955  18.127  0.00  0.00    +0.000 A 
ENDROOT
BRANCH   4   7
ATOM      7  C   UNL     1       7.969   8.529  18.068  0.00  0.00    +0.000 C 
ATOM      8  C   UNL     1       8.594   9.534  18.271  0.00  0.00    +0.000 C 
BRANCH   8   9
ATOM      9  C   UNL     1       9.340  10.733  18.511  0.00  0.00    +0.000 A 
ATOM     10  C   UNL     1       9.119  11.863  17.720  0.00  0.00    +0.000 A 
ATOM     11  C   UNL     1       9.868  13.024  17.932  0.00  0.00    +0.000 A 
ATOM     12  C   UNL     1      10.833  13.049  18.938  0.00  0.00    +0.000 A 
ATOM     13 BR   UNL     1      11.870  14.608  19.205  0.00  0.00    +0.000 Br
ATOM     14  C   UNL     1      11.047  11.931  19.743  0.00  0.00    +0.000 A 
ATOM     15  C   UNL     1      10.298  10.771  19.529  0.00  0.00    +0.000 A 
ENDBRANCH   8   9
ENDBRANCH   4   7
BRANCH   1  16
ATOM     16  C   UNL     1       5.015   3.710  16.974  0.00  0.00    +0.000 C 
BRANCH  16  17
ATOM     17  C   UNL     1       4.118   3.196  18.121  0.00  0.00    +0.000 C 
ATOM     18  C   UNL     1       3.178   2.101  17.612  0.00  0.00    +0.000 C 
BRANCH  17  22
ATOM     19  C   UNL     1       2.063   5.392  20.437  0.00  0.00    +0.000 C 
ATOM     20  C   UNL     1       2.852   4.185  20.011  0.00  0.00    +0.000 C 
ATOM     21  O   UNL     1       3.040   3.226  20.752  0.00  0.00    +0.000 OA
ATOM     22  N   UNL     1       3.343   4.274  18.727  0.00  0.00    +0.000 N 
ATOM     23  H   UNL     1       3.093   5.076  18.162  0.00  0.00    +0.000 HD
ENDBRANCH  17  22
ENDBRANCH  16  17
ENDBRANCH   1  16
TORSDOF 5
ENDMDL
MODEL 4
REMARK VINA RESULT:      -7.7      1.400      1.422
REMARK  Name = 
REMARK  7 active torsions:
REMARK  status: ('A' for Active; 'I' for Inactive)
REMARK    1  A    between atoms: C_1  and  C_2
REMARK    2  A    between atoms: N_4  and  C_5
REMARK    3  A    between atoms: C_5  and  C_6
REMARK    4  A    between atoms: C_5  and  C_7
REMARK    5  A    between atoms: C_7  and  C_8
REMARK    6  A    between atoms: C_11  and  C_12
REMARK    7  A    between atoms: C_13  and  C_14
REMARK                            x       y       z     vdW  Elec       q    Type
REMARK                         _______ _______ _______ _____ _____    ______ ____
ROOT
ATOM      1  C   UNL     1       5.952   5.202  17.425  0.00  0.00    +0.000 A 
ATOM      2  C   UNL     1       6.956   5.168  18.403  0.00  0.00    +0.000 A 
ATOM      3  C   UNL     1       7.740   6.298  18.658  0.00  0.00    +0.000 A 
ATOM      4  C   UNL     1       7.536   7.472  17.933  0.00  0.00    +0.000 A 
ATOM      5  C   UNL     1       6.567   7.503  16.929  0.00  0.00    +0.000 A 
ATOM      6  C   UNL     1       5.781   6.374  16.674  0.00  0.00    +0.000 A 
ENDROOT
BRANCH   4   7
ATOM      7  C   UNL     1       8.298   8.645  18.237  0.00  0.00    +0.000 C 
ATOM      8  C   UNL     1       8.920   9.643  18.479  0.00  0.00    +0.000 C 
BRANCH   8   9
ATOM      9  C   UNL     1       9.664  10.832  18.766  0.00  0.00    +0.000 A 
ATOM     10  C   UNL     1      10.150  11.622  17.721  0.00  0.00    +0.000 A 
ATOM     11  C   UNL     1      10.902  12.767  17.998  0.00  0.00    +0.000 A 
ATOM     12  C   UNL     1      11.164  13.116  19.322  0.00  0.00    +0.000 A 
ATOM     13 BR   UNL     1      12.211  14.646  19.699  0.00  0.00    +0.000 Br
ATOM     14  C   UNL     1      10.670  12.342  20.371  0.00  0.00    +0.000 A 
ATOM     15  C   UNL     1       9.917  11.198  20.091  0.00  0.00    +0.000 A 
ENDBRANCH   8   9
ENDBRANCH   4   7
BRANCH   1  16
ATOM     16  C   UNL     1       5.069   3.996  17.178  0.00  0.00    +0.000 C 
BRANCH  16  17
ATOM     17  C   UNL     1       3.690   4.076  17.868  0.00  0.00    +0.000 C 
ATOM     18  C   UNL     1       2.693   3.146  17.172  0.00  0.00    +0.000 C 
BRANCH  17  22
ATOM     19  C   UNL     1       2.298   7.468  18.852  0.00  0.00    +0.000 C 
ATOM     20  C   UNL     1       2.835   6.077  19.056  0.00  0.00    +0.000 C 
ATOM     21  O   UNL     1       2.966   5.580  20.169  0.00  0.00    +0.000 OA
ATOM     22  N   UNL     1       3.169   5.440  17.882  0.00  0.00    +0.000 N 
ATOM     23  H   UNL     1       2.976   5.900  17.002  0.00  0.00    +0.000 HD
ENDBRANCH  17  22
ENDBRANCH  16  17
ENDBRANCH   1  16
TORSDOF 5
ENDMDL
MODEL 5
REMARK VINA RESULT:      -7.7      1.481      1.842
REMARK  Name = 
REMARK  7 active torsions:
REMARK  status: ('A' for Active; 'I' for Inactive)
REMARK    1  A    between atoms: C_1  and  C_2
REMARK    2  A    between atoms: N_4  and  C_5
REMARK    3  A    between atoms: C_5  and  C_6
REMARK    4  A    between atoms: C_5  and  C_7
REMARK    5  A    between atoms: C_7  and  C_8
REMARK    6  A    between atoms: C_11  and  C_12
REMARK    7  A    between atoms: C_13  and  C_14
REMARK                            x       y       z     vdW  Elec       q    Type
REMARK                         _______ _______ _______ _____ _____    ______ ____
ROOT
ATOM      1  C   UNL     1       6.198   5.176  17.425  0.00  0.00    +0.000 A 
ATOM      2  C   UNL     1       7.006   5.253  18.568  0.00  0.00    +0.000 A 
ATOM      3  C   UNL     1       7.750   6.405  18.838  0.00  0.00    +0.000 A 
ATOM      4  C   UNL     1       7.704   7.491  17.965  0.00  0.00    +0.000 A 
ATOM      5  C   UNL     1       6.935   7.409  16.802  0.00  0.00    +0.000 A 
ATOM      6  C   UNL     1       6.189   6.257  16.532  0.00  0.00    +0.000 A 
ENDROOT
BRANCH   4   7
ATOM      7  C   UNL     1       8.419   8.692  18.273  0.00  0.00    +0.000 C 
ATOM      8  C   UNL     1       8.997   9.713  18.532  0.00  0.00    +0.000 C 
BRANCH   8   9
ATOM      9  C   UNL     1       9.687  10.929  18.838  0.00  0.00    +0.000 A 
ATOM     10  C   UNL     1       9.988  11.247  20.164  0.00  0.00    +0.000 A 
ATOM     11  C   UNL     1      10.635  12.449  20.468  0.00  0.00    +0.000 A 
ATOM     12  C   UNL     1      10.979  13.326  19.440  0.00  0.00    +0.000 A 
ATOM     13 BR   UNL     1      11.824  14.967  19.852  0.00  0.00    +0.000 Br
ATOM     14  C   UNL     1      10.697  13.008  18.113  0.00  0.00    +0.000 A 
ATOM     15  C   UNL     1      10.050  11.806  17.811  0.00  0.00    +0.000 A 
ENDBRANCH   8   9
ENDBRANCH   4   7
BRANCH   1  16
ATOM     16  C   UNL     1       5.353   3.949  17.153  0.00  0.00    +0.000 C 
BRANCH  16  17
ATOM     17  C   UNL     1       3.989   3.952  17.875  0.00  0.00    +0.000 C 
ATOM     18  C   UNL     1       3.130   2.780  17.395  0.00  0.00    +0.000 C 
BRANCH  17  22
ATOM     19  C   UNL     1       2.259   7.306  18.293  0.00  0.00    +0.000 C 
ATOM     20  C   UNL     1       3.031   6.083  18.708  0.00  0.00    +0.000 C 
ATOM     21  O   UNL     1       3.410   5.903  19.860  0.00  0.00    +0.000 OA
ATOM     22  N   UNL     1       3.272   5.208  17.672  0.00  0.00    +0.000 N 
ATOM     23  H   UNL     1       2.874   5.404  16.762  0.00  0.00    +0.000 HD
ENDBRANCH  17  22
ENDBRANCH  16  17
ENDBRANCH   1  16
TORSDOF 5
ENDMDL
MODEL 6
REMARK VINA RESULT:      -7.6      0.731      1.150
REMARK  Name = 
REMARK  7 active torsions:
REMARK  status: ('A' for Active; 'I' for Inactive)
REMARK    1  A    between atoms: C_1  and  C_2
REMARK    2  A    between atoms: N_4  and  C_5
REMARK    3  A    between atoms: C_5  and  C_6
REMARK    4  A    between atoms: C_5  and  C_7
REMARK    5  A    between atoms: C_7  and  C_8
REMARK    6  A    between atoms: C_11  and  C_12
REMARK    7  A    between atoms: C_13  and  C_14
REMARK                            x       y       z     vdW  Elec       q    Type
REMARK                         _______ _______ _______ _____ _____    ______ ____
ROOT
ATOM      1  C   UNL     1       5.286   4.795  17.179  0.00  0.00    +0.000 A 
ATOM      2  C   UNL     1       6.412   4.750  18.013  0.00  0.00    +0.000 A 
ATOM      3  C   UNL     1       7.185   5.896  18.230  0.00  0.00    +0.000 A 
ATOM      4  C   UNL     1       6.847   7.097  17.609  0.00  0.00    +0.000 A 
ATOM      5  C   UNL     1       5.752   7.144  16.744  0.00  0.00    +0.000 A 
ATOM      6  C   UNL     1       4.977   5.998  16.528  0.00  0.00    +0.000 A 
ENDROOT
BRANCH   4   7
ATOM      7  C   UNL     1       7.604   8.282  17.879  0.00  0.00    +0.000 C 
ATOM      8  C   UNL     1       8.260   9.262  18.109  0.00  0.00    +0.000 C 
BRANCH   8   9
ATOM      9  C   UNL     1       9.040  10.430  18.385  0.00  0.00    +0.000 A 
ATOM     10  C   UNL     1       9.993  10.409  19.406  0.00  0.00    +0.000 A 
ATOM     11  C   UNL     1      10.734  11.558  19.697  0.00  0.00    +0.000 A 
ATOM     12  C   UNL     1      10.518  12.723  18.963  0.00  0.00    +0.000 A 
ATOM     13 BR   UNL     1      11.496  14.288  19.378  0.00  0.00    +0.000 Br
ATOM     14  C   UNL     1       9.580  12.747  17.932  0.00  0.00    +0.000 A 
ATOM     15  C   UNL     1       8.841  11.597  17.642  0.00  0.00    +0.000 A 
ENDBRANCH   8   9
ENDBRANCH   4   7
BRANCH   1  16
ATOM     16  C   UNL     1       4.419   3.570  16.979  0.00  0.00    +0.000 C 
BRANCH  16  17
ATOM     17  C   UNL     1       3.978   2.891  18.294  0.00  0.00    +0.000 C 
ATOM     18  C   UNL     1       3.868   1.377  18.099  0.00  0.00    +0.000 C 
BRANCH  17  22
ATOM     19  C   UNL     1       1.250   4.815  20.101  0.00  0.00    +0.000 C 
ATOM     20  C   UNL     1       2.653   4.426  19.721  0.00  0.00    +0.000 C 
ATOM     21  O   UNL     1       3.640   4.967  20.206  0.00  0.00    +0.000 OA
ATOM     22  N   UNL     1       2.708   3.423  18.779  0.00  0.00    +0.000 N 
ATOM     23  H   UNL     1       1.846   2.990  18.472  0.00  0.00    +0.000 HD
ENDBRANCH  17  22
ENDBRANCH  16  17
ENDBRANCH   1  16
TORSDOF 5
ENDMDL
MODEL 7
REMARK VINA RESULT:      -7.6      1.226      1.538
REMARK  Name = 
REMARK  7 active torsions:
REMARK  status: ('A' for Active; 'I' for Inactive)
REMARK    1  A    between atoms: C_1  and  C_2
REMARK    2  A    between atoms: N_4  and  C_5
REMARK    3  A    between atoms: C_5  and  C_6
REMARK    4  A    between atoms: C_5  and  C_7
REMARK    5  A    between atoms: C_7  and  C_8
REMARK    6  A    between atoms: C_11  and  C_12
REMARK    7  A    between atoms: C_13  and  C_14
REMARK                            x       y       z     vdW  Elec       q    Type
REMARK                         _______ _______ _______ _____ _____    ______ ____
ROOT
ATOM      1  C   UNL     1       5.456   5.073  16.899  0.00  0.00    +0.000 A 
ATOM      2  C   UNL     1       6.668   4.926  17.587  0.00  0.00    +0.000 A 
ATOM      3  C   UNL     1       7.446   6.043  17.907  0.00  0.00    +0.000 A 
ATOM      4  C   UNL     1       7.027   7.320  17.536  0.00  0.00    +0.000 A 
ATOM      5  C   UNL     1       5.842   7.474  16.814  0.00  0.00    +0.000 A 
ATOM      6  C   UNL     1       5.062   6.357  16.495  0.00  0.00    +0.000 A 
ENDROOT
BRANCH   4   7
ATOM      7  C   UNL     1       7.795   8.467  17.917  0.00  0.00    +0.000 C 
ATOM      8  C   UNL     1       8.454   9.425  18.216  0.00  0.00    +0.000 C 
BRANCH   8   9
ATOM      9  C   UNL     1       9.241  10.566  18.575  0.00  0.00    +0.000 A 
ATOM     10  C   UNL     1       9.367  11.636  17.685  0.00  0.00    +0.000 A 
ATOM     11  C   UNL     1      10.159  12.737  18.020  0.00  0.00    +0.000 A 
ATOM     12  C   UNL     1      10.820  12.763  19.248  0.00  0.00    +0.000 A 
ATOM     13 BR   UNL     1      11.919  14.238  19.689  0.00  0.00    +0.000 Br
ATOM     14  C   UNL     1      10.686  11.708  20.148  0.00  0.00    +0.000 A 
ATOM     15  C   UNL     1       9.893  10.607  19.810  0.00  0.00    +0.000 A 
ENDBRANCH   8   9
ENDBRANCH   4   7
BRANCH   1  16
ATOM     16  C   UNL     1       4.587   3.872  16.592  0.00  0.00    +0.000 C 
BRANCH  16  17
ATOM     17  C   UNL     1       3.473   3.620  17.632  0.00  0.00    +0.000 C 
ATOM     18  C   UNL     1       2.577   4.853  17.761  0.00  0.00    +0.000 C 
BRANCH  17  22
ATOM     19  C   UNL     1       4.676   1.810  20.745  0.00  0.00    +0.000 C 
ATOM     20  C   UNL     1       4.101   1.958  19.363  0.00  0.00    +0.000 C 
ATOM     21  O   UNL     1       3.751   0.996  18.690  0.00  0.00    +0.000 OA
ATOM     22  N   UNL     1       4.022   3.266  18.938  0.00  0.00    +0.000 N 
ATOM     23  H   UNL     1       4.279   4.006  19.578  0.00  0.00    +0.000 HD
ENDBRANCH  17  22
ENDBRANCH  16  17
ENDBRANCH   1  16
TORSDOF 5
ENDMDL
MODEL 8
REMARK VINA RESULT:      -7.5      1.578      2.069
REMARK  Name = 
REMARK  7 active torsions:
REMARK  status: ('A' for Active; 'I' for Inactive)
REMARK    1  A    between atoms: C_1  and  C_2
REMARK    2  A    between atoms: N_4  and  C_5
REMARK    3  A    between atoms: C_5  and  C_6
REMARK    4  A    between atoms: C_5  and  C_7
REMARK    5  A    between atoms: C_7  and  C_8
REMARK    6  A    between atoms: C_11  and  C_12
REMARK    7  A    between atoms: C_13  and  C_14
REMARK                            x       y       z     vdW  Elec       q    Type
REMARK                         _______ _______ _______ _____ _____    ______ ____
ROOT
ATOM      1  C   UNL     1       6.523   5.639  17.891  0.00  0.00    +0.000 A 
ATOM      2  C   UNL     1       7.549   5.799  18.832  0.00  0.00    +0.000 A 
ATOM      3  C   UNL     1       8.252   7.004  18.922  0.00  0.00    +0.000 A 
ATOM      4  C   UNL     1       7.946   8.061  18.066  0.00  0.00    +0.000 A 
ATOM      5  C   UNL     1       6.954   7.898  17.096  0.00  0.00    +0.000 A 
ATOM      6  C   UNL     1       6.248   6.693  17.007  0.00  0.00    +0.000 A 
ENDROOT
BRANCH   4   7
ATOM      7  C   UNL     1       8.626   9.313  18.199  0.00  0.00    +0.000 C 
ATOM      8  C   UNL     1       9.218  10.351  18.320  0.00  0.00    +0.000 C 
BRANCH   8   9
ATOM      9  C   UNL     1       9.921  11.590  18.465  0.00  0.00    +0.000 A 
ATOM     10  C   UNL     1       9.465  12.734  17.804  0.00  0.00    +0.000 A 
ATOM     11  C   UNL     1      10.167  13.937  17.920  0.00  0.00    +0.000 A 
ATOM     12  C   UNL     1      11.323  13.989  18.699  0.00  0.00    +0.000 A 
ATOM     13 BR   UNL     1      12.292  15.608  18.829  0.00  0.00    +0.000 Br
ATOM     14  C   UNL     1      11.774  12.857  19.374  0.00  0.00    +0.000 A 
ATOM     15  C   UNL     1      11.071  11.655  19.257  0.00  0.00    +0.000 A 
ENDBRANCH   8   9
ENDBRANCH   4   7
BRANCH   1  16
ATOM     16  C   UNL     1       5.727   4.353  17.821  0.00  0.00    +0.000 C 
BRANCH  16  17
ATOM     17  C   UNL     1       4.202   4.550  17.966  0.00  0.00    +0.000 C 
ATOM     18  C   UNL     1       3.903   5.696  18.935  0.00  0.00    +0.000 C 
BRANCH  17  22
ATOM     19  C   UNL     1       1.733   1.754  18.673  0.00  0.00    +0.000 C 
ATOM     20  C   UNL     1       2.233   3.046  18.088  0.00  0.00    +0.000 C 
ATOM     21  O   UNL     1       1.535   3.761  17.378  0.00  0.00    +0.000 OA
ATOM     22  N   UNL     1       3.539   3.331  18.420  0.00  0.00    +0.000 N 
ATOM     23  H   UNL     1       4.027   2.716  19.059  0.00  0.00    +0.000 HD
ENDBRANCH  17  22
ENDBRANCH  16  17
ENDBRANCH   1  16
TORSDOF 5
ENDMDL
MODEL 9
REMARK VINA RESULT:      -7.5      1.113      1.294
REMARK  Name = 
REMARK  7 active torsions:
REMARK  status: ('A' for Active; 'I' for Inactive)
REMARK    1  A    between atoms: C_1  and  C_2
REMARK    2  A    between atoms: N_4  and  C_5
REMARK    3  A    between atoms: C_5  and  C_6
REMARK    4  A    between atoms: C_5  and  C_7
REMARK    5  A    between atoms: C_7  and  C_8
REMARK    6  A    between atoms: C_11  and  C_12
REMARK    7  A    between atoms: C_13  and  C_14
REMARK                            x       y       z     vdW  Elec       q    Type
REMARK                         _______ _______ _______ _____ _____    ______ ____
ROOT
ATOM      1  C   UNL     1       5.196   4.717  17.326  0.00  0.00    +0.000 A 
ATOM      2  C   UNL     1       6.014   4.829  18.459  0.00  0.00    +0.000 A 
ATOM      3  C   UNL     1       6.818   5.958  18.648  0.00  0.00    +0.000 A 
ATOM      4  C   UNL     1       6.821   6.984  17.703  0.00  0.00    +0.000 A 
ATOM      5  C   UNL     1       6.041   6.863  16.551  0.00  0.00    +0.000 A 
ATOM      6  C   UNL     1       5.235   5.735  16.362  0.00  0.00    +0.000 A 
ENDROOT
BRANCH   4   7
ATOM      7  C   UNL     1       7.598   8.165  17.928  0.00  0.00    +0.000 C 
ATOM      8  C   UNL     1       8.236   9.168  18.098  0.00  0.00    +0.000 C 
BRANCH   8   9
ATOM      9  C   UNL     1       8.998  10.363  18.301  0.00  0.00    +0.000 A 
ATOM     10  C   UNL     1       8.703  11.514  17.566  0.00  0.00    +0.000 A 
ATOM     11  C   UNL     1       9.466  12.672  17.740  0.00  0.00    +0.000 A 
ATOM     12  C   UNL     1      10.521  12.672  18.652  0.00  0.00    +0.000 A 
ATOM     13 BR   UNL     1      11.575  14.228  18.865  0.00  0.00    +0.000 Br
ATOM     14  C   UNL     1      10.811  11.533  19.401  0.00  0.00    +0.000 A 
ATOM     15  C   UNL     1      10.047  10.376  19.225  0.00  0.00    +0.000 A 
ENDBRANCH   8   9
ENDBRANCH   4   7
BRANCH   1  16
ATOM     16  C   UNL     1       4.289   3.519  17.140  0.00  0.00    +0.000 C 
BRANCH  16  17
ATOM     17  C   UNL     1       2.954   3.616  17.911  0.00  0.00    +0.000 C 
ATOM     18  C   UNL     1       2.367   5.023  17.782  0.00  0.00    +0.000 C 
BRANCH  17  22
ATOM     19  C   UNL     1       2.424   2.618  21.535  0.00  0.00    +0.000 C 
ATOM     20  C   UNL     1       2.046   2.911  20.108  0.00  0.00    +0.000 C 
ATOM     21  O   UNL     1       0.894   2.821  19.701  0.00  0.00    +0.000 OA
ATOM     22  N   UNL     1       3.116   3.273  19.321  0.00  0.00    +0.000 N 
ATOM     23  H   UNL     1       4.027   3.380  19.749  0.00  0.00    +0.000 HD
ENDBRANCH  17  22
ENDBRANCH  16  17
ENDBRANCH   1  16
TORSDOF 5
ENDMDL
