MODEL 1
REMARK VINA RESULT:      -8.1      0.000      0.000
REMARK  Name = 
REMARK  7 active torsions:
REMARK  status: ('A' for Active; 'I' for Inactive)
REMARK    1  A    between atoms: C_1  and  C_2
REMARK    2  A    between atoms: C_2  and  N_3
REMARK    3  A    between atoms: C_2  and  C_21
REMARK    4  A    between atoms: C_4  and  C_6
REMARK    5  A    between atoms: C_6  and  O_7
REMARK    6  A    between atoms: O_7  and  C_8
REMARK    7  A    between atoms: C_8  and  C_10
REMARK                            x       y       z     vdW  Elec       q    Type
REMARK                         _______ _______ _______ _____ _____    ______ ____
ROOT
ATOM      1  O   UNL     1       7.654   7.671  16.952  0.00  0.00    +0.000 OA
ENDROOT
BRANCH   1   2
ATOM      2  C   UNL     1       8.193   7.921  18.170  0.00  0.00    +0.000 C 
ATOM      3  O   UNL     1       8.418   7.081  19.031  0.00  0.00    +0.000 OA
BRANCH   2   4
ATOM      4  C   UNL     1       8.485   9.376  18.293  0.00  0.00    +0.000 A 
ATOM      5  C   UNL     1       7.848  10.207  17.457  0.00  0.00    +0.000 A 
ATOM      6  C   UNL     1       8.112  11.652  17.550  0.00  0.00    +0.000 A 
ATOM      7  O   UNL     1       7.531  12.444  16.826  0.00  0.00    +0.000 OA
ATOM      8  C   UNL     1       9.107  12.077  18.548  0.00  0.00    +0.000 A 
ATOM      9  C   UNL     1       9.468  13.420  18.673  0.00  0.00    +0.000 A 
ATOM     10  C   UNL     1      10.422  13.787  19.626  0.00  0.00    +0.000 A 
ATOM     11  C   UNL     1      11.005  12.819  20.445  0.00  0.00    +0.000 A 
ATOM     12  C   UNL     1      10.639  11.478  20.313  0.00  0.00    +0.000 A 
ATOM     13  C   UNL     1       9.694  11.107  19.357  0.00  0.00    +0.000 A 
ATOM     14  O   UNL     1       9.389   9.774  19.264  0.00  0.00    +0.000 OA
ENDBRANCH   2   4
ENDBRANCH   1   2
BRANCH   1  15
ATOM     15  C   UNL     1       6.978   6.424  16.828  0.00  0.00    +0.000 C 
BRANCH  15  17
ATOM     16  N   UNL     1       4.669   6.475  17.635  0.00  0.00    +0.000 N 
ATOM     17  C   UNL     1       5.487   6.591  16.533  0.00  0.00    +0.000 C 
ATOM     18  O   UNL     1       5.070   6.814  15.400  0.00  0.00    +0.000 OA
ATOM     19  H   UNL     1       5.078   6.140  18.505  0.00  0.00    +0.000 HD
BRANCH  16  21
ATOM     20  C   UNL     1       2.840   8.089  17.944  0.00  0.00    +0.000 C 
ATOM     21  C   UNL     1       3.232   6.666  17.539  0.00  0.00    +0.000 C 
BRANCH  21  22
ATOM     22  C   UNL     1       2.431   5.677  18.371  0.00  0.00    +0.000 A 
ATOM     23  C   UNL     1       2.334   5.890  19.757  0.00  0.00    +0.000 A 
ATOM     24  C   UNL     1       1.734   4.944  20.589  0.00  0.00    +0.000 A 
ATOM     25  C   UNL     1       1.213   3.773  20.045  0.00  0.00    +0.000 A 
ATOM     26  C   UNL     1       1.281   3.555  18.671  0.00  0.00    +0.000 A 
ATOM     27  C   UNL     1       1.891   4.496  17.838  0.00  0.00    +0.000 A 
ENDBRANCH  21  22
ENDBRANCH  16  21
ENDBRANCH  15  17
ENDBRANCH   1  15
TORSDOF 6
ENDMDL
MODEL 2
REMARK VINA RESULT:      -8.1      4.378      6.592
REMARK  Name = 
REMARK  7 active torsions:
REMARK  status: ('A' for Active; 'I' for Inactive)
REMARK    1  A    between atoms: C_1  and  C_2
REMARK    2  A    between atoms: C_2  and  N_3
REMARK    3  A    between atoms: C_2  and  C_21
REMARK    4  A    between atoms: C_4  and  C_6
REMARK    5  A    between atoms: C_6  and  O_7
REMARK    6  A    between atoms: O_7  and  C_8
REMARK    7  A    between atoms: C_8  and  C_10
REMARK                            x       y       z     vdW  Elec       q    Type
REMARK                         _______ _______ _______ _____ _____    ______ ____
ROOT
ATOM      1  O   UNL     1       2.986   2.576  20.783  0.00  0.00    +0.000 OA
ENDROOT
BRANCH   1   2
ATOM      2  C   UNL     1       4.315   2.402  20.578  0.00  0.00    +0.000 C 
ATOM      3  O   UNL     1       5.025   1.605  21.174  0.00  0.00    +0.000 OA
BRANCH   2   4
ATOM      4  C   UNL     1       4.773   3.321  19.500  0.00  0.00    +0.000 A 
ATOM      5  C   UNL     1       4.177   3.217  18.305  0.00  0.00    +0.000 A 
ATOM      6  C   UNL     1       4.604   4.110  17.215  0.00  0.00    +0.000 A 
ATOM      7  O   UNL     1       4.067   4.066  16.120  0.00  0.00    +0.000 OA
ATOM      8  C   UNL     1       5.705   5.039  17.519  0.00  0.00    +0.000 A 
ATOM      9  C   UNL     1       6.219   5.887  16.535  0.00  0.00    +0.000 A 
ATOM     10  C   UNL     1       7.270   6.750  16.855  0.00  0.00    +0.000 A 
ATOM     11  C   UNL     1       7.796   6.766  18.148  0.00  0.00    +0.000 A 
ATOM     12  C   UNL     1       7.276   5.916  19.126  0.00  0.00    +0.000 A 
ATOM     13  C   UNL     1       6.235   5.046  18.807  0.00  0.00    +0.000 A 
ATOM     14  O   UNL     1       5.779   4.225  19.804  0.00  0.00    +0.000 OA
ENDBRANCH   2   4
ENDBRANCH   1   2
BRANCH   1  15
ATOM     15  C   UNL     1       2.626   3.779  21.456  0.00  0.00    +0.000 C 
BRANCH  15  17
ATOM     16  N   UNL     1       2.489   5.955  20.345  0.00  0.00    +0.000 N 
ATOM     17  C   UNL     1       1.860   4.748  20.555  0.00  0.00    +0.000 C 
ATOM     18  O   UNL     1       0.773   4.456  20.062  0.00  0.00    +0.000 OA
ATOM     19  H   UNL     1       3.308   6.175  20.909  0.00  0.00    +0.000 HD
BRANCH  16  21
ATOM     20  C   UNL     1       2.911   7.338  18.357  0.00  0.00    +0.000 C 
ATOM     21  C   UNL     1       1.925   6.965  19.467  0.00  0.00    +0.000 C 
BRANCH  21  22
ATOM     22  C   UNL     1       1.498   8.231  20.193  0.00  0.00    +0.000 A 
ATOM     23  C   UNL     1       1.349   8.186  21.590  0.00  0.00    +0.000 A 
ATOM     24  C   UNL     1       0.825   9.272  22.291  0.00  0.00    +0.000 A 
ATOM     25  C   UNL     1       0.449  10.425  21.606  0.00  0.00    +0.000 A 
ATOM     26  C   UNL     1       0.609  10.495  20.224  0.00  0.00    +0.000 A 
ATOM     27  C   UNL     1       1.124   9.404  19.519  0.00  0.00    +0.000 A 
ENDBRANCH  21  22
ENDBRANCH  16  21
ENDBRANCH  15  17
ENDBRANCH   1  15
TORSDOF 6
ENDMDL
MODEL 3
REMARK VINA RESULT:      -7.9      2.153      9.389
REMARK  Name = 
REMARK  7 active torsions:
REMARK  status: ('A' for Active; 'I' for Inactive)
REMARK    1  A    between atoms: C_1  and  C_2
REMARK    2  A    between atoms: C_2  and  N_3
REMARK    3  A    between atoms: C_2  and  C_21
REMARK    4  A    between atoms: C_4  and  C_6
REMARK    5  A    between atoms: C_6  and  O_7
REMARK    6  A    between atoms: O_7  and  C_8
REMARK    7  A    between atoms: C_8  and  C_10
REMARK                            x       y       z     vdW  Elec       q    Type
REMARK                         _______ _______ _______ _____ _____    ______ ____
ROOT
ATOM      1  O   UNL     1       6.345   6.881  17.641  0.00  0.00    +0.000 OA
ENDROOT
BRANCH   1   2
ATOM      2  C   UNL     1       5.464   6.362  16.750  0.00  0.00    +0.000 C 
ATOM      3  O   UNL     1       5.414   6.640  15.560  0.00  0.00    +0.000 OA
BRANCH   2   4
ATOM      4  C   UNL     1       4.577   5.387  17.443  0.00  0.00    +0.000 A 
ATOM      5  C   UNL     1       4.633   4.109  17.043  0.00  0.00    +0.000 A 
ATOM      6  C   UNL     1       3.771   3.116  17.705  0.00  0.00    +0.000 A 
ATOM      7  O   UNL     1       3.813   1.938  17.390  0.00  0.00    +0.000 OA
ATOM      8  C   UNL     1       2.865   3.624  18.748  0.00  0.00    +0.000 A 
ATOM      9  C   UNL     1       1.968   2.770  19.395  0.00  0.00    +0.000 A 
ATOM     10  C   UNL     1       1.116   3.287  20.375  0.00  0.00    +0.000 A 
ATOM     11  C   UNL     1       1.166   4.642  20.705  0.00  0.00    +0.000 A 
ATOM     12  C   UNL     1       2.066   5.488  20.054  0.00  0.00    +0.000 A 
ATOM     13  C   UNL     1       2.910   4.978  19.069  0.00  0.00    +0.000 A 
ATOM     14  O   UNL     1       3.758   5.861  18.454  0.00  0.00    +0.000 OA
ENDBRANCH   2   4
ENDBRANCH   1   2
BRANCH   1  15
ATOM     15  C   UNL     1       6.990   8.083  17.231  0.00  0.00    +0.000 C 
BRANCH  15  17
ATOM     16  N   UNL     1       8.507   9.798  18.093  0.00  0.00    +0.000 N 
ATOM     17  C   UNL     1       8.148   8.469  18.150  0.00  0.00    +0.000 C 
ATOM     18  O   UNL     1       8.702   7.649  18.878  0.00  0.00    +0.000 OA
ATOM     19  H   UNL     1       8.102  10.374  17.357  0.00  0.00    +0.000 HD
BRANCH  16  21
ATOM     20  C   UNL     1       9.023  10.596  20.360  0.00  0.00    +0.000 C 
ATOM     21  C   UNL     1       9.549  10.343  18.945  0.00  0.00    +0.000 C 
BRANCH  21  22
ATOM     22  C   UNL     1      10.163  11.627  18.409  0.00  0.00    +0.000 A 
ATOM     23  C   UNL     1       9.354  12.773  18.323  0.00  0.00    +0.000 A 
ATOM     24  C   UNL     1       9.819  13.936  17.710  0.00  0.00    +0.000 A 
ATOM     25  C   UNL     1      11.107  13.974  17.181  0.00  0.00    +0.000 A 
ATOM     26  C   UNL     1      11.930  12.855  17.276  0.00  0.00    +0.000 A 
ATOM     27  C   UNL     1      11.461  11.685  17.880  0.00  0.00    +0.000 A 
ENDBRANCH  21  22
ENDBRANCH  16  21
ENDBRANCH  15  17
ENDBRANCH   1  15
TORSDOF 6
ENDMDL
MODEL 4
REMARK VINA RESULT:      -7.8      4.368      6.566
REMARK  Name = 
REMARK  7 active torsions:
REMARK  status: ('A' for Active; 'I' for Inactive)
REMARK    1  A    between atoms: C_1  and  C_2
REMARK    2  A    between atoms: C_2  and  N_3
REMARK    3  A    between atoms: C_2  and  C_21
REMARK    4  A    between atoms: C_4  and  C_6
REMARK    5  A    between atoms: C_6  and  O_7
REMARK    6  A    between atoms: O_7  and  C_8
REMARK    7  A    between atoms: C_8  and  C_10
REMARK                            x       y       z     vdW  Elec       q    Type
REMARK                         _______ _______ _______ _____ _____    ______ ____
ROOT
ATOM      1  O   UNL     1       3.596   2.883  20.896  0.00  0.00    +0.000 OA
ENDROOT
BRANCH   1   2
ATOM      2  C   UNL     1       3.576   2.465  19.606  0.00  0.00    +0.000 C 
ATOM      3  O   UNL     1       2.970   1.489  19.186  0.00  0.00    +0.000 OA
BRANCH   2   4
ATOM      4  C   UNL     1       4.393   3.391  18.774  0.00  0.00    +0.000 A 
ATOM      5  C   UNL     1       4.170   3.394  17.453  0.00  0.00    +0.000 A 
ATOM      6  C   UNL     1       4.959   4.297  16.598  0.00  0.00    +0.000 A 
ATOM      7  O   UNL     1       4.767   4.350  15.394  0.00  0.00    +0.000 OA
ATOM      8  C   UNL     1       5.981   5.114  17.272  0.00  0.00    +0.000 A 
ATOM      9  C   UNL     1       6.819   5.959  16.541  0.00  0.00    +0.000 A 
ATOM     10  C   UNL     1       7.785   6.714  17.212  0.00  0.00    +0.000 A 
ATOM     11  C   UNL     1       7.907   6.625  18.599  0.00  0.00    +0.000 A 
ATOM     12  C   UNL     1       7.065   5.778  19.323  0.00  0.00    +0.000 A 
ATOM     13  C   UNL     1       6.107   5.016  18.656  0.00  0.00    +0.000 A 
ATOM     14  O   UNL     1       5.323   4.190  19.418  0.00  0.00    +0.000 OA
ENDBRANCH   2   4
ENDBRANCH   1   2
BRANCH   1  15
ATOM     15  C   UNL     1       2.368   3.415  21.382  0.00  0.00    +0.000 C 
BRANCH  15  17
ATOM     16  N   UNL     1       2.488   5.615  20.319  0.00  0.00    +0.000 N 
ATOM     17  C   UNL     1       1.761   4.451  20.435  0.00  0.00    +0.000 C 
ATOM     18  O   UNL     1       0.712   4.244  19.831  0.00  0.00    +0.000 OA
ATOM     19  H   UNL     1       3.260   5.767  20.965  0.00  0.00    +0.000 HD
BRANCH  16  21
ATOM     20  C   UNL     1       3.239   7.092  18.503  0.00  0.00    +0.000 C 
ATOM     21  C   UNL     1       2.082   6.678  19.415  0.00  0.00    +0.000 C 
BRANCH  21  22
ATOM     22  C   UNL     1       1.549   7.911  20.127  0.00  0.00    +0.000 A 
ATOM     23  C   UNL     1       1.245   9.050  19.362  0.00  0.00    +0.000 A 
ATOM     24  C   UNL     1       0.889  10.252  19.974  0.00  0.00    +0.000 A 
ATOM     25  C   UNL     1       0.822  10.331  21.363  0.00  0.00    +0.000 A 
ATOM     26  C   UNL     1       1.099   9.206  22.136  0.00  0.00    +0.000 A 
ATOM     27  C   UNL     1       1.467   8.004  21.526  0.00  0.00    +0.000 A 
ENDBRANCH  21  22
ENDBRANCH  16  21
ENDBRANCH  15  17
ENDBRANCH   1  15
TORSDOF 6
ENDMDL
MODEL 5
REMARK VINA RESULT:      -7.8      2.239      8.708
REMARK  Name = 
REMARK  7 active torsions:
REMARK  status: ('A' for Active; 'I' for Inactive)
REMARK    1  A    between atoms: C_1  and  C_2
REMARK    2  A    between atoms: C_2  and  N_3
REMARK    3  A    between atoms: C_2  and  C_21
REMARK    4  A    between atoms: C_4  and  C_6
REMARK    5  A    between atoms: C_6  and  O_7
REMARK    6  A    between atoms: O_7  and  C_8
REMARK    7  A    between atoms: C_8  and  C_10
REMARK                            x       y       z     vdW  Elec       q    Type
REMARK                         _______ _______ _______ _____ _____    ______ ____
ROOT
ATOM      1  O   UNL     1       7.468   6.433  17.594  0.00  0.00    +0.000 OA
ENDROOT
BRANCH   1   2
ATOM      2  C   UNL     1       7.211   5.174  18.027  0.00  0.00    +0.000 C 
ATOM      3  O   UNL     1       8.034   4.274  18.118  0.00  0.00    +0.000 OA
BRANCH   2   4
ATOM      4  C   UNL     1       5.772   5.061  18.393  0.00  0.00    +0.000 A 
ATOM      5  C   UNL     1       4.952   6.039  17.985  0.00  0.00    +0.000 A 
ATOM      6  C   UNL     1       3.523   5.961  18.328  0.00  0.00    +0.000 A 
ATOM      7  O   UNL     1       2.738   6.816  17.951  0.00  0.00    +0.000 OA
ATOM      8  C   UNL     1       3.104   4.810  19.145  0.00  0.00    +0.000 A 
ATOM      9  C   UNL     1       1.781   4.677  19.570  0.00  0.00    +0.000 A 
ATOM     10  C   UNL     1       1.420   3.576  20.352  0.00  0.00    +0.000 A 
ATOM     11  C   UNL     1       2.374   2.620  20.701  0.00  0.00    +0.000 A 
ATOM     12  C   UNL     1       3.695   2.760  20.272  0.00  0.00    +0.000 A 
ATOM     13  C   UNL     1       4.061   3.862  19.500  0.00  0.00    +0.000 A 
ATOM     14  O   UNL     1       5.375   3.953  19.125  0.00  0.00    +0.000 OA
ENDBRANCH   2   4
ENDBRANCH   1   2
BRANCH   1  15
ATOM     15  C   UNL     1       8.163   7.265  18.518  0.00  0.00    +0.000 C 
BRANCH  15  17
ATOM     16  N   UNL     1       9.041   9.530  18.802  0.00  0.00    +0.000 N 
ATOM     17  C   UNL     1       8.167   8.734  18.096  0.00  0.00    +0.000 C 
ATOM     18  O   UNL     1       7.447   9.153  17.194  0.00  0.00    +0.000 OA
ATOM     19  H   UNL     1       9.487   9.139  19.629  0.00  0.00    +0.000 HD
BRANCH  16  21
ATOM     20  C   UNL     1      10.534  11.179  17.756  0.00  0.00    +0.000 C 
ATOM     21  C   UNL     1       9.212  10.938  18.488  0.00  0.00    +0.000 C 
BRANCH  21  22
ATOM     22  C   UNL     1       9.150  11.845  19.707  0.00  0.00    +0.000 A 
ATOM     23  C   UNL     1       8.997  13.228  19.509  0.00  0.00    +0.000 A 
ATOM     24  C   UNL     1       9.076  14.119  20.578  0.00  0.00    +0.000 A 
ATOM     25  C   UNL     1       9.300  13.641  21.866  0.00  0.00    +0.000 A 
ATOM     26  C   UNL     1       9.432  12.271  22.085  0.00  0.00    +0.000 A 
ATOM     27  C   UNL     1       9.365  11.377  21.013  0.00  0.00    +0.000 A 
ENDBRANCH  21  22
ENDBRANCH  16  21
ENDBRANCH  15  17
ENDBRANCH   1  15
TORSDOF 6
ENDMDL
MODEL 6
REMARK VINA RESULT:      -7.7      5.271      7.393
REMARK  Name = 
REMARK  7 active torsions:
REMARK  status: ('A' for Active; 'I' for Inactive)
REMARK    1  A    between atoms: C_1  and  C_2
REMARK    2  A    between atoms: C_2  and  N_3
REMARK    3  A    between atoms: C_2  and  C_21
REMARK    4  A    between atoms: C_4  and  C_6
REMARK    5  A    between atoms: C_6  and  O_7
REMARK    6  A    between atoms: O_7  and  C_8
REMARK    7  A    between atoms: C_8  and  C_10
REMARK                            x       y       z     vdW  Elec       q    Type
REMARK                         _______ _______ _______ _____ _____    ______ ____
ROOT
ATOM      1  O   UNL     1       2.163   4.743  18.932  0.00  0.00    +0.000 OA
ENDROOT
BRANCH   1   2
ATOM      2  C   UNL     1       3.030   5.672  19.404  0.00  0.00    +0.000 C 
ATOM      3  O   UNL     1       4.194   5.462  19.714  0.00  0.00    +0.000 OA
BRANCH   2   4
ATOM      4  C   UNL     1       2.350   6.995  19.468  0.00  0.00    +0.000 A 
ATOM      5  C   UNL     1       2.471   7.805  18.408  0.00  0.00    +0.000 A 
ATOM      6  C   UNL     1       1.811   9.121  18.435  0.00  0.00    +0.000 A 
ATOM      7  O   UNL     1       1.874   9.875  17.478  0.00  0.00    +0.000 OA
ATOM      8  C   UNL     1       1.090   9.469  19.671  0.00  0.00    +0.000 A 
ATOM      9  C   UNL     1       0.480  10.717  19.816  0.00  0.00    +0.000 A 
ATOM     10  C   UNL     1      -0.189  11.017  21.006  0.00  0.00    +0.000 A 
ATOM     11  C   UNL     1      -0.249  10.077  22.035  0.00  0.00    +0.000 A 
ATOM     12  C   UNL     1       0.363   8.831  21.881  0.00  0.00    +0.000 A 
ATOM     13  C   UNL     1       1.040   8.531  20.700  0.00  0.00    +0.000 A 
ATOM     14  O   UNL     1       1.635   7.300  20.615  0.00  0.00    +0.000 OA
ENDBRANCH   2   4
ENDBRANCH   1   2
BRANCH   1  15
ATOM     15  C   UNL     1       2.369   4.349  17.579  0.00  0.00    +0.000 C 
BRANCH  15  17
ATOM     16  N   UNL     1       4.605   4.524  16.602  0.00  0.00    +0.000 N 
ATOM     17  C   UNL     1       3.753   3.742  17.350  0.00  0.00    +0.000 C 
ATOM     18  O   UNL     1       4.065   2.645  17.807  0.00  0.00    +0.000 OA
ATOM     19  H   UNL     1       4.221   5.343  16.136  0.00  0.00    +0.000 HD
BRANCH  16  21
ATOM     20  C   UNL     1       6.963   5.022  17.088  0.00  0.00    +0.000 C 
ATOM     21  C   UNL     1       5.976   4.121  16.341  0.00  0.00    +0.000 C 
BRANCH  21  22
ATOM     22  C   UNL     1       6.336   4.112  14.864  0.00  0.00    +0.000 A 
ATOM     23  C   UNL     1       7.400   4.921  14.427  0.00  0.00    +0.000 A 
ATOM     24  C   UNL     1       7.683   5.061  13.069  0.00  0.00    +0.000 A 
ATOM     25  C   UNL     1       6.913   4.387  12.125  0.00  0.00    +0.000 A 
ATOM     26  C   UNL     1       5.869   3.564  12.541  0.00  0.00    +0.000 A 
ATOM     27  C   UNL     1       5.576   3.431  13.900  0.00  0.00    +0.000 A 
ENDBRANCH  21  22
ENDBRANCH  16  21
ENDBRANCH  15  17
ENDBRANCH   1  15
TORSDOF 6
ENDMDL
MODEL 7
REMARK VINA RESULT:      -7.7      5.719      9.212
REMARK  Name = 
REMARK  7 active torsions:
REMARK  status: ('A' for Active; 'I' for Inactive)
REMARK    1  A    between atoms: C_1  and  C_2
REMARK    2  A    between atoms: C_2  and  N_3
REMARK    3  A    between atoms: C_2  and  C_21
REMARK    4  A    between atoms: C_4  and  C_6
REMARK    5  A    between atoms: C_6  and  O_7
REMARK    6  A    between atoms: O_7  and  C_8
REMARK    7  A    between atoms: C_8  and  C_10
REMARK                            x       y       z     vdW  Elec       q    Type
REMARK                         _______ _______ _______ _____ _____    ______ ____
ROOT
ATOM      1  O   UNL     1       0.679   9.355  17.847  0.00  0.00    +0.000 OA
ENDROOT
BRANCH   1   2
ATOM      2  C   UNL     1       0.216  10.392  18.587  0.00  0.00    +0.000 C 
ATOM      3  O   UNL     1       0.869  11.027  19.403  0.00  0.00    +0.000 OA
BRANCH   2   4
ATOM      4  C   UNL     1      -1.209  10.649  18.240  0.00  0.00    +0.000 A 
ATOM      5  C   UNL     1      -1.669  10.133  17.093  0.00  0.00    +0.000 A 
ATOM      6  C   UNL     1      -3.073  10.366  16.717  0.00  0.00    +0.000 A 
ATOM      7  O   UNL     1      -3.537   9.889  15.694  0.00  0.00    +0.000 OA
ATOM      8  C   UNL     1      -3.868  11.202  17.631  0.00  0.00    +0.000 A 
ATOM      9  C   UNL     1      -5.193  11.528  17.334  0.00  0.00    +0.000 A 
ATOM     10  C   UNL     1      -5.917  12.331  18.220  0.00  0.00    +0.000 A 
ATOM     11  C   UNL     1      -5.319  12.798  19.392  0.00  0.00    +0.000 A 
ATOM     12  C   UNL     1      -3.994  12.467  19.681  0.00  0.00    +0.000 A 
ATOM     13  C   UNL     1      -3.266  11.675  18.795  0.00  0.00    +0.000 A 
ATOM     14  O   UNL     1      -1.966  11.399  19.126  0.00  0.00    +0.000 OA
ENDBRANCH   2   4
ENDBRANCH   1   2
BRANCH   1  15
ATOM     15  C   UNL     1       2.059   9.051  18.022  0.00  0.00    +0.000 C 
BRANCH  15  17
ATOM     16  N   UNL     1       3.113   6.895  18.501  0.00  0.00    +0.000 N 
ATOM     17  C   UNL     1       2.285   7.884  18.984  0.00  0.00    +0.000 C 
ATOM     18  O   UNL     1       1.765   7.849  20.096  0.00  0.00    +0.000 OA
ATOM     19  H   UNL     1       3.378   6.927  17.518  0.00  0.00    +0.000 HD
BRANCH  16  21
ATOM     20  C   UNL     1       4.932   5.339  19.060  0.00  0.00    +0.000 C 
ATOM     21  C   UNL     1       3.478   5.746  19.311  0.00  0.00    +0.000 C 
BRANCH  21  22
ATOM     22  C   UNL     1       2.582   4.537  19.088  0.00  0.00    +0.000 A 
ATOM     23  C   UNL     1       1.586   4.256  20.039  0.00  0.00    +0.000 A 
ATOM     24  C   UNL     1       0.831   3.086  19.963  0.00  0.00    +0.000 A 
ATOM     25  C   UNL     1       1.054   2.182  18.927  0.00  0.00    +0.000 A 
ATOM     26  C   UNL     1       2.022   2.455  17.964  0.00  0.00    +0.000 A 
ATOM     27  C   UNL     1       2.787   3.621  18.045  0.00  0.00    +0.000 A 
ENDBRANCH  21  22
ENDBRANCH  16  21
ENDBRANCH  15  17
ENDBRANCH   1  15
TORSDOF 6
ENDMDL
MODEL 8
REMARK VINA RESULT:      -7.7      4.957      6.992
REMARK  Name = 
REMARK  7 active torsions:
REMARK  status: ('A' for Active; 'I' for Inactive)
REMARK    1  A    between atoms: C_1  and  C_2
REMARK    2  A    between atoms: C_2  and  N_3
REMARK    3  A    between atoms: C_2  and  C_21
REMARK    4  A    between atoms: C_4  and  C_6
REMARK    5  A    between atoms: C_6  and  O_7
REMARK    6  A    between atoms: O_7  and  C_8
REMARK    7  A    between atoms: C_8  and  C_10
REMARK                            x       y       z     vdW  Elec       q    Type
REMARK                         _______ _______ _______ _____ _____    ______ ____
ROOT
ATOM      1  O   UNL     1       2.603   2.980  19.894  0.00  0.00    +0.000 OA
ENDROOT
BRANCH   1   2
ATOM      2  C   UNL     1       3.379   2.217  19.085  0.00  0.00    +0.000 C 
ATOM      3  O   UNL     1       3.237   1.018  18.892  0.00  0.00    +0.000 OA
BRANCH   2   4
ATOM      4  C   UNL     1       4.422   3.071  18.453  0.00  0.00    +0.000 A 
ATOM      5  C   UNL     1       5.232   3.762  19.267  0.00  0.00    +0.000 A 
ATOM      6  C   UNL     1       6.275   4.617  18.677  0.00  0.00    +0.000 A 
ATOM      7  O   UNL     1       7.051   5.241  19.384  0.00  0.00    +0.000 OA
ATOM      8  C   UNL     1       6.322   4.678  17.207  0.00  0.00    +0.000 A 
ATOM      9  C   UNL     1       7.239   5.504  16.553  0.00  0.00    +0.000 A 
ATOM     10  C   UNL     1       7.251   5.545  15.156  0.00  0.00    +0.000 A 
ATOM     11  C   UNL     1       6.356   4.763  14.424  0.00  0.00    +0.000 A 
ATOM     12  C   UNL     1       5.442   3.940  15.085  0.00  0.00    +0.000 A 
ATOM     13  C   UNL     1       5.422   3.905  16.479  0.00  0.00    +0.000 A 
ATOM     14  O   UNL     1       4.491   3.091  17.069  0.00  0.00    +0.000 OA
ENDBRANCH   2   4
ENDBRANCH   1   2
BRANCH   1  15
ATOM     15  C   UNL     1       1.347   3.366  19.346  0.00  0.00    +0.000 C 
BRANCH  15  17
ATOM     16  N   UNL     1       2.060   5.661  18.890  0.00  0.00    +0.000 N 
ATOM     17  C   UNL     1       1.469   4.533  18.366  0.00  0.00    +0.000 C 
ATOM     18  O   UNL     1       1.072   4.453  17.206  0.00  0.00    +0.000 OA
ATOM     19  H   UNL     1       2.221   5.697  19.894  0.00  0.00    +0.000 HD
BRANCH  16  21
ATOM     20  C   UNL     1       3.789   6.957  17.717  0.00  0.00    +0.000 C 
ATOM     21  C   UNL     1       2.306   6.839  18.076  0.00  0.00    +0.000 C 
BRANCH  21  22
ATOM     22  C   UNL     1       1.853   8.135  18.730  0.00  0.00    +0.000 A 
ATOM     23  C   UNL     1       1.599   8.136  20.113  0.00  0.00    +0.000 A 
ATOM     24  C   UNL     1       1.047   9.253  20.740  0.00  0.00    +0.000 A 
ATOM     25  C   UNL     1       0.749  10.391  19.995  0.00  0.00    +0.000 A 
ATOM     26  C   UNL     1       1.013  10.415  18.628  0.00  0.00    +0.000 A 
ATOM     27  C   UNL     1       1.556   9.294  17.996  0.00  0.00    +0.000 A 
ENDBRANCH  21  22
ENDBRANCH  16  21
ENDBRANCH  15  17
ENDBRANCH   1  15
TORSDOF 6
ENDMDL
MODEL 9
REMARK VINA RESULT:      -7.6      5.157      7.420
REMARK  Name = 
REMARK  7 active torsions:
REMARK  status: ('A' for Active; 'I' for Inactive)
REMARK    1  A    between atoms: C_1  and  C_2
REMARK    2  A    between atoms: C_2  and  N_3
REMARK    3  A    between atoms: C_2  and  C_21
REMARK    4  A    between atoms: C_4  and  C_6
REMARK    5  A    between atoms: C_6  and  O_7
REMARK    6  A    between atoms: O_7  and  C_8
REMARK    7  A    between atoms: C_8  and  C_10
REMARK                            x       y       z     vdW  Elec       q    Type
REMARK                         _______ _______ _______ _____ _____    ______ ____
ROOT
ATOM      1  O   UNL     1       2.124   5.914  19.317  0.00  0.00    +0.000 OA
ENDROOT
BRANCH   1   2
ATOM      2  C   UNL     1       2.983   4.962  19.757  0.00  0.00    +0.000 C 
ATOM      3  O   UNL     1       2.813   4.255  20.741  0.00  0.00    +0.000 OA
BRANCH   2   4
ATOM      4  C   UNL     1       4.160   4.898  18.847  0.00  0.00    +0.000 A 
ATOM      5  C   UNL     1       5.373   5.060  19.393  0.00  0.00    +0.000 A 
ATOM      6  C   UNL     1       6.559   5.002  18.524  0.00  0.00    +0.000 A 
ATOM      7  O   UNL     1       7.683   5.117  18.986  0.00  0.00    +0.000 OA
ATOM      8  C   UNL     1       6.313   4.808  17.085  0.00  0.00    +0.000 A 
ATOM      9  C   UNL     1       7.369   4.797  16.172  0.00  0.00    +0.000 A 
ATOM     10  C   UNL     1       7.098   4.618  14.813  0.00  0.00    +0.000 A 
ATOM     11  C   UNL     1       5.784   4.450  14.375  0.00  0.00    +0.000 A 
ATOM     12  C   UNL     1       4.733   4.463  15.295  0.00  0.00    +0.000 A 
ATOM     13  C   UNL     1       4.999   4.650  16.650  0.00  0.00    +0.000 A 
ATOM     14  O   UNL     1       3.925   4.670  17.501  0.00  0.00    +0.000 OA
ENDBRANCH   2   4
ENDBRANCH   1   2
BRANCH   1  15
ATOM     15  C   UNL     1       2.133   7.131  20.056  0.00  0.00    +0.000 C 
BRANCH  15  17
ATOM     16  N   UNL     1       1.004   9.283  19.768  0.00  0.00    +0.000 N 
ATOM     17  C   UNL     1       1.832   8.350  19.183  0.00  0.00    +0.000 C 
ATOM     18  O   UNL     1       2.302   8.473  18.055  0.00  0.00    +0.000 OA
ATOM     19  H   UNL     1       0.538   9.034  20.639  0.00  0.00    +0.000 HD
BRANCH  16  21
ATOM     20  C   UNL     1       0.917  11.727  20.012  0.00  0.00    +0.000 C 
ATOM     21  C   UNL     1       0.666  10.526  19.097  0.00  0.00    +0.000 C 
BRANCH  21  22
ATOM     22  C   UNL     1      -0.769  10.576  18.598  0.00  0.00    +0.000 A 
ATOM     23  C   UNL     1      -1.123   9.789  17.489  0.00  0.00    +0.000 A 
ATOM     24  C   UNL     1      -2.383   9.901  16.902  0.00  0.00    +0.000 A 
ATOM     25  C   UNL     1      -3.314  10.797  17.421  0.00  0.00    +0.000 A 
ATOM     26  C   UNL     1      -2.989  11.569  18.534  0.00  0.00    +0.000 A 
ATOM     27  C   UNL     1      -1.723  11.466  19.117  0.00  0.00    +0.000 A 
ENDBRANCH  21  22
ENDBRANCH  16  21
ENDBRANCH  15  17
ENDBRANCH   1  15
TORSDOF 6
ENDMDL
