MODEL 1
REMARK VINA RESULT:      -7.8      0.000      0.000
REMARK  Name = 
REMARK  12 active torsions:
REMARK  status: ('A' for Active; 'I' for Inactive)
REMARK    1  A    between atoms: C_1  and  C_2
REMARK    2  A    between atoms: C_5  and  C_6
REMARK    3  A    between atoms: C_6  and  N_7
REMARK    4  A    between atoms: C_6  and  C_8
REMARK    5  A    between atoms: C_8  and  C_9
REMARK    6  A    between atoms: C_9  and  C_10
REMARK    7  A    between atoms: C_9  and  C_11
REMARK    8  A    between atoms: C_12  and  N_13
REMARK    9  A    between atoms: C_17  and  C_19
REMARK   10  A    between atoms: C_19  and  C_20
REMARK   11  A    between atoms: C_19  and  C_21
REMARK   12  A    between atoms: C_21  and  C_22
REMARK                            x       y       z     vdW  Elec       q    Type
REMARK                         _______ _______ _______ _____ _____    ______ ____
ROOT
ATOM      1  N   UNL     1       2.588   6.667  18.600  0.00  0.00    +0.000 N 
ATOM      2  C   UNL     1       1.961   6.683  19.941  0.00  0.00    +0.000 C 
ATOM      3  C   UNL     1       1.826   8.157  20.415  0.00  0.00    +0.000 C 
ATOM      4  N   UNL     1       1.252   9.055  19.384  0.00  0.00    +0.000 N 
ATOM      5  C   UNL     1       0.307  10.004  19.738  0.00  0.00    +0.000 C 
ATOM      6  O   UNL     1      -0.200  10.014  20.862  0.00  0.00    +0.000 OA
ATOM      7  C   UNL     1       1.836   8.885  18.044  0.00  0.00    +0.000 C 
ATOM      8  C   UNL     1       1.758   7.405  17.632  0.00  0.00    +0.000 C 
ENDROOT
BRANCH   1  14
ATOM      9  C   UNL     1       2.364   1.868  18.717  0.00  0.00    +0.000 C 
ATOM     10  C   UNL     1       3.061   3.109  18.240  0.00  0.00    +0.000 A 
ATOM     11  C   UNL     1       4.156   2.998  17.404  0.00  0.00    +0.000 A 
ATOM     12  C   UNL     1       4.722   4.162  16.911  0.00  0.00    +0.000 A 
ATOM     13  C   UNL     1       4.196   5.422  17.250  0.00  0.00    +0.000 A 
ATOM     14  C   UNL     1       3.096   5.453  18.141  0.00  0.00    +0.000 A 
ATOM     15  N   UNL     1       2.549   4.307  18.624  0.00  0.00    +0.000 NA
BRANCH  13  16
ATOM     16  C   UNL     1       4.838   6.662  16.632  0.00  0.00    +0.000 C 
BRANCH  16  17
ATOM     17  N   UNL     1       5.557   6.272  15.406  0.00  0.00    +0.000 NA
ATOM     18  H   UNL     1       4.990   5.614  14.875  0.00  0.00    +0.000 HD
ATOM     19  H   UNL     1       6.415   5.780  15.635  0.00  0.00    +0.000 HD
ENDBRANCH  16  17
BRANCH  16  20
ATOM     20  C   UNL     1       5.751   7.418  17.632  0.00  0.00    +0.000 C 
BRANCH  20  21
ATOM     21  C   UNL     1       7.269   7.134  17.520  0.00  0.00    +0.000 C 
ATOM     22  C   UNL     1       8.132   8.374  17.761  0.00  0.00    +0.000 C 
ATOM     23  C   UNL     1       7.661   6.030  18.506  0.00  0.00    +0.000 C 
ENDBRANCH  20  21
ENDBRANCH  16  20
ENDBRANCH  13  16
ENDBRANCH   1  14
BRANCH   5  24
ATOM     24  C   UNL     1      -0.145  11.006  18.663  0.00  0.00    +0.000 C 
ATOM     25  C   UNL     1      -1.389  10.449  17.964  0.00  0.00    +0.000 C 
BRANCH  24  26
ATOM     26  C   UNL     1      -0.464  12.397  19.245  0.00  0.00    +0.000 C 
BRANCH  26  27
ATOM     27  C   UNL     1       0.613  13.430  18.971  0.00  0.00    +0.000 A 
ATOM     28  C   UNL     1       1.838  12.990  18.448  0.00  0.00    +0.000 A 
ATOM     29  C   UNL     1       2.850  13.890  18.124  0.00  0.00    +0.000 A 
ATOM     30  C   UNL     1       2.658  15.251  18.342  0.00  0.00    +0.000 A 
ATOM     31 CL   UNL     1       3.904  16.362  17.932  0.00  0.00    +0.000 Cl
ATOM     32  C   UNL     1       1.457  15.711  18.879  0.00  0.00    +0.000 A 
ATOM     33  C   UNL     1       0.440  14.810  19.190  0.00  0.00    +0.000 A 
ATOM     34 CL   UNL     1      -1.024  15.452  19.844  0.00  0.00    +0.000 Cl
ENDBRANCH  26  27
ENDBRANCH  24  26
ENDBRANCH   5  24
TORSDOF 8
ENDMDL
MODEL 2
REMARK VINA RESULT:      -7.5      0.995      1.193
REMARK  Name = 
REMARK  12 active torsions:
REMARK  status: ('A' for Active; 'I' for Inactive)
REMARK    1  A    between atoms: C_1  and  C_2
REMARK    2  A    between atoms: C_5  and  C_6
REMARK    3  A    between atoms: C_6  and  N_7
REMARK    4  A    between atoms: C_6  and  C_8
REMARK    5  A    between atoms: C_8  and  C_9
REMARK    6  A    between atoms: C_9  and  C_10
REMARK    7  A    between atoms: C_9  and  C_11
REMARK    8  A    between atoms: C_12  and  N_13
REMARK    9  A    between atoms: C_17  and  C_19
REMARK   10  A    between atoms: C_19  and  C_20
REMARK   11  A    between atoms: C_19  and  C_21
REMARK   12  A    between atoms: C_21  and  C_22
REMARK                            x       y       z     vdW  Elec       q    Type
REMARK                         _______ _______ _______ _____ _____    ______ ____
ROOT
ATOM      1  N   UNL     1       2.759   6.667  18.450  0.00  0.00    +0.000 N 
ATOM      2  C   UNL     1       2.119   6.645  19.785  0.00  0.00    +0.000 C 
ATOM      3  C   UNL     1       1.966   8.107  20.293  0.00  0.00    +0.000 C 
ATOM      4  N   UNL     1       1.393   9.024  19.278  0.00  0.00    +0.000 N 
ATOM      5  C   UNL     1       0.436   9.956  19.645  0.00  0.00    +0.000 C 
ATOM      6  O   UNL     1      -0.082   9.934  20.763  0.00  0.00    +0.000 OA
ATOM      7  C   UNL     1       1.991   8.890  17.939  0.00  0.00    +0.000 C 
ATOM      8  C   UNL     1       1.931   7.420  17.492  0.00  0.00    +0.000 C 
ENDROOT
BRANCH   1  14
ATOM      9  C   UNL     1       2.376   1.884  18.187  0.00  0.00    +0.000 C 
ATOM     10  C   UNL     1       3.164   3.126  17.890  0.00  0.00    +0.000 A 
ATOM     11  C   UNL     1       4.349   3.031  17.186  0.00  0.00    +0.000 A 
ATOM     12  C   UNL     1       5.007   4.203  16.852  0.00  0.00    +0.000 A 
ATOM     13  C   UNL     1       4.482   5.456  17.217  0.00  0.00    +0.000 A 
ATOM     14  C   UNL     1       3.282   5.468  17.968  0.00  0.00    +0.000 A 
ATOM     15  N   UNL     1       2.645   4.314  18.297  0.00  0.00    +0.000 NA
BRANCH  13  16
ATOM     16  C   UNL     1       5.232   6.710  16.773  0.00  0.00    +0.000 C 
BRANCH  16  17
ATOM     17  N   UNL     1       4.865   7.024  15.380  0.00  0.00    +0.000 NA
ATOM     18  H   UNL     1       5.278   7.915  15.114  0.00  0.00    +0.000 HD
ATOM     19  H   UNL     1       3.860   7.143  15.293  0.00  0.00    +0.000 HD
ENDBRANCH  16  17
BRANCH  16  20
ATOM     20  C   UNL     1       6.765   6.581  16.960  0.00  0.00    +0.000 C 
BRANCH  20  21
ATOM     21  C   UNL     1       7.328   7.039  18.329  0.00  0.00    +0.000 C 
ATOM     22  C   UNL     1       8.044   5.920  19.088  0.00  0.00    +0.000 C 
ATOM     23  C   UNL     1       8.282   8.219  18.125  0.00  0.00    +0.000 C 
ENDBRANCH  20  21
ENDBRANCH  16  20
ENDBRANCH  13  16
ENDBRANCH   1  14
BRANCH   5  24
ATOM     24  C   UNL     1      -0.015  10.978  18.589  0.00  0.00    +0.000 C 
ATOM     25  C   UNL     1      -1.354  10.521  18.002  0.00  0.00    +0.000 C 
BRANCH  24  26
ATOM     26  C   UNL     1      -0.168  12.399  19.166  0.00  0.00    +0.000 C 
BRANCH  26  27
ATOM     27  C   UNL     1       1.152  13.127  19.340  0.00  0.00    +0.000 A 
ATOM     28  C   UNL     1       2.067  13.108  18.276  0.00  0.00    +0.000 A 
ATOM     29  C   UNL     1       3.274  13.800  18.349  0.00  0.00    +0.000 A 
ATOM     30  C   UNL     1       3.595  14.506  19.504  0.00  0.00    +0.000 A 
ATOM     31 CL   UNL     1       5.080  15.368  19.589  0.00  0.00    +0.000 Cl
ATOM     32  C   UNL     1       2.711  14.524  20.582  0.00  0.00    +0.000 A 
ATOM     33  C   UNL     1       1.498  13.842  20.502  0.00  0.00    +0.000 A 
ATOM     34 CL   UNL     1       0.449  13.915  21.873  0.00  0.00    +0.000 Cl
ENDBRANCH  26  27
ENDBRANCH  24  26
ENDBRANCH   5  24
TORSDOF 8
ENDMDL
MODEL 3
REMARK VINA RESULT:      -7.1      2.457      3.901
REMARK  Name = 
REMARK  12 active torsions:
REMARK  status: ('A' for Active; 'I' for Inactive)
REMARK    1  A    between atoms: C_1  and  C_2
REMARK    2  A    between atoms: C_5  and  C_6
REMARK    3  A    between atoms: C_6  and  N_7
REMARK    4  A    between atoms: C_6  and  C_8
REMARK    5  A    between atoms: C_8  and  C_9
REMARK    6  A    between atoms: C_9  and  C_10
REMARK    7  A    between atoms: C_9  and  C_11
REMARK    8  A    between atoms: C_12  and  N_13
REMARK    9  A    between atoms: C_17  and  C_19
REMARK   10  A    between atoms: C_19  and  C_20
REMARK   11  A    between atoms: C_19  and  C_21
REMARK   12  A    between atoms: C_21  and  C_22
REMARK                            x       y       z     vdW  Elec       q    Type
REMARK                         _______ _______ _______ _____ _____    ______ ____
ROOT
ATOM      1  N   UNL     1       2.438   6.912  18.740  0.00  0.00    +0.000 N 
ATOM      2  C   UNL     1       1.904   6.897  20.121  0.00  0.00    +0.000 C 
ATOM      3  C   UNL     1       1.811   8.360  20.640  0.00  0.00    +0.000 C 
ATOM      4  N   UNL     1       1.175   9.287  19.673  0.00  0.00    +0.000 N 
ATOM      5  C   UNL     1       0.263  10.232  20.114  0.00  0.00    +0.000 C 
ATOM      6  O   UNL     1      -0.168  10.215  21.269  0.00  0.00    +0.000 OA
ATOM      7  C   UNL     1       1.665   9.147  18.293  0.00  0.00    +0.000 C 
ATOM      8  C   UNL     1       1.550   7.679  17.850  0.00  0.00    +0.000 C 
ENDROOT
BRANCH   1  14
ATOM      9  C   UNL     1       1.855   2.159  18.351  0.00  0.00    +0.000 C 
ATOM     10  C   UNL     1       2.690   3.375  18.077  0.00  0.00    +0.000 A 
ATOM     11  C   UNL     1       3.861   3.252  17.354  0.00  0.00    +0.000 A 
ATOM     12  C   UNL     1       4.562   4.405  17.043  0.00  0.00    +0.000 A 
ATOM     13  C   UNL     1       4.094   5.667  17.449  0.00  0.00    +0.000 A 
ATOM     14  C   UNL     1       2.905   5.707  18.218  0.00  0.00    +0.000 A 
ATOM     15  N   UNL     1       2.226   4.572  18.524  0.00  0.00    +0.000 NA
BRANCH  13  16
ATOM     16  C   UNL     1       4.889   6.902  17.030  0.00  0.00    +0.000 C 
BRANCH  16  17
ATOM     17  N   UNL     1       4.380   7.385  15.733  0.00  0.00    +0.000 NA
ATOM     18  H   UNL     1       3.726   6.705  15.352  0.00  0.00    +0.000 HD
ATOM     19  H   UNL     1       5.135   7.457  15.058  0.00  0.00    +0.000 HD
ENDBRANCH  16  17
BRANCH  16  20
ATOM     20  C   UNL     1       6.417   6.641  17.000  0.00  0.00    +0.000 C 
BRANCH  20  21
ATOM     21  C   UNL     1       7.193   6.972  18.299  0.00  0.00    +0.000 C 
ATOM     22  C   UNL     1       7.920   5.763  18.889  0.00  0.00    +0.000 C 
ATOM     23  C   UNL     1       8.196   8.098  18.027  0.00  0.00    +0.000 C 
ENDBRANCH  20  21
ENDBRANCH  16  20
ENDBRANCH  13  16
ENDBRANCH   1  14
BRANCH   5  24
ATOM     24  C   UNL     1      -0.254  11.263  19.098  0.00  0.00    +0.000 C 
ATOM     25  C   UNL     1       0.932  12.088  18.588  0.00  0.00    +0.000 C 
BRANCH  24  26
ATOM     26  C   UNL     1      -0.973  10.609  17.902  0.00  0.00    +0.000 C 
BRANCH  26  27
ATOM     27  C   UNL     1      -2.437  10.994  17.792  0.00  0.00    +0.000 A 
ATOM     28  C   UNL     1      -3.032  11.663  18.872  0.00  0.00    +0.000 A 
ATOM     29  C   UNL     1      -4.355  12.092  18.815  0.00  0.00    +0.000 A 
ATOM     30  C   UNL     1      -5.115  11.835  17.679  0.00  0.00    +0.000 A 
ATOM     31 CL   UNL     1      -6.746  12.375  17.605  0.00  0.00    +0.000 Cl
ATOM     32  C   UNL     1      -4.553  11.156  16.599  0.00  0.00    +0.000 A 
ATOM     33  C   UNL     1      -3.224  10.738  16.653  0.00  0.00    +0.000 A 
ATOM     34 CL   UNL     1      -2.592   9.909  15.275  0.00  0.00    +0.000 Cl
ENDBRANCH  26  27
ENDBRANCH  24  26
ENDBRANCH   5  24
TORSDOF 8
ENDMDL
MODEL 4
REMARK VINA RESULT:      -7.1      1.077      1.342
REMARK  Name = 
REMARK  12 active torsions:
REMARK  status: ('A' for Active; 'I' for Inactive)
REMARK    1  A    between atoms: C_1  and  C_2
REMARK    2  A    between atoms: C_5  and  C_6
REMARK    3  A    between atoms: C_6  and  N_7
REMARK    4  A    between atoms: C_6  and  C_8
REMARK    5  A    between atoms: C_8  and  C_9
REMARK    6  A    between atoms: C_9  and  C_10
REMARK    7  A    between atoms: C_9  and  C_11
REMARK    8  A    between atoms: C_12  and  N_13
REMARK    9  A    between atoms: C_17  and  C_19
REMARK   10  A    between atoms: C_19  and  C_20
REMARK   11  A    between atoms: C_19  and  C_21
REMARK   12  A    between atoms: C_21  and  C_22
REMARK                            x       y       z     vdW  Elec       q    Type
REMARK                         _______ _______ _______ _____ _____    ______ ____
ROOT
ATOM      1  N   UNL     1       2.582   6.657  18.761  0.00  0.00    +0.000 N 
ATOM      2  C   UNL     1       1.912   6.501  20.072  0.00  0.00    +0.000 C 
ATOM      3  C   UNL     1       1.820   7.894  20.758  0.00  0.00    +0.000 C 
ATOM      4  N   UNL     1       1.315   8.959  19.858  0.00  0.00    +0.000 N 
ATOM      5  C   UNL     1       0.397   9.885  20.324  0.00  0.00    +0.000 C 
ATOM      6  O   UNL     1      -0.146   9.751  21.423  0.00  0.00    +0.000 OA
ATOM      7  C   UNL     1       1.934   8.963  18.523  0.00  0.00    +0.000 C 
ATOM      8  C   UNL     1       1.812   7.565  17.893  0.00  0.00    +0.000 C 
ENDROOT
BRANCH   1  14
ATOM      9  C   UNL     1       2.278   1.885  18.283  0.00  0.00    +0.000 C 
ATOM     10  C   UNL     1       2.983   3.166  17.946  0.00  0.00    +0.000 A 
ATOM     11  C   UNL     1       4.053   3.147  17.071  0.00  0.00    +0.000 A 
ATOM     12  C   UNL     1       4.627   4.354  16.712  0.00  0.00    +0.000 A 
ATOM     13  C   UNL     1       4.131   5.569  17.221  0.00  0.00    +0.000 A 
ATOM     14  C   UNL     1       3.056   5.503  18.139  0.00  0.00    +0.000 A 
ATOM     15  N   UNL     1       2.502   4.314  18.491  0.00  0.00    +0.000 NA
BRANCH  13  16
ATOM     16  C   UNL     1       4.777   6.868  16.745  0.00  0.00    +0.000 C 
BRANCH  16  17
ATOM     17  N   UNL     1       5.425   6.635  15.442  0.00  0.00    +0.000 NA
ATOM     18  H   UNL     1       5.159   5.717  15.090  0.00  0.00    +0.000 HD
ATOM     19  H   UNL     1       6.435   6.613  15.543  0.00  0.00    +0.000 HD
ENDBRANCH  16  17
BRANCH  16  20
ATOM     20  C   UNL     1       5.759   7.460  17.789  0.00  0.00    +0.000 C 
BRANCH  20  21
ATOM     21  C   UNL     1       7.263   7.182  17.548  0.00  0.00    +0.000 C 
ATOM     22  C   UNL     1       8.147   8.407  17.788  0.00  0.00    +0.000 C 
ATOM     23  C   UNL     1       7.724   6.027  18.442  0.00  0.00    +0.000 C 
ENDBRANCH  20  21
ENDBRANCH  16  20
ENDBRANCH  13  16
ENDBRANCH   1  14
BRANCH   5  24
ATOM     24  C   UNL     1       0.019  11.054  19.399  0.00  0.00    +0.000 C 
ATOM     25  C   UNL     1      -1.116  10.602  18.475  0.00  0.00    +0.000 C 
BRANCH  24  26
ATOM     26  C   UNL     1      -0.423  12.308  20.178  0.00  0.00    +0.000 C 
BRANCH  26  27
ATOM     27  C   UNL     1       0.185  13.594  19.650  0.00  0.00    +0.000 A 
ATOM     28  C   UNL     1      -0.622  14.443  18.876  0.00  0.00    +0.000 A 
ATOM     29  C   UNL     1      -0.143  15.663  18.405  0.00  0.00    +0.000 A 
ATOM     30  C   UNL     1       1.166  16.043  18.684  0.00  0.00    +0.000 A 
ATOM     31 CL   UNL     1       1.753  17.554  18.111  0.00  0.00    +0.000 Cl
ATOM     32  C   UNL     1       1.993  15.209  19.435  0.00  0.00    +0.000 A 
ATOM     33  C   UNL     1       1.508  13.994  19.916  0.00  0.00    +0.000 A 
ATOM     34 CL   UNL     1       2.586  13.016  20.846  0.00  0.00    +0.000 Cl
ENDBRANCH  26  27
ENDBRANCH  24  26
ENDBRANCH   5  24
TORSDOF 8
ENDMDL
MODEL 5
REMARK VINA RESULT:      -6.9      2.078      3.318
REMARK  Name = 
REMARK  12 active torsions:
REMARK  status: ('A' for Active; 'I' for Inactive)
REMARK    1  A    between atoms: C_1  and  C_2
REMARK    2  A    between atoms: C_5  and  C_6
REMARK    3  A    between atoms: C_6  and  N_7
REMARK    4  A    between atoms: C_6  and  C_8
REMARK    5  A    between atoms: C_8  and  C_9
REMARK    6  A    between atoms: C_9  and  C_10
REMARK    7  A    between atoms: C_9  and  C_11
REMARK    8  A    between atoms: C_12  and  N_13
REMARK    9  A    between atoms: C_17  and  C_19
REMARK   10  A    between atoms: C_19  and  C_20
REMARK   11  A    between atoms: C_19  and  C_21
REMARK   12  A    between atoms: C_21  and  C_22
REMARK                            x       y       z     vdW  Elec       q    Type
REMARK                         _______ _______ _______ _____ _____    ______ ____
ROOT
ATOM      1  N   UNL     1       2.596   6.718  18.575  0.00  0.00    +0.000 N 
ATOM      2  C   UNL     1       2.039   6.672  19.946  0.00  0.00    +0.000 C 
ATOM      3  C   UNL     1       1.907   8.125  20.484  0.00  0.00    +0.000 C 
ATOM      4  N   UNL     1       1.266   9.051  19.519  0.00  0.00    +0.000 N 
ATOM      5  C   UNL     1       0.327   9.970  19.957  0.00  0.00    +0.000 C 
ATOM      6  O   UNL     1      -0.122   9.928  21.105  0.00  0.00    +0.000 OA
ATOM      7  C   UNL     1       1.782   8.941  18.145  0.00  0.00    +0.000 C 
ATOM      8  C   UNL     1       1.706   7.477  17.681  0.00  0.00    +0.000 C 
ENDROOT
BRANCH   1  14
ATOM      9  C   UNL     1       2.347   1.922  18.404  0.00  0.00    +0.000 C 
ATOM     10  C   UNL     1       3.050   3.185  18.003  0.00  0.00    +0.000 A 
ATOM     11  C   UNL     1       4.145   3.119  17.161  0.00  0.00    +0.000 A 
ATOM     12  C   UNL     1       4.718   4.307  16.740  0.00  0.00    +0.000 A 
ATOM     13  C   UNL     1       4.198   5.547  17.154  0.00  0.00    +0.000 A 
ATOM     14  C   UNL     1       3.098   5.530  18.044  0.00  0.00    +0.000 A 
ATOM     15  N   UNL     1       2.545   4.361  18.458  0.00  0.00    +0.000 NA
BRANCH  13  16
ATOM     16  C   UNL     1       4.846   6.819  16.612  0.00  0.00    +0.000 C 
BRANCH  16  17
ATOM     17  N   UNL     1       5.563   6.500  15.363  0.00  0.00    +0.000 NA
ATOM     18  H   UNL     1       6.420   7.048  15.315  0.00  0.00    +0.000 HD
ATOM     19  H   UNL     1       5.012   6.771  14.555  0.00  0.00    +0.000 HD
ENDBRANCH  16  17
BRANCH  16  20
ATOM     20  C   UNL     1       5.764   7.507  17.654  0.00  0.00    +0.000 C 
BRANCH  20  21
ATOM     21  C   UNL     1       7.278   7.198  17.542  0.00  0.00    +0.000 C 
ATOM     22  C   UNL     1       8.162   8.412  17.832  0.00  0.00    +0.000 C 
ATOM     23  C   UNL     1       7.642   6.053  18.493  0.00  0.00    +0.000 C 
ENDBRANCH  20  21
ENDBRANCH  16  20
ENDBRANCH  13  16
ENDBRANCH   1  14
BRANCH   5  24
ATOM     24  C   UNL     1      -0.196  11.004  18.946  0.00  0.00    +0.000 C 
ATOM     25  C   UNL     1      -1.502  10.482  18.339  0.00  0.00    +0.000 C 
BRANCH  24  26
ATOM     26  C   UNL     1      -0.444  12.385  19.584  0.00  0.00    +0.000 C 
BRANCH  26  27
ATOM     27  C   UNL     1      -1.833  12.536  20.178  0.00  0.00    +0.000 A 
ATOM     28  C   UNL     1      -2.938  12.429  19.320  0.00  0.00    +0.000 A 
ATOM     29  C   UNL     1      -4.240  12.504  19.808  0.00  0.00    +0.000 A 
ATOM     30  C   UNL     1      -4.456  12.712  21.167  0.00  0.00    +0.000 A 
ATOM     31 CL   UNL     1      -6.064  12.795  21.769  0.00  0.00    +0.000 Cl
ATOM     32  C   UNL     1      -3.375  12.840  22.037  0.00  0.00    +0.000 A 
ATOM     33  C   UNL     1      -2.072  12.752  21.548  0.00  0.00    +0.000 A 
ATOM     34 CL   UNL     1      -0.781  12.912  22.685  0.00  0.00    +0.000 Cl
ENDBRANCH  26  27
ENDBRANCH  24  26
ENDBRANCH   5  24
TORSDOF 8
ENDMDL
MODEL 6
REMARK VINA RESULT:      -6.9      1.513      2.432
REMARK  Name = 
REMARK  12 active torsions:
REMARK  status: ('A' for Active; 'I' for Inactive)
REMARK    1  A    between atoms: C_1  and  C_2
REMARK    2  A    between atoms: C_5  and  C_6
REMARK    3  A    between atoms: C_6  and  N_7
REMARK    4  A    between atoms: C_6  and  C_8
REMARK    5  A    between atoms: C_8  and  C_9
REMARK    6  A    between atoms: C_9  and  C_10
REMARK    7  A    between atoms: C_9  and  C_11
REMARK    8  A    between atoms: C_12  and  N_13
REMARK    9  A    between atoms: C_17  and  C_19
REMARK   10  A    between atoms: C_19  and  C_20
REMARK   11  A    between atoms: C_19  and  C_21
REMARK   12  A    between atoms: C_21  and  C_22
REMARK                            x       y       z     vdW  Elec       q    Type
REMARK                         _______ _______ _______ _____ _____    ______ ____
ROOT
ATOM      1  N   UNL     1       2.657   6.536  18.771  0.00  0.00    +0.000 N 
ATOM      2  C   UNL     1       1.888   6.344  20.022  0.00  0.00    +0.000 C 
ATOM      3  C   UNL     1       1.771   7.710  20.755  0.00  0.00    +0.000 C 
ATOM      4  N   UNL     1       1.355   8.820  19.864  0.00  0.00    +0.000 N 
ATOM      5  C   UNL     1       0.422   9.748  20.298  0.00  0.00    +0.000 C 
ATOM      6  O   UNL     1      -0.204   9.582  21.347  0.00  0.00    +0.000 OA
ATOM      7  C   UNL     1       2.072   8.863  18.579  0.00  0.00    +0.000 C 
ATOM      8  C   UNL     1       1.972   7.494  17.886  0.00  0.00    +0.000 C 
ENDROOT
BRANCH   1  14
ATOM      9  C   UNL     1       2.498   1.756  18.305  0.00  0.00    +0.000 C 
ATOM     10  C   UNL     1       3.154   3.059  17.951  0.00  0.00    +0.000 A 
ATOM     11  C   UNL     1       4.204   3.073  17.052  0.00  0.00    +0.000 A 
ATOM     12  C   UNL     1       4.729   4.298  16.679  0.00  0.00    +0.000 A 
ATOM     13  C   UNL     1       4.206   5.497  17.198  0.00  0.00    +0.000 A 
ATOM     14  C   UNL     1       3.154   5.397  18.140  0.00  0.00    +0.000 A 
ATOM     15  N   UNL     1       2.648   4.191  18.506  0.00  0.00    +0.000 NA
BRANCH  13  16
ATOM     16  C   UNL     1       4.798   6.815  16.706  0.00  0.00    +0.000 C 
BRANCH  16  17
ATOM     17  N   UNL     1       5.452   6.594  15.403  0.00  0.00    +0.000 NA
ATOM     18  H   UNL     1       5.980   7.425  15.144  0.00  0.00    +0.000 HD
ATOM     19  H   UNL     1       4.759   6.465  14.673  0.00  0.00    +0.000 HD
ENDBRANCH  16  17
BRANCH  16  20
ATOM     20  C   UNL     1       5.758   7.457  17.741  0.00  0.00    +0.000 C 
BRANCH  20  21
ATOM     21  C   UNL     1       7.268   7.173  17.541  0.00  0.00    +0.000 C 
ATOM     22  C   UNL     1       8.146   8.405  17.770  0.00  0.00    +0.000 C 
ATOM     23  C   UNL     1       7.708   6.042  18.475  0.00  0.00    +0.000 C 
ENDBRANCH  20  21
ENDBRANCH  16  20
ENDBRANCH  13  16
ENDBRANCH   1  14
BRANCH   5  24
ATOM     24  C   UNL     1       0.137  10.959  19.396  0.00  0.00    +0.000 C 
ATOM     25  C   UNL     1      -1.375  11.205  19.365  0.00  0.00    +0.000 C 
BRANCH  24  26
ATOM     26  C   UNL     1       0.853  12.238  19.874  0.00  0.00    +0.000 C 
BRANCH  26  27
ATOM     27  C   UNL     1      -0.035  13.159  20.690  0.00  0.00    +0.000 A 
ATOM     28  C   UNL     1      -0.312  12.809  22.020  0.00  0.00    +0.000 A 
ATOM     29  C   UNL     1      -1.076  13.636  22.841  0.00  0.00    +0.000 A 
ATOM     30  C   UNL     1      -1.595  14.822  22.331  0.00  0.00    +0.000 A 
ATOM     31 CL   UNL     1      -2.529  15.847  23.347  0.00  0.00    +0.000 Cl
ATOM     32  C   UNL     1      -1.350  15.183  21.007  0.00  0.00    +0.000 A 
ATOM     33  C   UNL     1      -0.575  14.359  20.191  0.00  0.00    +0.000 A 
ATOM     34 CL   UNL     1      -0.305  14.874  18.564  0.00  0.00    +0.000 Cl
ENDBRANCH  26  27
ENDBRANCH  24  26
ENDBRANCH   5  24
TORSDOF 8
ENDMDL
MODEL 7
REMARK VINA RESULT:      -6.9      1.863      3.638
REMARK  Name = 
REMARK  12 active torsions:
REMARK  status: ('A' for Active; 'I' for Inactive)
REMARK    1  A    between atoms: C_1  and  C_2
REMARK    2  A    between atoms: C_5  and  C_6
REMARK    3  A    between atoms: C_6  and  N_7
REMARK    4  A    between atoms: C_6  and  C_8
REMARK    5  A    between atoms: C_8  and  C_9
REMARK    6  A    between atoms: C_9  and  C_10
REMARK    7  A    between atoms: C_9  and  C_11
REMARK    8  A    between atoms: C_12  and  N_13
REMARK    9  A    between atoms: C_17  and  C_19
REMARK   10  A    between atoms: C_19  and  C_20
REMARK   11  A    between atoms: C_19  and  C_21
REMARK   12  A    between atoms: C_21  and  C_22
REMARK                            x       y       z     vdW  Elec       q    Type
REMARK                         _______ _______ _______ _____ _____    ______ ____
ROOT
ATOM      1  N   UNL     1       2.503   6.627  18.858  0.00  0.00    +0.000 N 
ATOM      2  C   UNL     1       1.839   6.505  20.175  0.00  0.00    +0.000 C 
ATOM      3  C   UNL     1       1.791   7.907  20.846  0.00  0.00    +0.000 C 
ATOM      4  N   UNL     1       1.311   8.976  19.937  0.00  0.00    +0.000 N 
ATOM      5  C   UNL     1       0.424   9.934  20.400  0.00  0.00    +0.000 C 
ATOM      6  O   UNL     1      -0.115   9.827  21.504  0.00  0.00    +0.000 OA
ATOM      7  C   UNL     1       1.921   8.948  18.598  0.00  0.00    +0.000 C 
ATOM      8  C   UNL     1       1.754   7.547  17.985  0.00  0.00    +0.000 C 
ENDROOT
BRANCH   1  14
ATOM      9  C   UNL     1       2.036   1.865  18.412  0.00  0.00    +0.000 C 
ATOM     10  C   UNL     1       2.786   3.118  18.068  0.00  0.00    +0.000 A 
ATOM     11  C   UNL     1       3.858   3.056  17.197  0.00  0.00    +0.000 A 
ATOM     12  C   UNL     1       4.473   4.240  16.832  0.00  0.00    +0.000 A 
ATOM     13  C   UNL     1       4.019   5.475  17.330  0.00  0.00    +0.000 A 
ATOM     14  C   UNL     1       2.939   5.453  18.245  0.00  0.00    +0.000 A 
ATOM     15  N   UNL     1       2.344   4.285  18.604  0.00  0.00    +0.000 NA
BRANCH  13  16
ATOM     16  C   UNL     1       4.711   6.748  16.847  0.00  0.00    +0.000 C 
BRANCH  16  17
ATOM     17  N   UNL     1       5.347   6.485  15.544  0.00  0.00    +0.000 NA
ATOM     18  H   UNL     1       6.280   6.104  15.693  0.00  0.00    +0.000 HD
ATOM     19  H   UNL     1       5.478   7.350  15.028  0.00  0.00    +0.000 HD
ENDBRANCH  16  17
BRANCH  16  20
ATOM     20  C   UNL     1       5.714   7.308  17.887  0.00  0.00    +0.000 C 
BRANCH  20  21
ATOM     21  C   UNL     1       7.213   7.031  17.609  0.00  0.00    +0.000 C 
ATOM     22  C   UNL     1       8.075   8.294  17.648  0.00  0.00    +0.000 C 
ATOM     23  C   UNL     1       7.744   6.009  18.619  0.00  0.00    +0.000 C 
ENDBRANCH  20  21
ENDBRANCH  16  20
ENDBRANCH  13  16
ENDBRANCH   1  14
BRANCH   5  24
ATOM     24  C   UNL     1       0.074  11.103  19.464  0.00  0.00    +0.000 C 
ATOM     25  C   UNL     1       1.360  11.861  19.121  0.00  0.00    +0.000 C 
BRANCH  24  26
ATOM     26  C   UNL     1      -0.608  10.638  18.163  0.00  0.00    +0.000 C 
BRANCH  26  27
ATOM     27  C   UNL     1      -2.118  10.790  18.182  0.00  0.00    +0.000 A 
ATOM     28  C   UNL     1      -2.893   9.823  17.524  0.00  0.00    +0.000 A 
ATOM     29  C   UNL     1      -4.284   9.874  17.549  0.00  0.00    +0.000 A 
ATOM     30  C   UNL     1      -4.924  10.914  18.216  0.00  0.00    +0.000 A 
ATOM     31 CL   UNL     1      -6.642  10.970  18.255  0.00  0.00    +0.000 Cl
ATOM     32  C   UNL     1      -4.177  11.897  18.862  0.00  0.00    +0.000 A 
ATOM     33  C   UNL     1      -2.784  11.837  18.847  0.00  0.00    +0.000 A 
ATOM     34 CL   UNL     1      -1.922  13.086  19.675  0.00  0.00    +0.000 Cl
ENDBRANCH  26  27
ENDBRANCH  24  26
ENDBRANCH   5  24
TORSDOF 8
ENDMDL
MODEL 8
REMARK VINA RESULT:      -6.9      1.400      1.605
REMARK  Name = 
REMARK  12 active torsions:
REMARK  status: ('A' for Active; 'I' for Inactive)
REMARK    1  A    between atoms: C_1  and  C_2
REMARK    2  A    between atoms: C_5  and  C_6
REMARK    3  A    between atoms: C_6  and  N_7
REMARK    4  A    between atoms: C_6  and  C_8
REMARK    5  A    between atoms: C_8  and  C_9
REMARK    6  A    between atoms: C_9  and  C_10
REMARK    7  A    between atoms: C_9  and  C_11
REMARK    8  A    between atoms: C_12  and  N_13
REMARK    9  A    between atoms: C_17  and  C_19
REMARK   10  A    between atoms: C_19  and  C_20
REMARK   11  A    between atoms: C_19  and  C_21
REMARK   12  A    between atoms: C_21  and  C_22
REMARK                            x       y       z     vdW  Elec       q    Type
REMARK                         _______ _______ _______ _____ _____    ______ ____
ROOT
ATOM      1  N   UNL     1       2.085   6.810  20.132  0.00  0.00    +0.000 N 
ATOM      2  C   UNL     1       1.277   7.272  21.283  0.00  0.00    +0.000 C 
ATOM      3  C   UNL     1       1.258   8.826  21.293  0.00  0.00    +0.000 C 
ATOM      4  N   UNL     1       0.955   9.418  19.968  0.00  0.00    +0.000 N 
ATOM      5  C   UNL     1       0.094  10.499  19.870  0.00  0.00    +0.000 C 
ATOM      6  O   UNL     1      -0.566  10.881  20.839  0.00  0.00    +0.000 OA
ATOM      7  C   UNL     1       1.701   8.813  18.853  0.00  0.00    +0.000 C 
ATOM      8  C   UNL     1       1.501   7.288  18.866  0.00  0.00    +0.000 C 
ENDROOT
BRANCH   1  14
ATOM      9  C   UNL     1       1.458   2.359  21.829  0.00  0.00    +0.000 C 
ATOM     10  C   UNL     1       2.266   3.314  21.001  0.00  0.00    +0.000 A 
ATOM     11  C   UNL     1       3.366   2.851  20.303  0.00  0.00    +0.000 A 
ATOM     12  C   UNL     1       4.038   3.738  19.480  0.00  0.00    +0.000 A 
ATOM     13  C   UNL     1       3.612   5.073  19.354  0.00  0.00    +0.000 A 
ATOM     14  C   UNL     1       2.499   5.479  20.129  0.00  0.00    +0.000 A 
ATOM     15  N   UNL     1       1.848   4.605  20.939  0.00  0.00    +0.000 NA
BRANCH  13  16
ATOM     16  C   UNL     1       4.368   5.984  18.390  0.00  0.00    +0.000 C 
BRANCH  16  17
ATOM     17  N   UNL     1       4.109   5.544  17.007  0.00  0.00    +0.000 NA
ATOM     18  H   UNL     1       3.973   6.359  16.412  0.00  0.00    +0.000 HD
ATOM     19  H   UNL     1       3.246   5.012  16.956  0.00  0.00    +0.000 HD
ENDBRANCH  16  17
BRANCH  16  20
ATOM     20  C   UNL     1       5.883   6.057  18.708  0.00  0.00    +0.000 C 
BRANCH  20  21
ATOM     21  C   UNL     1       6.839   6.026  17.489  0.00  0.00    +0.000 C 
ATOM     22  C   UNL     1       7.779   7.232  17.432  0.00  0.00    +0.000 C 
ATOM     23  C   UNL     1       7.657   4.731  17.509  0.00  0.00    +0.000 C 
ENDBRANCH  20  21
ENDBRANCH  16  20
ENDBRANCH  13  16
ENDBRANCH   1  14
BRANCH   5  24
ATOM     24  C   UNL     1      -0.070  11.167  18.495  0.00  0.00    +0.000 C 
ATOM     25  C   UNL     1      -1.204  10.466  17.740  0.00  0.00    +0.000 C 
BRANCH  24  26
ATOM     26  C   UNL     1      -0.380  12.673  18.600  0.00  0.00    +0.000 C 
BRANCH  26  27
ATOM     27  C   UNL     1       0.860  13.547  18.599  0.00  0.00    +0.000 A 
ATOM     28  C   UNL     1       2.088  12.958  18.263  0.00  0.00    +0.000 A 
ATOM     29  C   UNL     1       3.256  13.715  18.191  0.00  0.00    +0.000 A 
ATOM     30  C   UNL     1       3.214  15.075  18.479  0.00  0.00    +0.000 A 
ATOM     31 CL   UNL     1       4.654  16.010  18.379  0.00  0.00    +0.000 Cl
ATOM     32  C   UNL     1       2.010  15.680  18.833  0.00  0.00    +0.000 A 
ATOM     33  C   UNL     1       0.840  14.924  18.892  0.00  0.00    +0.000 A 
ATOM     34 CL   UNL     1      -0.618  15.741  19.331  0.00  0.00    +0.000 Cl
ENDBRANCH  26  27
ENDBRANCH  24  26
ENDBRANCH   5  24
TORSDOF 8
ENDMDL
MODEL 9
REMARK VINA RESULT:      -6.7      1.515      1.797
REMARK  Name = 
REMARK  12 active torsions:
REMARK  status: ('A' for Active; 'I' for Inactive)
REMARK    1  A    between atoms: C_1  and  C_2
REMARK    2  A    between atoms: C_5  and  C_6
REMARK    3  A    between atoms: C_6  and  N_7
REMARK    4  A    between atoms: C_6  and  C_8
REMARK    5  A    between atoms: C_8  and  C_9
REMARK    6  A    between atoms: C_9  and  C_10
REMARK    7  A    between atoms: C_9  and  C_11
REMARK    8  A    between atoms: C_12  and  N_13
REMARK    9  A    between atoms: C_17  and  C_19
REMARK   10  A    between atoms: C_19  and  C_20
REMARK   11  A    between atoms: C_19  and  C_21
REMARK   12  A    between atoms: C_21  and  C_22
REMARK                            x       y       z     vdW  Elec       q    Type
REMARK                         _______ _______ _______ _____ _____    ______ ____
ROOT
ATOM      1  N   UNL     1       2.535   6.648  18.835  0.00  0.00    +0.000 N 
ATOM      2  C   UNL     1       1.923   6.774  20.177  0.00  0.00    +0.000 C 
ATOM      3  C   UNL     1       1.850   8.280  20.558  0.00  0.00    +0.000 C 
ATOM      4  N   UNL     1       1.301   9.132  19.476  0.00  0.00    +0.000 N 
ATOM      5  C   UNL     1       0.398  10.139  19.776  0.00  0.00    +0.000 C 
ATOM      6  O   UNL     1      -0.098  10.240  20.900  0.00  0.00    +0.000 OA
ATOM      7  C   UNL     1       1.863   8.854  18.144  0.00  0.00    +0.000 C 
ATOM      8  C   UNL     1       1.724   7.355  17.829  0.00  0.00    +0.000 C 
ENDROOT
BRANCH   1  14
ATOM      9  C   UNL     1       1.773   1.904  18.764  0.00  0.00    +0.000 C 
ATOM     10  C   UNL     1       2.682   3.062  18.472  0.00  0.00    +0.000 A 
ATOM     11  C   UNL     1       3.904   2.836  17.867  0.00  0.00    +0.000 A 
ATOM     12  C   UNL     1       4.681   3.932  17.532  0.00  0.00    +0.000 A 
ATOM     13  C   UNL     1       4.237   5.240  17.796  0.00  0.00    +0.000 A 
ATOM     14  C   UNL     1       2.990   5.388  18.451  0.00  0.00    +0.000 A 
ATOM     15  N   UNL     1       2.236   4.307  18.782  0.00  0.00    +0.000 NA
BRANCH  13  16
ATOM     16  C   UNL     1       5.119   6.405  17.355  0.00  0.00    +0.000 C 
BRANCH  16  17
ATOM     17  N   UNL     1       4.440   7.142  16.274  0.00  0.00    +0.000 NA
ATOM     18  H   UNL     1       4.657   6.707  15.379  0.00  0.00    +0.000 HD
ATOM     19  H   UNL     1       4.790   8.093  16.214  0.00  0.00    +0.000 HD
ENDBRANCH  16  17
BRANCH  16  20
ATOM     20  C   UNL     1       6.544   5.949  16.947  0.00  0.00    +0.000 C 
BRANCH  20  21
ATOM     21  C   UNL     1       7.713   6.534  17.778  0.00  0.00    +0.000 C 
ATOM     22  C   UNL     1       7.713   8.063  17.822  0.00  0.00    +0.000 C 
ATOM     23  C   UNL     1       7.662   5.975  19.203  0.00  0.00    +0.000 C 
ENDBRANCH  20  21
ENDBRANCH  16  20
ENDBRANCH  13  16
ENDBRANCH   1  14
BRANCH   5  24
ATOM     24  C   UNL     1      -0.026  11.087  18.642  0.00  0.00    +0.000 C 
ATOM     25  C   UNL     1      -1.203  10.459  17.889  0.00  0.00    +0.000 C 
BRANCH  24  26
ATOM     26  C   UNL     1      -0.434  12.482  19.156  0.00  0.00    +0.000 C 
BRANCH  26  27
ATOM     27  C   UNL     1       0.684  13.213  19.876  0.00  0.00    +0.000 A 
ATOM     28  C   UNL     1       0.388  13.852  21.089  0.00  0.00    +0.000 A 
ATOM     29  C   UNL     1       1.379  14.495  21.827  0.00  0.00    +0.000 A 
ATOM     30  C   UNL     1       2.684  14.527  21.347  0.00  0.00    +0.000 A 
ATOM     31 CL   UNL     1       3.909  15.312  22.264  0.00  0.00    +0.000 Cl
ATOM     32  C   UNL     1       3.001  13.916  20.135  0.00  0.00    +0.000 A 
ATOM     33  C   UNL     1       2.010  13.261  19.404  0.00  0.00    +0.000 A 
ATOM     34 CL   UNL     1       2.475  12.519  17.915  0.00  0.00    +0.000 Cl
ENDBRANCH  26  27
ENDBRANCH  24  26
ENDBRANCH   5  24
TORSDOF 8
ENDMDL
