MODEL 1
REMARK VINA RESULT:      -8.4      0.000      0.000
REMARK  Name = 
REMARK  6 active torsions:
REMARK  status: ('A' for Active; 'I' for Inactive)
REMARK    1  A    between atoms: C_1  and  O_2
REMARK    2  A    between atoms: O_2  and  C_3
REMARK    3  A    between atoms: C_7  and  C_8
REMARK    4  A    between atoms: C_8  and  N_9
REMARK    5  A    between atoms: C_14  and  C_15
REMARK    6  A    between atoms: N_26  and  C_27
REMARK                            x       y       z     vdW  Elec       q    Type
REMARK                         _______ _______ _______ _____ _____    ______ ____
ROOT
ATOM      1  N   UNL     1       1.823   7.035  20.230  0.00  0.00    +0.000 N 
ATOM      2  C   UNL     1       2.613   6.174  19.501  0.00  0.00    +0.000 A 
ATOM      3  N   UNL     1       3.116   6.593  18.368  0.00  0.00    +0.000 NA
ATOM      4  C   UNL     1       3.913   5.675  17.689  0.00  0.00    +0.000 A 
ATOM      5  C   UNL     1       4.462   5.889  16.401  0.00  0.00    +0.000 A 
ATOM      6  C   UNL     1       5.211   4.798  15.968  0.00  0.00    +0.000 A 
ATOM      7  S   UNL     1       5.261   3.575  17.200  0.00  0.00    +0.000 S 
ATOM      8  C   UNL     1       4.238   4.460  18.207  0.00  0.00    +0.000 A 
ATOM      9  C   UNL     1       3.747   4.003  19.468  0.00  0.00    +0.000 A 
ATOM     10  O   UNL     1       4.081   2.942  19.996  0.00  0.00    +0.000 OA
ATOM     11  N   UNL     1       2.845   4.903  20.046  0.00  0.00    +0.000 N 
ATOM     12  C   UNL     1       2.297   4.531  21.339  0.00  0.00    +0.000 C 
ATOM     13  H   UNL     1       0.864   6.716  20.306  0.00  0.00    +0.000 HD
ENDROOT
BRANCH   6  14
ATOM     14  C   UNL     1       5.929   4.590  14.702  0.00  0.00    +0.000 A 
ATOM     15  C   UNL     1       7.081   5.335  14.380  0.00  0.00    +0.000 A 
ATOM     16  C   UNL     1       7.740   5.156  13.162  0.00  0.00    +0.000 A 
ATOM     17  C   UNL     1       7.273   4.213  12.250  0.00  0.00    +0.000 A 
ATOM     18  C   UNL     1       6.150   3.452  12.565  0.00  0.00    +0.000 A 
ATOM     19 CL   UNL     1       5.578   2.280  11.441  0.00  0.00    +0.000 Cl
ATOM     20  C   UNL     1       5.479   3.633  13.779  0.00  0.00    +0.000 A 
ENDBRANCH   6  14
BRANCH   1  21
ATOM     21  C   UNL     1       1.884   8.469  19.997  0.00  0.00    +0.000 C 
BRANCH  21  26
ATOM     22  C   UNL     1      -0.722  10.932  21.324  0.00  0.00    +0.000 A 
ATOM     23  C   UNL     1      -0.746  10.590  22.678  0.00  0.00    +0.000 A 
ATOM     24  C   UNL     1       0.051   9.553  23.159  0.00  0.00    +0.000 A 
ATOM     25  C   UNL     1       0.884   8.855  22.288  0.00  0.00    +0.000 A 
ATOM     26  C   UNL     1       0.924   9.182  20.923  0.00  0.00    +0.000 A 
ATOM     27  C   UNL     1       0.110  10.225  20.450  0.00  0.00    +0.000 A 
BRANCH  22  29
ATOM     28  C   UNL     1      -1.300  12.604  19.735  0.00  0.00    +0.000 C 
ATOM     29  O   UNL     1      -1.540  11.977  20.989  0.00  0.00    +0.000 OA
ENDBRANCH  22  29
ENDBRANCH  21  26
ENDBRANCH   1  21
TORSDOF 4
ENDMDL
MODEL 2
REMARK VINA RESULT:      -8.1      1.007      1.357
REMARK  Name = 
REMARK  6 active torsions:
REMARK  status: ('A' for Active; 'I' for Inactive)
REMARK    1  A    between atoms: C_1  and  O_2
REMARK    2  A    between atoms: O_2  and  C_3
REMARK    3  A    between atoms: C_7  and  C_8
REMARK    4  A    between atoms: C_8  and  N_9
REMARK    5  A    between atoms: C_14  and  C_15
REMARK    6  A    between atoms: N_26  and  C_27
REMARK                            x       y       z     vdW  Elec       q    Type
REMARK                         _______ _______ _______ _____ _____    ______ ____
ROOT
ATOM      1  N   UNL     1       1.841   6.985  20.302  0.00  0.00    +0.000 N 
ATOM      2  C   UNL     1       2.581   6.115  19.533  0.00  0.00    +0.000 A 
ATOM      3  N   UNL     1       3.100   6.555  18.415  0.00  0.00    +0.000 NA
ATOM      4  C   UNL     1       3.844   5.626  17.692  0.00  0.00    +0.000 A 
ATOM      5  C   UNL     1       4.398   5.866  16.411  0.00  0.00    +0.000 A 
ATOM      6  C   UNL     1       5.086   4.756  15.927  0.00  0.00    +0.000 A 
ATOM      7  S   UNL     1       5.077   3.481  17.105  0.00  0.00    +0.000 S 
ATOM      8  C   UNL     1       4.107   4.375  18.156  0.00  0.00    +0.000 A 
ATOM      9  C   UNL     1       3.598   3.891  19.400  0.00  0.00    +0.000 A 
ATOM     10  O   UNL     1       3.878   2.791  19.880  0.00  0.00    +0.000 OA
ATOM     11  N   UNL     1       2.748   4.812  20.021  0.00  0.00    +0.000 N 
ATOM     12  C   UNL     1       2.187   4.413  21.302  0.00  0.00    +0.000 C 
ATOM     13  H   UNL     1       0.866   6.714  20.372  0.00  0.00    +0.000 HD
ENDROOT
BRANCH   6  14
ATOM     14  C   UNL     1       5.786   4.565  14.649  0.00  0.00    +0.000 A 
ATOM     15  C   UNL     1       5.317   3.653  13.683  0.00  0.00    +0.000 A 
ATOM     16  C   UNL     1       6.005   3.452  12.483  0.00  0.00    +0.000 A 
ATOM     17  C   UNL     1       7.164   4.175  12.217  0.00  0.00    +0.000 A 
ATOM     18  C   UNL     1       7.626   5.099  13.151  0.00  0.00    +0.000 A 
ATOM     19 CL   UNL     1       9.055   6.000  12.817  0.00  0.00    +0.000 Cl
ATOM     20  C   UNL     1       6.948   5.298  14.358  0.00  0.00    +0.000 A 
ENDBRANCH   6  14
BRANCH   1  21
ATOM     21  C   UNL     1       1.976   8.422  20.131  0.00  0.00    +0.000 C 
BRANCH  21  26
ATOM     22  C   UNL     1      -0.759  10.834  21.274  0.00  0.00    +0.000 A 
ATOM     23  C   UNL     1      -0.793  10.569  22.645  0.00  0.00    +0.000 A 
ATOM     24  C   UNL     1       0.041   9.598  23.197  0.00  0.00    +0.000 A 
ATOM     25  C   UNL     1       0.920   8.890  22.380  0.00  0.00    +0.000 A 
ATOM     26  C   UNL     1       0.970   9.141  20.999  0.00  0.00    +0.000 A 
ATOM     27  C   UNL     1       0.118  10.118  20.455  0.00  0.00    +0.000 A 
BRANCH  22  29
ATOM     28  C   UNL     1      -1.282  12.510  19.669  0.00  0.00    +0.000 C 
ATOM     29  O   UNL     1      -1.617  11.821  20.867  0.00  0.00    +0.000 OA
ENDBRANCH  22  29
ENDBRANCH  21  26
ENDBRANCH   1  21
TORSDOF 4
ENDMDL
MODEL 3
REMARK VINA RESULT:      -7.9      5.002     10.829
REMARK  Name = 
REMARK  6 active torsions:
REMARK  status: ('A' for Active; 'I' for Inactive)
REMARK    1  A    between atoms: C_1  and  O_2
REMARK    2  A    between atoms: O_2  and  C_3
REMARK    3  A    between atoms: C_7  and  C_8
REMARK    4  A    between atoms: C_8  and  N_9
REMARK    5  A    between atoms: C_14  and  C_15
REMARK    6  A    between atoms: N_26  and  C_27
REMARK                            x       y       z     vdW  Elec       q    Type
REMARK                         _______ _______ _______ _____ _____    ______ ____
ROOT
ATOM      1  N   UNL     1       1.814   7.193  19.707  0.00  0.00    +0.000 N 
ATOM      2  C   UNL     1       1.321   8.459  19.933  0.00  0.00    +0.000 A 
ATOM      3  N   UNL     1       0.664   8.686  21.042  0.00  0.00    +0.000 NA
ATOM      4  C   UNL     1       0.203   9.990  21.210  0.00  0.00    +0.000 A 
ATOM      5  C   UNL     1      -0.617  10.417  22.283  0.00  0.00    +0.000 A 
ATOM      6  C   UNL     1      -0.928  11.771  22.191  0.00  0.00    +0.000 A 
ATOM      7  S   UNL     1      -0.137  12.479  20.817  0.00  0.00    +0.000 S 
ATOM      8  C   UNL     1       0.500  10.992  20.340  0.00  0.00    +0.000 A 
ATOM      9  C   UNL     1       1.264  10.780  19.152  0.00  0.00    +0.000 A 
ATOM     10  O   UNL     1       1.610  11.678  18.383  0.00  0.00    +0.000 OA
ATOM     11  N   UNL     1       1.586   9.432  18.959  0.00  0.00    +0.000 N 
ATOM     12  C   UNL     1       2.374   9.116  17.779  0.00  0.00    +0.000 C 
ATOM     13  H   UNL     1       1.381   6.742  18.909  0.00  0.00    +0.000 HD
ENDROOT
BRANCH   6  14
ATOM     14  C   UNL     1      -1.758  12.609  23.068  0.00  0.00    +0.000 A 
ATOM     15  C   UNL     1      -1.299  13.853  23.545  0.00  0.00    +0.000 A 
ATOM     16  C   UNL     1      -2.080  14.631  24.405  0.00  0.00    +0.000 A 
ATOM     17  C   UNL     1      -3.343  14.189  24.787  0.00  0.00    +0.000 A 
ATOM     18  C   UNL     1      -3.821  12.974  24.303  0.00  0.00    +0.000 A 
ATOM     19 CL   UNL     1      -5.388  12.433  24.768  0.00  0.00    +0.000 Cl
ATOM     20  C   UNL     1      -3.041  12.186  23.450  0.00  0.00    +0.000 A 
ENDBRANCH   6  14
BRANCH   1  21
ATOM     21  C   UNL     1       1.987   6.260  20.808  0.00  0.00    +0.000 C 
BRANCH  21  26
ATOM     22  C   UNL     1       2.862   3.286  18.572  0.00  0.00    +0.000 A 
ATOM     23  C   UNL     1       2.175   2.256  19.219  0.00  0.00    +0.000 A 
ATOM     24  C   UNL     1       1.457   2.509  20.386  0.00  0.00    +0.000 A 
ATOM     25  C   UNL     1       1.415   3.799  20.910  0.00  0.00    +0.000 A 
ATOM     26  C   UNL     1       2.097   4.850  20.276  0.00  0.00    +0.000 A 
ATOM     27  C   UNL     1       2.824   4.578  19.104  0.00  0.00    +0.000 A 
BRANCH  22  29
ATOM     28  C   UNL     1       4.396   3.853  16.845  0.00  0.00    +0.000 C 
ATOM     29  O   UNL     1       3.512   2.904  17.429  0.00  0.00    +0.000 OA
ENDBRANCH  22  29
ENDBRANCH  21  26
ENDBRANCH   1  21
TORSDOF 4
ENDMDL
MODEL 4
REMARK VINA RESULT:      -7.9      5.197     11.059
REMARK  Name = 
REMARK  6 active torsions:
REMARK  status: ('A' for Active; 'I' for Inactive)
REMARK    1  A    between atoms: C_1  and  O_2
REMARK    2  A    between atoms: O_2  and  C_3
REMARK    3  A    between atoms: C_7  and  C_8
REMARK    4  A    between atoms: C_8  and  N_9
REMARK    5  A    between atoms: C_14  and  C_15
REMARK    6  A    between atoms: N_26  and  C_27
REMARK                            x       y       z     vdW  Elec       q    Type
REMARK                         _______ _______ _______ _____ _____    ______ ____
ROOT
ATOM      1  N   UNL     1       1.667   7.623  19.603  0.00  0.00    +0.000 N 
ATOM      2  C   UNL     1       1.193   8.883  19.892  0.00  0.00    +0.000 A 
ATOM      3  N   UNL     1       0.548   9.067  21.015  0.00  0.00    +0.000 NA
ATOM      4  C   UNL     1       0.106  10.367  21.247  0.00  0.00    +0.000 A 
ATOM      5  C   UNL     1      -0.700  10.756  22.346  0.00  0.00    +0.000 A 
ATOM      6  C   UNL     1      -0.994  12.116  22.318  0.00  0.00    +0.000 A 
ATOM      7  S   UNL     1      -0.205  12.876  20.971  0.00  0.00    +0.000 S 
ATOM      8  C   UNL     1       0.408  11.405  20.421  0.00  0.00    +0.000 A 
ATOM      9  C   UNL     1       1.159  11.238  19.217  0.00  0.00    +0.000 A 
ATOM     10  O   UNL     1       1.510  12.166  18.487  0.00  0.00    +0.000 OA
ATOM     11  N   UNL     1       1.461   9.896  18.960  0.00  0.00    +0.000 N 
ATOM     12  C   UNL     1       2.235   9.625  17.760  0.00  0.00    +0.000 C 
ATOM     13  H   UNL     1       1.222   7.214  18.789  0.00  0.00    +0.000 HD
ENDROOT
BRANCH   6  14
ATOM     14  C   UNL     1      -1.805  12.924  23.241  0.00  0.00    +0.000 A 
ATOM     15  C   UNL     1      -3.101  12.524  23.622  0.00  0.00    +0.000 A 
ATOM     16  C   UNL     1      -3.880  13.311  24.473  0.00  0.00    +0.000 A 
ATOM     17  C   UNL     1      -3.370  14.504  24.977  0.00  0.00    +0.000 A 
ATOM     18  C   UNL     1      -2.081  14.901  24.629  0.00  0.00    +0.000 A 
ATOM     19 CL   UNL     1      -1.448  16.372  25.260  0.00  0.00    +0.000 Cl
ATOM     20  C   UNL     1      -1.299  14.122  23.770  0.00  0.00    +0.000 A 
ENDBRANCH   6  14
BRANCH   1  21
ATOM     21  C   UNL     1       1.838   6.638  20.659  0.00  0.00    +0.000 C 
BRANCH  21  26
ATOM     22  C   UNL     1       2.424   3.728  18.250  0.00  0.00    +0.000 A 
ATOM     23  C   UNL     1       1.757   2.695  18.914  0.00  0.00    +0.000 A 
ATOM     24  C   UNL     1       1.145   2.925  20.145  0.00  0.00    +0.000 A 
ATOM     25  C   UNL     1       1.191   4.195  20.717  0.00  0.00    +0.000 A 
ATOM     26  C   UNL     1       1.855   5.247  20.068  0.00  0.00    +0.000 A 
ATOM     27  C   UNL     1       2.474   4.999  18.830  0.00  0.00    +0.000 A 
BRANCH  22  29
ATOM     28  C   UNL     1       4.294   3.805  16.783  0.00  0.00    +0.000 C 
ATOM     29  O   UNL     1       2.965   3.371  17.045  0.00  0.00    +0.000 OA
ENDBRANCH  22  29
ENDBRANCH  21  26
ENDBRANCH   1  21
TORSDOF 4
ENDMDL
MODEL 5
REMARK VINA RESULT:      -7.8      1.098      1.171
REMARK  Name = 
REMARK  6 active torsions:
REMARK  status: ('A' for Active; 'I' for Inactive)
REMARK    1  A    between atoms: C_1  and  O_2
REMARK    2  A    between atoms: O_2  and  C_3
REMARK    3  A    between atoms: C_7  and  C_8
REMARK    4  A    between atoms: C_8  and  N_9
REMARK    5  A    between atoms: C_14  and  C_15
REMARK    6  A    between atoms: N_26  and  C_27
REMARK                            x       y       z     vdW  Elec       q    Type
REMARK                         _______ _______ _______ _____ _____    ______ ____
ROOT
ATOM      1  N   UNL     1       1.650   6.425  20.813  0.00  0.00    +0.000 N 
ATOM      2  C   UNL     1       2.244   5.598  19.886  0.00  0.00    +0.000 A 
ATOM      3  N   UNL     1       3.026   6.130  18.982  0.00  0.00    +0.000 NA
ATOM      4  C   UNL     1       3.602   5.235  18.084  0.00  0.00    +0.000 A 
ATOM      5  C   UNL     1       4.390   5.614  16.969  0.00  0.00    +0.000 A 
ATOM      6  C   UNL     1       4.827   4.509  16.243  0.00  0.00    +0.000 A 
ATOM      7  S   UNL     1       4.302   3.041  17.007  0.00  0.00    +0.000 S 
ATOM      8  C   UNL     1       3.452   3.888  18.191  0.00  0.00    +0.000 A 
ATOM      9  C   UNL     1       2.648   3.280  19.204  0.00  0.00    +0.000 A 
ATOM     10  O   UNL     1       2.552   2.063  19.372  0.00  0.00    +0.000 OA
ATOM     11  N   UNL     1       1.985   4.224  19.995  0.00  0.00    +0.000 N 
ATOM     12  C   UNL     1       1.149   3.702  21.063  0.00  0.00    +0.000 C 
ATOM     13  H   UNL     1       0.640   6.445  20.728  0.00  0.00    +0.000 HD
ENDROOT
BRANCH   6  14
ATOM     14  C   UNL     1       5.641   4.447  15.021  0.00  0.00    +0.000 A 
ATOM     15  C   UNL     1       6.789   5.247  14.860  0.00  0.00    +0.000 A 
ATOM     16  C   UNL     1       7.540   5.208  13.683  0.00  0.00    +0.000 A 
ATOM     17  C   UNL     1       7.169   4.351  12.650  0.00  0.00    +0.000 A 
ATOM     18  C   UNL     1       6.050   3.536  12.804  0.00  0.00    +0.000 A 
ATOM     19 CL   UNL     1       5.597   2.469  11.530  0.00  0.00    +0.000 Cl
ATOM     20  C   UNL     1       5.289   3.577  13.976  0.00  0.00    +0.000 A 
ENDBRANCH   6  14
BRANCH   1  21
ATOM     21  C   UNL     1       2.183   7.753  21.068  0.00  0.00    +0.000 C 
BRANCH  21  26
ATOM     22  C   UNL     1      -0.405  10.356  20.005  0.00  0.00    +0.000 A 
ATOM     23  C   UNL     1      -0.935  10.727  21.244  0.00  0.00    +0.000 A 
ATOM     24  C   UNL     1      -0.481  10.122  22.415  0.00  0.00    +0.000 A 
ATOM     25  C   UNL     1       0.511   9.146  22.354  0.00  0.00    +0.000 A 
ATOM     26  C   UNL     1       1.057   8.759  21.120  0.00  0.00    +0.000 A 
ATOM     27  C   UNL     1       0.585   9.372  19.946  0.00  0.00    +0.000 A 
BRANCH  22  29
ATOM     28  C   UNL     1      -1.478  10.260  17.884  0.00  0.00    +0.000 C 
ATOM     29  O   UNL     1      -0.927  11.039  18.939  0.00  0.00    +0.000 OA
ENDBRANCH  22  29
ENDBRANCH  21  26
ENDBRANCH   1  21
TORSDOF 4
ENDMDL
MODEL 6
REMARK VINA RESULT:      -7.8      3.864      6.039
REMARK  Name = 
REMARK  6 active torsions:
REMARK  status: ('A' for Active; 'I' for Inactive)
REMARK    1  A    between atoms: C_1  and  O_2
REMARK    2  A    between atoms: O_2  and  C_3
REMARK    3  A    between atoms: C_7  and  C_8
REMARK    4  A    between atoms: C_8  and  N_9
REMARK    5  A    between atoms: C_14  and  C_15
REMARK    6  A    between atoms: N_26  and  C_27
REMARK                            x       y       z     vdW  Elec       q    Type
REMARK                         _______ _______ _______ _____ _____    ______ ____
ROOT
ATOM      1  N   UNL     1      -0.528  12.612  19.470  0.00  0.00    +0.000 N 
ATOM      2  C   UNL     1       0.016  11.365  19.681  0.00  0.00    +0.000 A 
ATOM      3  N   UNL     1       0.692  10.804  18.711  0.00  0.00    +0.000 NA
ATOM      4  C   UNL     1       1.223   9.548  18.996  0.00  0.00    +0.000 A 
ATOM      5  C   UNL     1       1.891   8.728  18.055  0.00  0.00    +0.000 A 
ATOM      6  C   UNL     1       2.309   7.526  18.619  0.00  0.00    +0.000 A 
ATOM      7  S   UNL     1       1.918   7.485  20.310  0.00  0.00    +0.000 S 
ATOM      8  C   UNL     1       1.141   8.979  20.229  0.00  0.00    +0.000 A 
ATOM      9  C   UNL     1       0.457   9.598  21.320  0.00  0.00    +0.000 A 
ATOM     10  O   UNL     1       0.428   9.144  22.465  0.00  0.00    +0.000 OA
ATOM     11  N   UNL     1      -0.173  10.790  20.946  0.00  0.00    +0.000 N 
ATOM     12  C   UNL     1      -0.888  11.501  21.993  0.00  0.00    +0.000 C 
ATOM     13  H   UNL     1      -1.542  12.605  19.492  0.00  0.00    +0.000 HD
ENDROOT
BRANCH   6  14
ATOM     14  C   UNL     1       3.013   6.391  18.004  0.00  0.00    +0.000 A 
ATOM     15  C   UNL     1       4.244   6.561  17.341  0.00  0.00    +0.000 A 
ATOM     16  C   UNL     1       4.892   5.484  16.731  0.00  0.00    +0.000 A 
ATOM     17  C   UNL     1       4.331   4.211  16.790  0.00  0.00    +0.000 A 
ATOM     18  C   UNL     1       3.127   4.023  17.463  0.00  0.00    +0.000 A 
ATOM     19 CL   UNL     1       2.439   2.446  17.544  0.00  0.00    +0.000 Cl
ATOM     20  C   UNL     1       2.468   5.098  18.068  0.00  0.00    +0.000 A 
ENDBRANCH   6  14
BRANCH   1  21
ATOM     21  C   UNL     1      -0.031  13.464  18.401  0.00  0.00    +0.000 C 
BRANCH  21  26
ATOM     22  C   UNL     1       3.359  14.984  19.299  0.00  0.00    +0.000 A 
ATOM     23  C   UNL     1       2.963  16.083  20.066  0.00  0.00    +0.000 A 
ATOM     24  C   UNL     1       1.611  16.352  20.270  0.00  0.00    +0.000 A 
ATOM     25  C   UNL     1       0.645  15.516  19.714  0.00  0.00    +0.000 A 
ATOM     26  C   UNL     1       1.020  14.406  18.940  0.00  0.00    +0.000 A 
ATOM     27  C   UNL     1       2.387  14.152  18.736  0.00  0.00    +0.000 A 
BRANCH  22  29
ATOM     28  C   UNL     1       5.252  14.765  17.876  0.00  0.00    +0.000 C 
ATOM     29  O   UNL     1       4.715  14.827  19.191  0.00  0.00    +0.000 OA
ENDBRANCH  22  29
ENDBRANCH  21  26
ENDBRANCH   1  21
TORSDOF 4
ENDMDL
MODEL 7
REMARK VINA RESULT:      -7.8      0.971      1.608
REMARK  Name = 
REMARK  6 active torsions:
REMARK  status: ('A' for Active; 'I' for Inactive)
REMARK    1  A    between atoms: C_1  and  O_2
REMARK    2  A    between atoms: O_2  and  C_3
REMARK    3  A    between atoms: C_7  and  C_8
REMARK    4  A    between atoms: C_8  and  N_9
REMARK    5  A    between atoms: C_14  and  C_15
REMARK    6  A    between atoms: N_26  and  C_27
REMARK                            x       y       z     vdW  Elec       q    Type
REMARK                         _______ _______ _______ _____ _____    ______ ____
ROOT
ATOM      1  N   UNL     1       1.636   6.544  20.615  0.00  0.00    +0.000 N 
ATOM      2  C   UNL     1       2.250   5.706  19.711  0.00  0.00    +0.000 A 
ATOM      3  N   UNL     1       3.050   6.229  18.817  0.00  0.00    +0.000 NA
ATOM      4  C   UNL     1       3.645   5.324  17.942  0.00  0.00    +0.000 A 
ATOM      5  C   UNL     1       4.456   5.689  16.839  0.00  0.00    +0.000 A 
ATOM      6  C   UNL     1       4.909   4.576  16.137  0.00  0.00    +0.000 A 
ATOM      7  S   UNL     1       4.371   3.117  16.908  0.00  0.00    +0.000 S 
ATOM      8  C   UNL     1       3.495   3.977  18.064  0.00  0.00    +0.000 A 
ATOM      9  C   UNL     1       2.672   3.380  19.067  0.00  0.00    +0.000 A 
ATOM     10  O   UNL     1       2.573   2.166  19.248  0.00  0.00    +0.000 OA
ATOM     11  N   UNL     1       1.991   4.334  19.832  0.00  0.00    +0.000 N 
ATOM     12  C   UNL     1       1.133   3.823  20.889  0.00  0.00    +0.000 C 
ATOM     13  H   UNL     1       0.628   6.562  20.510  0.00  0.00    +0.000 HD
ENDROOT
BRANCH   6  14
ATOM     14  C   UNL     1       5.748   4.500  14.932  0.00  0.00    +0.000 A 
ATOM     15  C   UNL     1       6.888   5.313  14.777  0.00  0.00    +0.000 A 
ATOM     16  C   UNL     1       7.663   5.259  13.616  0.00  0.00    +0.000 A 
ATOM     17  C   UNL     1       7.325   4.376  12.595  0.00  0.00    +0.000 A 
ATOM     18  C   UNL     1       6.215   3.549  12.743  0.00  0.00    +0.000 A 
ATOM     19 CL   UNL     1       5.802   2.450  11.484  0.00  0.00    +0.000 Cl
ATOM     20  C   UNL     1       5.429   3.604  13.899  0.00  0.00    +0.000 A 
ENDBRANCH   6  14
BRANCH   1  21
ATOM     21  C   UNL     1       2.162   7.876  20.865  0.00  0.00    +0.000 C 
BRANCH  21  26
ATOM     22  C   UNL     1      -0.572  10.546  20.788  0.00  0.00    +0.000 A 
ATOM     23  C   UNL     1      -0.715  10.741  19.412  0.00  0.00    +0.000 A 
ATOM     24  C   UNL     1       0.084  10.038  18.512  0.00  0.00    +0.000 A 
ATOM     25  C   UNL     1       1.028   9.129  18.984  0.00  0.00    +0.000 A 
ATOM     26  C   UNL     1       1.188   8.917  20.362  0.00  0.00    +0.000 A 
ATOM     27  C   UNL     1       0.381   9.638  21.259  0.00  0.00    +0.000 A 
BRANCH  22  29
ATOM     28  C   UNL     1      -1.175  11.315  22.956  0.00  0.00    +0.000 C 
ATOM     29  O   UNL     1      -1.429  11.286  21.557  0.00  0.00    +0.000 OA
ENDBRANCH  22  29
ENDBRANCH  21  26
ENDBRANCH   1  21
TORSDOF 4
ENDMDL
MODEL 8
REMARK VINA RESULT:      -7.7      1.145      1.693
REMARK  Name = 
REMARK  6 active torsions:
REMARK  status: ('A' for Active; 'I' for Inactive)
REMARK    1  A    between atoms: C_1  and  O_2
REMARK    2  A    between atoms: O_2  and  C_3
REMARK    3  A    between atoms: C_7  and  C_8
REMARK    4  A    between atoms: C_8  and  N_9
REMARK    5  A    between atoms: C_14  and  C_15
REMARK    6  A    between atoms: N_26  and  C_27
REMARK                            x       y       z     vdW  Elec       q    Type
REMARK                         _______ _______ _______ _____ _____    ______ ____
ROOT
ATOM      1  N   UNL     1       1.857   7.726  19.709  0.00  0.00    +0.000 N 
ATOM      2  C   UNL     1       2.592   6.765  19.051  0.00  0.00    +0.000 A 
ATOM      3  N   UNL     1       3.197   7.092  17.938  0.00  0.00    +0.000 NA
ATOM      4  C   UNL     1       3.930   6.075  17.332  0.00  0.00    +0.000 A 
ATOM      5  C   UNL     1       4.569   6.189  16.073  0.00  0.00    +0.000 A 
ATOM      6  C   UNL     1       5.223   5.013  15.714  0.00  0.00    +0.000 A 
ATOM      7  S   UNL     1       5.078   3.834  16.981  0.00  0.00    +0.000 S 
ATOM      8  C   UNL     1       4.099   4.852  17.902  0.00  0.00    +0.000 A 
ATOM      9  C   UNL     1       3.495   4.490  19.145  0.00  0.00    +0.000 A 
ATOM     10  O   UNL     1       3.687   3.418  19.720  0.00  0.00    +0.000 OA
ATOM     11  N   UNL     1       2.661   5.496  19.643  0.00  0.00    +0.000 N 
ATOM     12  C   UNL     1       2.007   5.225  20.913  0.00  0.00    +0.000 C 
ATOM     13  H   UNL     1       0.867   7.510  19.738  0.00  0.00    +0.000 HD
ENDROOT
BRANCH   6  14
ATOM     14  C   UNL     1       5.983   4.690  14.499  0.00  0.00    +0.000 A 
ATOM     15  C   UNL     1       7.173   5.371  14.175  0.00  0.00    +0.000 A 
ATOM     16  C   UNL     1       7.875   5.083  13.001  0.00  0.00    +0.000 A 
ATOM     17  C   UNL     1       7.412   4.093  12.139  0.00  0.00    +0.000 A 
ATOM     18  C   UNL     1       6.250   3.394  12.458  0.00  0.00    +0.000 A 
ATOM     19 CL   UNL     1       5.682   2.164  11.397  0.00  0.00    +0.000 Cl
ATOM     20  C   UNL     1       5.537   3.684  13.627  0.00  0.00    +0.000 A 
ENDBRANCH   6  14
BRANCH   1  21
ATOM     21  C   UNL     1       2.079   9.138  19.441  0.00  0.00    +0.000 C 
BRANCH  21  26
ATOM     22  C   UNL     1      -1.114  11.136  20.089  0.00  0.00    +0.000 A 
ATOM     23  C   UNL     1      -1.765  11.005  18.859  0.00  0.00    +0.000 A 
ATOM     24  C   UNL     1      -1.167  10.300  17.816  0.00  0.00    +0.000 A 
ATOM     25  C   UNL     1       0.084   9.716  17.999  0.00  0.00    +0.000 A 
ATOM     26  C   UNL     1       0.755   9.835  19.226  0.00  0.00    +0.000 A 
ATOM     27  C   UNL     1       0.144  10.555  20.267  0.00  0.00    +0.000 A 
BRANCH  22  29
ATOM     28  C   UNL     1      -2.759  12.790  20.551  0.00  0.00    +0.000 C 
ATOM     29  O   UNL     1      -1.819  11.838  21.030  0.00  0.00    +0.000 OA
ENDBRANCH  22  29
ENDBRANCH  21  26
ENDBRANCH   1  21
TORSDOF 4
ENDMDL
MODEL 9
REMARK VINA RESULT:      -7.7      3.671      5.853
REMARK  Name = 
REMARK  6 active torsions:
REMARK  status: ('A' for Active; 'I' for Inactive)
REMARK    1  A    between atoms: C_1  and  O_2
REMARK    2  A    between atoms: O_2  and  C_3
REMARK    3  A    between atoms: C_7  and  C_8
REMARK    4  A    between atoms: C_8  and  N_9
REMARK    5  A    between atoms: C_14  and  C_15
REMARK    6  A    between atoms: N_26  and  C_27
REMARK                            x       y       z     vdW  Elec       q    Type
REMARK                         _______ _______ _______ _____ _____    ______ ____
ROOT
ATOM      1  N   UNL     1      -0.705  12.226  19.418  0.00  0.00    +0.000 N 
ATOM      2  C   UNL     1      -0.062  11.026  19.628  0.00  0.00    +0.000 A 
ATOM      3  N   UNL     1       0.572  10.472  18.627  0.00  0.00    +0.000 NA
ATOM      4  C   UNL     1       1.208   9.266  18.913  0.00  0.00    +0.000 A 
ATOM      5  C   UNL     1       1.855   8.454  17.950  0.00  0.00    +0.000 A 
ATOM      6  C   UNL     1       2.397   7.305  18.520  0.00  0.00    +0.000 A 
ATOM      7  S   UNL     1       2.142   7.307  20.237  0.00  0.00    +0.000 S 
ATOM      8  C   UNL     1       1.261   8.743  20.167  0.00  0.00    +0.000 A 
ATOM      9  C   UNL     1       0.625   9.360  21.288  0.00  0.00    +0.000 A 
ATOM     10  O   UNL     1       0.716   8.951  22.446  0.00  0.00    +0.000 OA
ATOM     11  N   UNL     1      -0.112  10.492  20.924  0.00  0.00    +0.000 N 
ATOM     12  C   UNL     1      -0.790  11.197  21.999  0.00  0.00    +0.000 C 
ATOM     13  H   UNL     1      -1.711  12.154  19.523  0.00  0.00    +0.000 HD
ENDROOT
BRANCH   6  14
ATOM     14  C   UNL     1       3.125   6.194  17.890  0.00  0.00    +0.000 A 
ATOM     15  C   UNL     1       2.581   4.896  17.835  0.00  0.00    +0.000 A 
ATOM     16  C   UNL     1       3.291   3.837  17.264  0.00  0.00    +0.000 A 
ATOM     17  C   UNL     1       4.552   4.060  16.718  0.00  0.00    +0.000 A 
ATOM     18  C   UNL     1       5.093   5.343  16.743  0.00  0.00    +0.000 A 
ATOM     19 CL   UNL     1       6.649   5.620  16.059  0.00  0.00    +0.000 Cl
ATOM     20  C   UNL     1       4.391   6.406  17.321  0.00  0.00    +0.000 A 
ENDBRANCH   6  14
BRANCH   1  21
ATOM     21  C   UNL     1      -0.352  13.064  18.284  0.00  0.00    +0.000 C 
BRANCH  21  26
ATOM     22  C   UNL     1       3.167  14.505  18.670  0.00  0.00    +0.000 A 
ATOM     23  C   UNL     1       2.912  15.618  19.475  0.00  0.00    +0.000 A 
ATOM     24  C   UNL     1       1.611  15.921  19.870  0.00  0.00    +0.000 A 
ATOM     25  C   UNL     1       0.555  15.107  19.466  0.00  0.00    +0.000 A 
ATOM     26  C   UNL     1       0.788  13.984  18.657  0.00  0.00    +0.000 A 
ATOM     27  C   UNL     1       2.105  13.694  18.260  0.00  0.00    +0.000 A 
BRANCH  22  29
ATOM     28  C   UNL     1       5.401  15.307  18.820  0.00  0.00    +0.000 C 
ATOM     29  O   UNL     1       4.489  14.314  18.369  0.00  0.00    +0.000 OA
ENDBRANCH  22  29
ENDBRANCH  21  26
ENDBRANCH   1  21
TORSDOF 4
ENDMDL
