MODEL 1
REMARK VINA RESULT:      -6.9      0.000      0.000
REMARK  Name = 
REMARK  5 active torsions:
REMARK  status: ('A' for Active; 'I' for Inactive)
REMARK    1  A    between atoms: C_1  and  S_2
REMARK    2  A    between atoms: S_2  and  C_4
REMARK    3  A    between atoms: C_7  and  N_8
REMARK    4  A    between atoms: C_9  and  C_11
REMARK    5  A    between atoms: C_11  and  C_12
REMARK                            x       y       z     vdW  Elec       q    Type
REMARK                         _______ _______ _______ _____ _____    ______ ____
ROOT
ATOM      1  N   UNL     1       3.418   6.014  18.657  0.00  0.00    +0.000 N 
ATOM      2  C   UNL     1       2.994   4.841  18.049  0.00  0.00    +0.000 C 
ATOM      3  O   UNL     1       1.845   4.588  17.691  0.00  0.00    +0.000 OA
ATOM      4  H   UNL     1       4.341   6.004  19.076  0.00  0.00    +0.000 HD
ENDROOT
BRANCH   1   8
ATOM      5  C   UNL     1       1.006   9.407  19.459  0.00  0.00    +0.000 A 
ATOM      6  C   UNL     1       1.592   9.252  18.203  0.00  0.00    +0.000 A 
ATOM      7  C   UNL     1       2.399   8.144  17.923  0.00  0.00    +0.000 A 
ATOM      8  C   UNL     1       2.630   7.162  18.893  0.00  0.00    +0.000 A 
ATOM      9  C   UNL     1       2.062   7.325  20.159  0.00  0.00    +0.000 A 
ATOM     10  C   UNL     1       1.244   8.429  20.424  0.00  0.00    +0.000 A 
ATOM     11  F   UNL     1       0.681   8.523  21.639  0.00  0.00    +0.000 F 
BRANCH   5  13
ATOM     12  C   UNL     1       1.112  11.868  20.646  0.00  0.00    +0.000 C 
ATOM     13  S   UNL     1      -0.081  10.806  19.799  0.00  0.00    +0.000 S 
ATOM     14  O   UNL     1      -0.403  11.479  18.414  0.00  0.00    +0.000 OA
ENDBRANCH   5  13
ENDBRANCH   1   8
BRANCH   2  15
ATOM     15  C   UNL     1       4.093   3.812  17.870  0.00  0.00    +0.000 C 
BRANCH  15  16
ATOM     16  C   UNL     1       5.154   4.236  16.892  0.00  0.00    +0.000 A 
ATOM     17  C   UNL     1       4.882   4.339  15.525  0.00  0.00    +0.000 A 
ATOM     18  C   UNL     1       5.900   4.682  14.641  0.00  0.00    +0.000 A 
ATOM     19  C   UNL     1       7.166   4.908  15.152  0.00  0.00    +0.000 A 
ATOM     20  N   UNL     1       7.468   4.819  16.464  0.00  0.00    +0.000 NA
ATOM     21  C   UNL     1       6.463   4.480  17.303  0.00  0.00    +0.000 A 
ENDBRANCH  15  16
ENDBRANCH   2  15
TORSDOF 4
ENDMDL
MODEL 2
REMARK VINA RESULT:      -6.8      1.671      2.090
REMARK  Name = 
REMARK  5 active torsions:
REMARK  status: ('A' for Active; 'I' for Inactive)
REMARK    1  A    between atoms: C_1  and  S_2
REMARK    2  A    between atoms: S_2  and  C_4
REMARK    3  A    between atoms: C_7  and  N_8
REMARK    4  A    between atoms: C_9  and  C_11
REMARK    5  A    between atoms: C_11  and  C_12
REMARK                            x       y       z     vdW  Elec       q    Type
REMARK                         _______ _______ _______ _____ _____    ______ ____
ROOT
ATOM      1  N   UNL     1       2.942   6.215  18.149  0.00  0.00    +0.000 N 
ATOM      2  C   UNL     1       2.590   4.872  18.136  0.00  0.00    +0.000 C 
ATOM      3  O   UNL     1       1.700   4.352  18.806  0.00  0.00    +0.000 OA
ATOM      4  H   UNL     1       3.816   6.463  17.702  0.00  0.00    +0.000 HD
ENDROOT
BRANCH   1   8
ATOM      5  C   UNL     1       0.994   9.369  20.207  0.00  0.00    +0.000 A 
ATOM      6  C   UNL     1       1.356   8.210  20.894  0.00  0.00    +0.000 A 
ATOM      7  C   UNL     1       1.990   7.154  20.229  0.00  0.00    +0.000 A 
ATOM      8  C   UNL     1       2.285   7.241  18.864  0.00  0.00    +0.000 A 
ATOM      9  C   UNL     1       1.905   8.391  18.169  0.00  0.00    +0.000 A 
ATOM     10  C   UNL     1       1.285   9.447  18.845  0.00  0.00    +0.000 A 
ATOM     11  F   UNL     1       0.979  10.553  18.149  0.00  0.00    +0.000 F 
BRANCH   5  13
ATOM     12  C   UNL     1      -0.074   9.931  22.660  0.00  0.00    +0.000 C 
ATOM     13  S   UNL     1       0.230  10.751  21.078  0.00  0.00    +0.000 S 
ATOM     14  O   UNL     1       1.360  11.819  21.316  0.00  0.00    +0.000 OA
ENDBRANCH   5  13
ENDBRANCH   1   8
BRANCH   2  15
ATOM     15  C   UNL     1       3.443   4.025  17.212  0.00  0.00    +0.000 C 
BRANCH  15  16
ATOM     16  C   UNL     1       4.917   4.286  17.354  0.00  0.00    +0.000 A 
ATOM     17  C   UNL     1       5.739   4.449  16.235  0.00  0.00    +0.000 A 
ATOM     18  C   UNL     1       7.107   4.635  16.402  0.00  0.00    +0.000 A 
ATOM     19  C   UNL     1       7.617   4.650  17.688  0.00  0.00    +0.000 A 
ATOM     20  N   UNL     1       6.859   4.496  18.793  0.00  0.00    +0.000 NA
ATOM     21  C   UNL     1       5.532   4.312  18.606  0.00  0.00    +0.000 A 
ENDBRANCH  15  16
ENDBRANCH   2  15
TORSDOF 4
ENDMDL
MODEL 3
REMARK VINA RESULT:      -6.8      1.407      1.808
REMARK  Name = 
REMARK  5 active torsions:
REMARK  status: ('A' for Active; 'I' for Inactive)
REMARK    1  A    between atoms: C_1  and  S_2
REMARK    2  A    between atoms: S_2  and  C_4
REMARK    3  A    between atoms: C_7  and  N_8
REMARK    4  A    between atoms: C_9  and  C_11
REMARK    5  A    between atoms: C_11  and  C_12
REMARK                            x       y       z     vdW  Elec       q    Type
REMARK                         _______ _______ _______ _____ _____    ______ ____
ROOT
ATOM      1  N   UNL     1       3.525   5.870  18.737  0.00  0.00    +0.000 N 
ATOM      2  C   UNL     1       3.103   4.699  18.122  0.00  0.00    +0.000 C 
ATOM      3  O   UNL     1       1.947   4.425  17.806  0.00  0.00    +0.000 OA
ATOM      4  H   UNL     1       4.464   5.874  19.116  0.00  0.00    +0.000 HD
ENDROOT
BRANCH   1   8
ATOM      5  C   UNL     1       1.161   9.300  19.525  0.00  0.00    +0.000 A 
ATOM      6  C   UNL     1       1.275   8.299  20.489  0.00  0.00    +0.000 A 
ATOM      7  C   UNL     1       2.043   7.155  20.242  0.00  0.00    +0.000 A 
ATOM      8  C   UNL     1       2.720   6.993  19.029  0.00  0.00    +0.000 A 
ATOM      9  C   UNL     1       2.591   7.984  18.053  0.00  0.00    +0.000 A 
ATOM     10  C   UNL     1       1.833   9.131  18.314  0.00  0.00    +0.000 A 
ATOM     11  F   UNL     1       1.773  10.080  17.367  0.00  0.00    +0.000 F 
BRANCH   5  13
ATOM     12  C   UNL     1      -1.199  10.471  18.793  0.00  0.00    +0.000 C 
ATOM     13  S   UNL     1       0.219  10.800  19.866  0.00  0.00    +0.000 S 
ATOM     14  O   UNL     1      -0.286  10.691  21.352  0.00  0.00    +0.000 OA
ENDBRANCH   5  13
ENDBRANCH   1   8
BRANCH   2  15
ATOM     15  C   UNL     1       4.218   3.701  17.876  0.00  0.00    +0.000 C 
BRANCH  15  16
ATOM     16  C   UNL     1       5.231   4.174  16.870  0.00  0.00    +0.000 A 
ATOM     17  C   UNL     1       4.905   4.309  15.518  0.00  0.00    +0.000 A 
ATOM     18  C   UNL     1       5.881   4.698  14.605  0.00  0.00    +0.000 A 
ATOM     19  C   UNL     1       7.160   4.937  15.074  0.00  0.00    +0.000 A 
ATOM     20  N   UNL     1       7.515   4.818  16.370  0.00  0.00    +0.000 NA
ATOM     21  C   UNL     1       6.551   4.436  17.238  0.00  0.00    +0.000 A 
ENDBRANCH  15  16
ENDBRANCH   2  15
TORSDOF 4
ENDMDL
MODEL 4
REMARK VINA RESULT:      -6.8      1.820      2.109
REMARK  Name = 
REMARK  5 active torsions:
REMARK  status: ('A' for Active; 'I' for Inactive)
REMARK    1  A    between atoms: C_1  and  S_2
REMARK    2  A    between atoms: S_2  and  C_4
REMARK    3  A    between atoms: C_7  and  N_8
REMARK    4  A    between atoms: C_9  and  C_11
REMARK    5  A    between atoms: C_11  and  C_12
REMARK                            x       y       z     vdW  Elec       q    Type
REMARK                         _______ _______ _______ _____ _____    ______ ____
ROOT
ATOM      1  N   UNL     1       3.275   5.846  18.023  0.00  0.00    +0.000 N 
ATOM      2  C   UNL     1       4.391   5.181  18.509  0.00  0.00    +0.000 C 
ATOM      3  O   UNL     1       5.054   5.505  19.493  0.00  0.00    +0.000 OA
ATOM      4  H   UNL     1       2.953   5.585  17.099  0.00  0.00    +0.000 HD
ENDROOT
BRANCH   1   8
ATOM      5  C   UNL     1       1.430   9.262  19.730  0.00  0.00    +0.000 A 
ATOM      6  C   UNL     1       1.544   8.087  20.475  0.00  0.00    +0.000 A 
ATOM      7  C   UNL     1       2.140   6.947  19.924  0.00  0.00    +0.000 A 
ATOM      8  C   UNL     1       2.644   6.961  18.620  0.00  0.00    +0.000 A 
ATOM      9  C   UNL     1       2.514   8.129  17.864  0.00  0.00    +0.000 A 
ATOM     10  C   UNL     1       1.929   9.268  18.427  0.00  0.00    +0.000 A 
ATOM     11  F   UNL     1       1.865  10.382  17.682  0.00  0.00    +0.000 F 
BRANCH   5  13
ATOM     12  C   UNL     1      -0.908  10.676  19.666  0.00  0.00    +0.000 C 
ATOM     13  S   UNL     1       0.714  10.747  20.460  0.00  0.00    +0.000 S 
ATOM     14  O   UNL     1       0.497  10.443  21.989  0.00  0.00    +0.000 OA
ENDBRANCH   5  13
ENDBRANCH   1   8
BRANCH   2  15
ATOM     15  C   UNL     1       4.790   3.972  17.685  0.00  0.00    +0.000 C 
BRANCH  15  16
ATOM     16  C   UNL     1       5.575   4.323  16.452  0.00  0.00    +0.000 A 
ATOM     17  C   UNL     1       5.237   3.799  15.201  0.00  0.00    +0.000 A 
ATOM     18  C   UNL     1       6.017   4.102  14.089  0.00  0.00    +0.000 A 
ATOM     19  C   UNL     1       7.118   4.921  14.263  0.00  0.00    +0.000 A 
ATOM     20  N   UNL     1       7.478   5.446  15.453  0.00  0.00    +0.000 NA
ATOM     21  C   UNL     1       6.707   5.134  16.519  0.00  0.00    +0.000 A 
ENDBRANCH  15  16
ENDBRANCH   2  15
TORSDOF 4
ENDMDL
MODEL 5
REMARK VINA RESULT:      -6.7      1.023      1.196
REMARK  Name = 
REMARK  5 active torsions:
REMARK  status: ('A' for Active; 'I' for Inactive)
REMARK    1  A    between atoms: C_1  and  S_2
REMARK    2  A    between atoms: S_2  and  C_4
REMARK    3  A    between atoms: C_7  and  N_8
REMARK    4  A    between atoms: C_9  and  C_11
REMARK    5  A    between atoms: C_11  and  C_12
REMARK                            x       y       z     vdW  Elec       q    Type
REMARK                         _______ _______ _______ _____ _____    ______ ____
ROOT
ATOM      1  N   UNL     1       2.978   6.250  17.980  0.00  0.00    +0.000 N 
ATOM      2  C   UNL     1       2.574   4.927  18.093  0.00  0.00    +0.000 C 
ATOM      3  O   UNL     1       1.646   4.511  18.784  0.00  0.00    +0.000 OA
ATOM      4  H   UNL     1       3.872   6.419  17.538  0.00  0.00    +0.000 HD
ENDROOT
BRANCH   1   8
ATOM      5  C   UNL     1       1.044   9.537  19.835  0.00  0.00    +0.000 A 
ATOM      6  C   UNL     1       1.304   9.566  18.464  0.00  0.00    +0.000 A 
ATOM      7  C   UNL     1       1.950   8.495  17.837  0.00  0.00    +0.000 A 
ATOM      8  C   UNL     1       2.342   7.367  18.566  0.00  0.00    +0.000 A 
ATOM      9  C   UNL     1       2.102   7.344  19.942  0.00  0.00    +0.000 A 
ATOM     10  C   UNL     1       1.442   8.413  20.558  0.00  0.00    +0.000 A 
ATOM     11  F   UNL     1       1.191   8.329  21.874  0.00  0.00    +0.000 F 
BRANCH   5  13
ATOM     12  C   UNL     1       1.259  12.245  20.148  0.00  0.00    +0.000 C 
ATOM     13  S   UNL     1       0.160  10.892  20.631  0.00  0.00    +0.000 S 
ATOM     14  O   UNL     1      -1.188  11.082  19.840  0.00  0.00    +0.000 OA
ENDBRANCH   5  13
ENDBRANCH   1   8
BRANCH   2  15
ATOM     15  C   UNL     1       3.418   3.959  17.287  0.00  0.00    +0.000 C 
BRANCH  15  16
ATOM     16  C   UNL     1       4.893   4.236  17.376  0.00  0.00    +0.000 A 
ATOM     17  C   UNL     1       5.678   4.375  16.228  0.00  0.00    +0.000 A 
ATOM     18  C   UNL     1       7.049   4.578  16.347  0.00  0.00    +0.000 A 
ATOM     19  C   UNL     1       7.598   4.631  17.616  0.00  0.00    +0.000 A 
ATOM     20  N   UNL     1       6.876   4.501  18.748  0.00  0.00    +0.000 NA
ATOM     21  C   UNL     1       5.545   4.302  18.607  0.00  0.00    +0.000 A 
ENDBRANCH  15  16
ENDBRANCH   2  15
TORSDOF 4
ENDMDL
MODEL 6
REMARK VINA RESULT:      -6.7      1.473      1.825
REMARK  Name = 
REMARK  5 active torsions:
REMARK  status: ('A' for Active; 'I' for Inactive)
REMARK    1  A    between atoms: C_1  and  S_2
REMARK    2  A    between atoms: S_2  and  C_4
REMARK    3  A    between atoms: C_7  and  N_8
REMARK    4  A    between atoms: C_9  and  C_11
REMARK    5  A    between atoms: C_11  and  C_12
REMARK                            x       y       z     vdW  Elec       q    Type
REMARK                         _______ _______ _______ _____ _____    ______ ____
ROOT
ATOM      1  N   UNL     1       3.222   6.910  18.292  0.00  0.00    +0.000 N 
ATOM      2  C   UNL     1       2.909   5.615  17.903  0.00  0.00    +0.000 C 
ATOM      3  O   UNL     1       1.795   5.097  17.944  0.00  0.00    +0.000 OA
ATOM      4  H   UNL     1       4.204   7.133  18.391  0.00  0.00    +0.000 HD
ENDROOT
BRANCH   1   8
ATOM      5  C   UNL     1       0.443   9.802  19.668  0.00  0.00    +0.000 A 
ATOM      6  C   UNL     1       0.875   9.829  18.342  0.00  0.00    +0.000 A 
ATOM      7  C   UNL     1       1.800   8.889  17.873  0.00  0.00    +0.000 A 
ATOM      8  C   UNL     1       2.304   7.895  18.718  0.00  0.00    +0.000 A 
ATOM      9  C   UNL     1       1.889   7.878  20.052  0.00  0.00    +0.000 A 
ATOM     10  C   UNL     1       0.953   8.812  20.509  0.00  0.00    +0.000 A 
ATOM     11  F   UNL     1       0.547   8.731  21.785  0.00  0.00    +0.000 F 
BRANCH   5  13
ATOM     12  C   UNL     1       0.318  12.126  21.102  0.00  0.00    +0.000 C 
ATOM     13  S   UNL     1      -0.792  10.977  20.255  0.00  0.00    +0.000 S 
ATOM     14  O   UNL     1      -1.352  11.721  18.987  0.00  0.00    +0.000 OA
ENDBRANCH   5  13
ENDBRANCH   1   8
BRANCH   2  15
ATOM     15  C   UNL     1       4.105   4.814  17.424  0.00  0.00    +0.000 C 
BRANCH  15  16
ATOM     16  C   UNL     1       5.416   5.327  17.951  0.00  0.00    +0.000 A 
ATOM     17  C   UNL     1       6.250   6.131  17.168  0.00  0.00    +0.000 A 
ATOM     18  C   UNL     1       7.481   6.545  17.667  0.00  0.00    +0.000 A 
ATOM     19  C   UNL     1       7.845   6.137  18.938  0.00  0.00    +0.000 A 
ATOM     20  N   UNL     1       7.070   5.362  19.725  0.00  0.00    +0.000 NA
ATOM     21  C   UNL     1       5.879   4.970  19.217  0.00  0.00    +0.000 A 
ENDBRANCH  15  16
ENDBRANCH   2  15
TORSDOF 4
ENDMDL
MODEL 7
REMARK VINA RESULT:      -6.7      0.880      1.008
REMARK  Name = 
REMARK  5 active torsions:
REMARK  status: ('A' for Active; 'I' for Inactive)
REMARK    1  A    between atoms: C_1  and  S_2
REMARK    2  A    between atoms: S_2  and  C_4
REMARK    3  A    between atoms: C_7  and  N_8
REMARK    4  A    between atoms: C_9  and  C_11
REMARK    5  A    between atoms: C_11  and  C_12
REMARK                            x       y       z     vdW  Elec       q    Type
REMARK                         _______ _______ _______ _____ _____    ______ ____
ROOT
ATOM      1  N   UNL     1       3.437   6.128  18.520  0.00  0.00    +0.000 N 
ATOM      2  C   UNL     1       2.965   4.924  18.016  0.00  0.00    +0.000 C 
ATOM      3  O   UNL     1       1.800   4.676  17.712  0.00  0.00    +0.000 OA
ATOM      4  H   UNL     1       4.371   6.125  18.911  0.00  0.00    +0.000 HD
ENDROOT
BRANCH   1   8
ATOM      5  C   UNL     1       1.123   9.630  19.118  0.00  0.00    +0.000 A 
ATOM      6  C   UNL     1       1.813   9.449  17.919  0.00  0.00    +0.000 A 
ATOM      7  C   UNL     1       2.589   8.304  17.708  0.00  0.00    +0.000 A 
ATOM      8  C   UNL     1       2.685   7.312  18.689  0.00  0.00    +0.000 A 
ATOM      9  C   UNL     1       2.013   7.500  19.899  0.00  0.00    +0.000 A 
ATOM     10  C   UNL     1       1.227   8.641  20.096  0.00  0.00    +0.000 A 
ATOM     11  F   UNL     1       0.562   8.760  21.255  0.00  0.00    +0.000 F 
BRANCH   5  13
ATOM     12  C   UNL     1      -1.476  10.391  18.743  0.00  0.00    +0.000 C 
ATOM     13  S   UNL     1       0.077  11.078  19.366  0.00  0.00    +0.000 S 
ATOM     14  O   UNL     1      -0.085  11.261  20.920  0.00  0.00    +0.000 OA
ENDBRANCH   5  13
ENDBRANCH   1   8
BRANCH   2  15
ATOM     15  C   UNL     1       4.032   3.855  17.885  0.00  0.00    +0.000 C 
BRANCH  15  16
ATOM     16  C   UNL     1       5.133   4.224  16.930  0.00  0.00    +0.000 A 
ATOM     17  C   UNL     1       4.902   4.312  15.554  0.00  0.00    +0.000 A 
ATOM     18  C   UNL     1       5.955   4.604  14.693  0.00  0.00    +0.000 A 
ATOM     19  C   UNL     1       7.214   4.796  15.235  0.00  0.00    +0.000 A 
ATOM     20  N   UNL     1       7.477   4.719  16.556  0.00  0.00    +0.000 NA
ATOM     21  C   UNL     1       6.439   4.431  17.373  0.00  0.00    +0.000 A 
ENDBRANCH  15  16
ENDBRANCH   2  15
TORSDOF 4
ENDMDL
MODEL 8
REMARK VINA RESULT:      -6.7      2.038      2.550
REMARK  Name = 
REMARK  5 active torsions:
REMARK  status: ('A' for Active; 'I' for Inactive)
REMARK    1  A    between atoms: C_1  and  S_2
REMARK    2  A    between atoms: S_2  and  C_4
REMARK    3  A    between atoms: C_7  and  N_8
REMARK    4  A    between atoms: C_9  and  C_11
REMARK    5  A    between atoms: C_11  and  C_12
REMARK                            x       y       z     vdW  Elec       q    Type
REMARK                         _______ _______ _______ _____ _____    ______ ____
ROOT
ATOM      1  N   UNL     1       2.959   7.076  18.583  0.00  0.00    +0.000 N 
ATOM      2  C   UNL     1       2.697   5.751  18.265  0.00  0.00    +0.000 C 
ATOM      3  O   UNL     1       1.715   5.103  18.621  0.00  0.00    +0.000 OA
ATOM      4  H   UNL     1       3.893   7.417  18.390  0.00  0.00    +0.000 HD
ENDROOT
BRANCH   1   8
ATOM      5  C   UNL     1       0.410   9.768  20.641  0.00  0.00    +0.000 A 
ATOM      6  C   UNL     1       0.914   8.647  21.300  0.00  0.00    +0.000 A 
ATOM      7  C   UNL     1       1.749   7.742  20.634  0.00  0.00    +0.000 A 
ATOM      8  C   UNL     1       2.104   7.946  19.296  0.00  0.00    +0.000 A 
ATOM      9  C   UNL     1       1.584   9.056  18.627  0.00  0.00    +0.000 A 
ATOM     10  C   UNL     1       0.762   9.963  19.305  0.00  0.00    +0.000 A 
ATOM     11  F   UNL     1       0.322  11.041  18.638  0.00  0.00    +0.000 F 
BRANCH   5  13
ATOM     12  C   UNL     1      -0.769  10.081  23.088  0.00  0.00    +0.000 C 
ATOM     13  S   UNL     1      -0.617  10.964  21.517  0.00  0.00    +0.000 S 
ATOM     14  O   UNL     1       0.280  12.229  21.779  0.00  0.00    +0.000 OA
ENDBRANCH   5  13
ENDBRANCH   1   8
BRANCH   2  15
ATOM     15  C   UNL     1       3.778   5.099  17.425  0.00  0.00    +0.000 C 
BRANCH  15  16
ATOM     16  C   UNL     1       5.171   5.459  17.860  0.00  0.00    +0.000 A 
ATOM     17  C   UNL     1       5.999   6.254  17.062  0.00  0.00    +0.000 A 
ATOM     18  C   UNL     1       7.302   6.525  17.470  0.00  0.00    +0.000 A 
ATOM     19  C   UNL     1       7.740   5.986  18.667  0.00  0.00    +0.000 A 
ATOM     20  N   UNL     1       6.973   5.215  19.464  0.00  0.00    +0.000 NA
ATOM     21  C   UNL     1       5.712   4.963  19.045  0.00  0.00    +0.000 A 
ENDBRANCH  15  16
ENDBRANCH   2  15
TORSDOF 4
ENDMDL
MODEL 9
REMARK VINA RESULT:      -6.7      1.222      1.223
REMARK  Name = 
REMARK  5 active torsions:
REMARK  status: ('A' for Active; 'I' for Inactive)
REMARK    1  A    between atoms: C_1  and  S_2
REMARK    2  A    between atoms: S_2  and  C_4
REMARK    3  A    between atoms: C_7  and  N_8
REMARK    4  A    between atoms: C_9  and  C_11
REMARK    5  A    between atoms: C_11  and  C_12
REMARK                            x       y       z     vdW  Elec       q    Type
REMARK                         _______ _______ _______ _____ _____    ______ ____
ROOT
ATOM      1  N   UNL     1       3.306   5.978  17.813  0.00  0.00    +0.000 N 
ATOM      2  C   UNL     1       4.441   5.364  18.322  0.00  0.00    +0.000 C 
ATOM      3  O   UNL     1       5.108   5.754  19.278  0.00  0.00    +0.000 OA
ATOM      4  H   UNL     1       2.980   5.660  16.909  0.00  0.00    +0.000 HD
ENDROOT
BRANCH   1   8
ATOM      5  C   UNL     1       1.320   9.310  19.527  0.00  0.00    +0.000 A 
ATOM      6  C   UNL     1       1.785   9.378  18.213  0.00  0.00    +0.000 A 
ATOM      7  C   UNL     1       2.452   8.292  17.635  0.00  0.00    +0.000 A 
ATOM      8  C   UNL     1       2.659   7.111  18.355  0.00  0.00    +0.000 A 
ATOM      9  C   UNL     1       2.213   7.047  19.678  0.00  0.00    +0.000 A 
ATOM     10  C   UNL     1       1.535   8.132  20.243  0.00  0.00    +0.000 A 
ATOM     11  F   UNL     1       1.083   8.011  21.501  0.00  0.00    +0.000 F 
BRANCH   5  13
ATOM     12  C   UNL     1       1.434  12.040  19.624  0.00  0.00    +0.000 C 
ATOM     13  S   UNL     1       0.411  10.688  20.252  0.00  0.00    +0.000 S 
ATOM     14  O   UNL     1      -0.971  10.764  19.504  0.00  0.00    +0.000 OA
ENDBRANCH   5  13
ENDBRANCH   1   8
BRANCH   2  15
ATOM     15  C   UNL     1       4.857   4.120  17.560  0.00  0.00    +0.000 C 
BRANCH  15  16
ATOM     16  C   UNL     1       5.643   4.418  16.314  0.00  0.00    +0.000 A 
ATOM     17  C   UNL     1       5.250   3.917  15.069  0.00  0.00    +0.000 A 
ATOM     18  C   UNL     1       6.030   4.168  13.944  0.00  0.00    +0.000 A 
ATOM     19  C   UNL     1       7.187   4.911  14.099  0.00  0.00    +0.000 A 
ATOM     20  N   UNL     1       7.600   5.411  15.282  0.00  0.00    +0.000 NA
ATOM     21  C   UNL     1       6.828   5.152  16.361  0.00  0.00    +0.000 A 
ENDBRANCH  15  16
ENDBRANCH   2  15
TORSDOF 4
ENDMDL
