MODEL 1
REMARK VINA RESULT:      -7.8      0.000      0.000
REMARK  Name = 
REMARK  5 active torsions:
REMARK  status: ('A' for Active; 'I' for Inactive)
REMARK    1  A    between atoms: C_1  and  O_2
REMARK    2  A    between atoms: O_2  and  C_3
REMARK    3  A    between atoms: C_9  and  C_10
REMARK    4  A    between atoms: N_12  and  C_13
REMARK    5  A    between atoms: C_18  and  C_19
REMARK                            x       y       z     vdW  Elec       q    Type
REMARK                         _______ _______ _______ _____ _____    ______ ____
ROOT
ATOM      1  C   UNL     1       4.412   5.861  18.355  0.00  0.00    +0.000 A 
ATOM      2  C   UNL     1       5.199   4.794  18.556  0.00  0.00    +0.000 A 
ATOM      3  C   UNL     1       4.740   3.644  19.353  0.00  0.00    +0.000 A 
ATOM      4  O   UNL     1       5.500   2.689  19.500  0.00  0.00    +0.000 OA
ATOM      5  N   UNL     1       3.454   3.726  19.879  0.00  0.00    +0.000 N 
ATOM      6  C   UNL     1       2.609   4.828  19.647  0.00  0.00    +0.000 A 
ATOM      7  C   UNL     1       3.070   5.900  18.939  0.00  0.00    +0.000 A 
ATOM      8  C   UNL     1       1.203   4.774  20.235  0.00  0.00    +0.000 C 
ATOM      9  C   UNL     1       0.723   3.403  20.688  0.00  0.00    +0.000 C 
ATOM     10  C   UNL     1       1.805   2.768  21.529  0.00  0.00    +0.000 C 
ATOM     11  C   UNL     1       3.030   2.561  20.658  0.00  0.00    +0.000 C 
ENDROOT
BRANCH   7  12
ATOM     12  C   UNL     1       2.230   7.169  18.940  0.00  0.00    +0.000 C 
ATOM     13  O   UNL     1       1.823   7.618  17.868  0.00  0.00    +0.000 OA
ATOM     14  N   UNL     1       1.990   7.769  20.163  0.00  0.00    +0.000 N 
ATOM     15  H   UNL     1       2.381   7.312  20.982  0.00  0.00    +0.000 HD
BRANCH  14  16
ATOM     16  C   UNL     1       1.212   8.938  20.374  0.00  0.00    +0.000 A 
ATOM     17  C   UNL     1       1.125   9.974  19.440  0.00  0.00    +0.000 A 
ATOM     18  C   UNL     1       0.361  11.114  19.689  0.00  0.00    +0.000 A 
ATOM     19  C   UNL     1      -0.328  11.250  20.890  0.00  0.00    +0.000 A 
ATOM     20 CL   UNL     1      -1.250  12.694  21.110  0.00  0.00    +0.000 Cl
ATOM     21  C   UNL     1      -0.261  10.235  21.856  0.00  0.00    +0.000 A 
ATOM     22  C   UNL     1      -0.936  10.337  23.196  0.00  0.00    +0.000 C 
ATOM     23  C   UNL     1       0.498   9.072  21.573  0.00  0.00    +0.000 A 
ENDBRANCH  14  16
ENDBRANCH   7  12
BRANCH   1  25
ATOM     24  C   UNL     1       5.167   6.739  16.248  0.00  0.00    +0.000 C 
ATOM     25  O   UNL     1       4.764   6.968  17.600  0.00  0.00    +0.000 OA
ENDBRANCH   1  25
TORSDOF 3
ENDMDL
MODEL 2
REMARK VINA RESULT:      -7.6      1.989      2.037
REMARK  Name = 
REMARK  5 active torsions:
REMARK  status: ('A' for Active; 'I' for Inactive)
REMARK    1  A    between atoms: C_1  and  O_2
REMARK    2  A    between atoms: O_2  and  C_3
REMARK    3  A    between atoms: C_9  and  C_10
REMARK    4  A    between atoms: N_12  and  C_13
REMARK    5  A    between atoms: C_18  and  C_19
REMARK                            x       y       z     vdW  Elec       q    Type
REMARK                         _______ _______ _______ _____ _____    ______ ____
ROOT
ATOM      1  C   UNL     1       3.935   5.727  17.371  0.00  0.00    +0.000 A 
ATOM      2  C   UNL     1       4.459   4.515  17.136  0.00  0.00    +0.000 A 
ATOM      3  C   UNL     1       3.982   3.322  17.857  0.00  0.00    +0.000 A 
ATOM      4  O   UNL     1       4.493   2.235  17.598  0.00  0.00    +0.000 OA
ATOM      5  N   UNL     1       2.963   3.522  18.785  0.00  0.00    +0.000 N 
ATOM      6  C   UNL     1       2.386   4.786  19.015  0.00  0.00    +0.000 A 
ATOM      7  C   UNL     1       2.872   5.884  18.364  0.00  0.00    +0.000 A 
ATOM      8  C   UNL     1       1.242   4.865  20.020  0.00  0.00    +0.000 C 
ATOM      9  C   UNL     1       0.591   3.541  20.394  0.00  0.00    +0.000 C 
ATOM     10  C   UNL     1       1.679   2.546  20.722  0.00  0.00    +0.000 C 
ATOM     11  C   UNL     1       2.510   2.314  19.475  0.00  0.00    +0.000 C 
ENDROOT
BRANCH   7  12
ATOM     12  C   UNL     1       2.407   7.254  18.835  0.00  0.00    +0.000 C 
ATOM     13  O   UNL     1       2.444   7.518  20.036  0.00  0.00    +0.000 OA
ATOM     14  N   UNL     1       1.936   8.128  17.871  0.00  0.00    +0.000 N 
ATOM     15  H   UNL     1       1.946   7.800  16.910  0.00  0.00    +0.000 HD
BRANCH  14  16
ATOM     16  C   UNL     1       1.483   9.453  18.106  0.00  0.00    +0.000 A 
ATOM     17  C   UNL     1       2.345  10.550  18.188  0.00  0.00    +0.000 A 
ATOM     18  C   UNL     1       1.864  11.836  18.434  0.00  0.00    +0.000 A 
ATOM     19  C   UNL     1       0.502  12.053  18.616  0.00  0.00    +0.000 A 
ATOM     20 CL   UNL     1      -0.003  13.678  18.913  0.00  0.00    +0.000 Cl
ATOM     21  C   UNL     1      -0.396  10.978  18.547  0.00  0.00    +0.000 A 
ATOM     22  C   UNL     1      -1.873  11.130  18.785  0.00  0.00    +0.000 C 
ATOM     23  C   UNL     1       0.109   9.683  18.269  0.00  0.00    +0.000 A 
ENDBRANCH  14  16
ENDBRANCH   7  12
BRANCH   1  25
ATOM     24  C   UNL     1       5.125   6.748  15.550  0.00  0.00    +0.000 C 
ATOM     25  O   UNL     1       4.315   6.888  16.719  0.00  0.00    +0.000 OA
ENDBRANCH   1  25
TORSDOF 3
ENDMDL
MODEL 3
REMARK VINA RESULT:      -7.5      1.894      2.335
REMARK  Name = 
REMARK  5 active torsions:
REMARK  status: ('A' for Active; 'I' for Inactive)
REMARK    1  A    between atoms: C_1  and  O_2
REMARK    2  A    between atoms: O_2  and  C_3
REMARK    3  A    between atoms: C_9  and  C_10
REMARK    4  A    between atoms: N_12  and  C_13
REMARK    5  A    between atoms: C_18  and  C_19
REMARK                            x       y       z     vdW  Elec       q    Type
REMARK                         _______ _______ _______ _____ _____    ______ ____
ROOT
ATOM      1  C   UNL     1       3.892   5.815  17.429  0.00  0.00    +0.000 A 
ATOM      2  C   UNL     1       4.441   4.619  17.169  0.00  0.00    +0.000 A 
ATOM      3  C   UNL     1       3.991   3.402  17.867  0.00  0.00    +0.000 A 
ATOM      4  O   UNL     1       4.525   2.331  17.586  0.00  0.00    +0.000 OA
ATOM      5  N   UNL     1       2.971   3.563  18.801  0.00  0.00    +0.000 N 
ATOM      6  C   UNL     1       2.368   4.809  19.057  0.00  0.00    +0.000 A 
ATOM      7  C   UNL     1       2.828   5.929  18.428  0.00  0.00    +0.000 A 
ATOM      8  C   UNL     1       1.224   4.843  20.065  0.00  0.00    +0.000 C 
ATOM      9  C   UNL     1       0.603   3.499  20.414  0.00  0.00    +0.000 C 
ATOM     10  C   UNL     1       1.712   2.521  20.721  0.00  0.00    +0.000 C 
ATOM     11  C   UNL     1       2.545   2.331  19.467  0.00  0.00    +0.000 C 
ENDROOT
BRANCH   7  12
ATOM     12  C   UNL     1       2.335   7.280  18.926  0.00  0.00    +0.000 C 
ATOM     13  O   UNL     1       2.373   7.522  20.133  0.00  0.00    +0.000 OA
ATOM     14  N   UNL     1       1.842   8.161  17.981  0.00  0.00    +0.000 N 
ATOM     15  H   UNL     1       1.854   7.852  17.015  0.00  0.00    +0.000 HD
BRANCH  14  16
ATOM     16  C   UNL     1       1.361   9.472  18.244  0.00  0.00    +0.000 A 
ATOM     17  C   UNL     1       0.032   9.744  18.577  0.00  0.00    +0.000 A 
ATOM     18  C   UNL     1      -0.406  11.047  18.814  0.00  0.00    +0.000 A 
ATOM     19  C   UNL     1       0.479  12.115  18.711  0.00  0.00    +0.000 A 
ATOM     20 CL   UNL     1      -0.152  13.692  19.024  0.00  0.00    +0.000 Cl
ATOM     21  C   UNL     1       1.820  11.885  18.373  0.00  0.00    +0.000 A 
ATOM     22  C   UNL     1       2.819  12.995  18.193  0.00  0.00    +0.000 C 
ATOM     23  C   UNL     1       2.253  10.552  18.163  0.00  0.00    +0.000 A 
ENDBRANCH  14  16
ENDBRANCH   7  12
BRANCH   1  25
ATOM     24  C   UNL     1       5.089   6.900  15.649  0.00  0.00    +0.000 C 
ATOM     25  O   UNL     1       4.246   6.997  16.800  0.00  0.00    +0.000 OA
ENDBRANCH   1  25
TORSDOF 3
ENDMDL
MODEL 4
REMARK VINA RESULT:      -7.5      3.741      7.813
REMARK  Name = 
REMARK  5 active torsions:
REMARK  status: ('A' for Active; 'I' for Inactive)
REMARK    1  A    between atoms: C_1  and  O_2
REMARK    2  A    between atoms: O_2  and  C_3
REMARK    3  A    between atoms: C_9  and  C_10
REMARK    4  A    between atoms: N_12  and  C_13
REMARK    5  A    between atoms: C_18  and  C_19
REMARK                            x       y       z     vdW  Elec       q    Type
REMARK                         _______ _______ _______ _____ _____    ______ ____
ROOT
ATOM      1  C   UNL     1       0.437  10.500  20.579  0.00  0.00    +0.000 A 
ATOM      2  C   UNL     1      -0.442  11.340  21.143  0.00  0.00    +0.000 A 
ATOM      3  C   UNL     1      -1.665  11.757  20.434  0.00  0.00    +0.000 A 
ATOM      4  O   UNL     1      -2.440  12.525  21.000  0.00  0.00    +0.000 OA
ATOM      5  N   UNL     1      -1.854  11.231  19.159  0.00  0.00    +0.000 N 
ATOM      6  C   UNL     1      -0.952  10.324  18.572  0.00  0.00    +0.000 A 
ATOM      7  C   UNL     1       0.195   9.983  19.231  0.00  0.00    +0.000 A 
ATOM      8  C   UNL     1      -1.299   9.779  17.191  0.00  0.00    +0.000 C 
ATOM      9  C   UNL     1      -2.740   9.968  16.743  0.00  0.00    +0.000 C 
ATOM     10  C   UNL     1      -3.138  11.404  16.996  0.00  0.00    +0.000 C 
ATOM     11  C   UNL     1      -3.083  11.661  18.490  0.00  0.00    +0.000 C 
ENDROOT
BRANCH   7  12
ATOM     12  C   UNL     1       1.260   9.219  18.459  0.00  0.00    +0.000 C 
ATOM     13  O   UNL     1       1.819   9.768  17.509  0.00  0.00    +0.000 OA
ATOM     14  N   UNL     1       1.525   7.922  18.859  0.00  0.00    +0.000 N 
ATOM     15  H   UNL     1       0.998   7.570  19.653  0.00  0.00    +0.000 HD
BRANCH  14  16
ATOM     16  C   UNL     1       2.496   7.059  18.285  0.00  0.00    +0.000 A 
ATOM     17  C   UNL     1       3.719   7.515  17.784  0.00  0.00    +0.000 A 
ATOM     18  C   UNL     1       4.642   6.638  17.214  0.00  0.00    +0.000 A 
ATOM     19  C   UNL     1       4.356   5.280  17.120  0.00  0.00    +0.000 A 
ATOM     20 CL   UNL     1       5.559   4.271  16.401  0.00  0.00    +0.000 Cl
ATOM     21  C   UNL     1       3.137   4.784  17.605  0.00  0.00    +0.000 A 
ATOM     22  C   UNL     1       2.740   3.338  17.489  0.00  0.00    +0.000 C 
ATOM     23  C   UNL     1       2.224   5.686  18.206  0.00  0.00    +0.000 A 
ENDBRANCH  14  16
ENDBRANCH   7  12
BRANCH   1  25
ATOM     24  C   UNL     1       1.446   9.138  22.284  0.00  0.00    +0.000 C 
ATOM     25  O   UNL     1       1.595  10.046  21.189  0.00  0.00    +0.000 OA
ENDBRANCH   1  25
TORSDOF 3
ENDMDL
MODEL 5
REMARK VINA RESULT:      -7.5      1.544      3.458
REMARK  Name = 
REMARK  5 active torsions:
REMARK  status: ('A' for Active; 'I' for Inactive)
REMARK    1  A    between atoms: C_1  and  O_2
REMARK    2  A    between atoms: O_2  and  C_3
REMARK    3  A    between atoms: C_9  and  C_10
REMARK    4  A    between atoms: N_12  and  C_13
REMARK    5  A    between atoms: C_18  and  C_19
REMARK                            x       y       z     vdW  Elec       q    Type
REMARK                         _______ _______ _______ _____ _____    ______ ____
ROOT
ATOM      1  C   UNL     1       2.288   4.210  19.099  0.00  0.00    +0.000 A 
ATOM      2  C   UNL     1       2.760   3.008  18.740  0.00  0.00    +0.000 A 
ATOM      3  C   UNL     1       3.837   2.876  17.742  0.00  0.00    +0.000 A 
ATOM      4  O   UNL     1       4.237   1.750  17.454  0.00  0.00    +0.000 OA
ATOM      5  N   UNL     1       4.332   4.060  17.202  0.00  0.00    +0.000 N 
ATOM      6  C   UNL     1       3.863   5.327  17.597  0.00  0.00    +0.000 A 
ATOM      7  C   UNL     1       2.837   5.423  18.493  0.00  0.00    +0.000 A 
ATOM      8  C   UNL     1       4.523   6.550  16.969  0.00  0.00    +0.000 C 
ATOM      9  C   UNL     1       5.853   6.304  16.272  0.00  0.00    +0.000 C 
ATOM     10  C   UNL     1       5.707   5.105  15.365  0.00  0.00    +0.000 C 
ATOM     11  C   UNL     1       5.405   3.889  16.221  0.00  0.00    +0.000 C 
ENDROOT
BRANCH   7  12
ATOM     12  C   UNL     1       2.187   6.786  18.688  0.00  0.00    +0.000 C 
ATOM     13  O   UNL     1       1.827   7.423  17.699  0.00  0.00    +0.000 OA
ATOM     14  N   UNL     1       2.061   7.246  19.987  0.00  0.00    +0.000 N 
ATOM     15  H   UNL     1       2.399   6.637  20.725  0.00  0.00    +0.000 HD
BRANCH  14  16
ATOM     16  C   UNL     1       1.463   8.475  20.374  0.00  0.00    +0.000 A 
ATOM     17  C   UNL     1       1.486   9.620  19.574  0.00  0.00    +0.000 A 
ATOM     18  C   UNL     1       0.899  10.813  19.995  0.00  0.00    +0.000 A 
ATOM     19  C   UNL     1       0.281  10.891  21.240  0.00  0.00    +0.000 A 
ATOM     20 CL   UNL     1      -0.421  12.408  21.676  0.00  0.00    +0.000 Cl
ATOM     21  C   UNL     1       0.241   9.765  22.075  0.00  0.00    +0.000 A 
ATOM     22  C   UNL     1      -0.363   9.791  23.452  0.00  0.00    +0.000 C 
ATOM     23  C   UNL     1       0.819   8.554  21.618  0.00  0.00    +0.000 A 
ENDBRANCH  14  16
ENDBRANCH   7  12
BRANCH   1  25
ATOM     24  C   UNL     1       1.101   3.392  21.023  0.00  0.00    +0.000 C 
ATOM     25  O   UNL     1       1.295   4.415  20.044  0.00  0.00    +0.000 OA
ENDBRANCH   1  25
TORSDOF 3
ENDMDL
MODEL 6
REMARK VINA RESULT:      -7.4      0.335      1.407
REMARK  Name = 
REMARK  5 active torsions:
REMARK  status: ('A' for Active; 'I' for Inactive)
REMARK    1  A    between atoms: C_1  and  O_2
REMARK    2  A    between atoms: O_2  and  C_3
REMARK    3  A    between atoms: C_9  and  C_10
REMARK    4  A    between atoms: N_12  and  C_13
REMARK    5  A    between atoms: C_18  and  C_19
REMARK                            x       y       z     vdW  Elec       q    Type
REMARK                         _______ _______ _______ _____ _____    ______ ____
ROOT
ATOM      1  C   UNL     1       4.356   5.884  18.395  0.00  0.00    +0.000 A 
ATOM      2  C   UNL     1       5.155   4.814  18.521  0.00  0.00    +0.000 A 
ATOM      3  C   UNL     1       4.735   3.632  19.294  0.00  0.00    +0.000 A 
ATOM      4  O   UNL     1       5.504   2.677  19.372  0.00  0.00    +0.000 OA
ATOM      5  N   UNL     1       3.472   3.688  19.878  0.00  0.00    +0.000 N 
ATOM      6  C   UNL     1       2.615   4.795  19.725  0.00  0.00    +0.000 A 
ATOM      7  C   UNL     1       3.041   5.895  19.037  0.00  0.00    +0.000 A 
ATOM      8  C   UNL     1       1.236   4.712  20.371  0.00  0.00    +0.000 C 
ATOM      9  C   UNL     1       0.781   3.323  20.793  0.00  0.00    +0.000 C 
ATOM     10  C   UNL     1       1.901   2.662  21.561  0.00  0.00    +0.000 C 
ATOM     11  C   UNL     1       3.087   2.494  20.631  0.00  0.00    +0.000 C 
ENDROOT
BRANCH   7  12
ATOM     12  C   UNL     1       2.198   7.159  19.122  0.00  0.00    +0.000 C 
ATOM     13  O   UNL     1       1.792   7.677  18.083  0.00  0.00    +0.000 OA
ATOM     14  N   UNL     1       1.955   7.673  20.383  0.00  0.00    +0.000 N 
ATOM     15  H   UNL     1       2.345   7.164  21.170  0.00  0.00    +0.000 HD
BRANCH  14  16
ATOM     16  C   UNL     1       1.174   8.824  20.670  0.00  0.00    +0.000 A 
ATOM     17  C   UNL     1       0.476   8.992  21.870  0.00  0.00    +0.000 A 
ATOM     18  C   UNL     1      -0.293  10.131  22.110  0.00  0.00    +0.000 A 
ATOM     19  C   UNL     1      -0.391  11.128  21.146  0.00  0.00    +0.000 A 
ATOM     20 CL   UNL     1      -1.363  12.503  21.532  0.00  0.00    +0.000 Cl
ATOM     21  C   UNL     1       0.289  10.995  19.926  0.00  0.00    +0.000 A 
ATOM     22  C   UNL     1       0.187  12.008  18.819  0.00  0.00    +0.000 C 
ATOM     23  C   UNL     1       1.087   9.844  19.712  0.00  0.00    +0.000 A 
ENDBRANCH  14  16
ENDBRANCH   7  12
BRANCH   1  25
ATOM     24  C   UNL     1       5.057   6.839  16.303  0.00  0.00    +0.000 C 
ATOM     25  O   UNL     1       4.671   7.020  17.667  0.00  0.00    +0.000 OA
ENDBRANCH   1  25
TORSDOF 3
ENDMDL
MODEL 7
REMARK VINA RESULT:      -7.4      1.551      3.695
REMARK  Name = 
REMARK  5 active torsions:
REMARK  status: ('A' for Active; 'I' for Inactive)
REMARK    1  A    between atoms: C_1  and  O_2
REMARK    2  A    between atoms: O_2  and  C_3
REMARK    3  A    between atoms: C_9  and  C_10
REMARK    4  A    between atoms: N_12  and  C_13
REMARK    5  A    between atoms: C_18  and  C_19
REMARK                            x       y       z     vdW  Elec       q    Type
REMARK                         _______ _______ _______ _____ _____    ______ ____
ROOT
ATOM      1  C   UNL     1       2.321   4.246  19.252  0.00  0.00    +0.000 A 
ATOM      2  C   UNL     1       2.769   3.054  18.832  0.00  0.00    +0.000 A 
ATOM      3  C   UNL     1       3.802   2.950  17.787  0.00  0.00    +0.000 A 
ATOM      4  O   UNL     1       4.181   1.832  17.444  0.00  0.00    +0.000 OA
ATOM      5  N   UNL     1       4.283   4.148  17.267  0.00  0.00    +0.000 N 
ATOM      6  C   UNL     1       3.840   5.404  17.723  0.00  0.00    +0.000 A 
ATOM      7  C   UNL     1       2.854   5.476  18.665  0.00  0.00    +0.000 A 
ATOM      8  C   UNL     1       4.483   6.643  17.110  0.00  0.00    +0.000 C 
ATOM      9  C   UNL     1       5.781   6.413  16.349  0.00  0.00    +0.000 C 
ATOM     10  C   UNL     1       5.588   5.246  15.410  0.00  0.00    +0.000 C 
ATOM     11  C   UNL     1       5.313   4.005  16.237  0.00  0.00    +0.000 C 
ENDROOT
BRANCH   7  12
ATOM     12  C   UNL     1       2.223   6.835  18.932  0.00  0.00    +0.000 C 
ATOM     13  O   UNL     1       1.961   7.570  17.981  0.00  0.00    +0.000 OA
ATOM     14  N   UNL     1       2.000   7.180  20.254  0.00  0.00    +0.000 N 
ATOM     15  H   UNL     1       2.262   6.495  20.957  0.00  0.00    +0.000 HD
BRANCH  14  16
ATOM     16  C   UNL     1       1.401   8.386  20.704  0.00  0.00    +0.000 A 
ATOM     17  C   UNL     1       1.087   8.626  22.044  0.00  0.00    +0.000 A 
ATOM     18  C   UNL     1       0.486   9.819  22.447  0.00  0.00    +0.000 A 
ATOM     19  C   UNL     1       0.173  10.799  21.510  0.00  0.00    +0.000 A 
ATOM     20 CL   UNL     1      -0.567  12.244  22.101  0.00  0.00    +0.000 Cl
ATOM     21  C   UNL     1       0.467  10.594  20.155  0.00  0.00    +0.000 A 
ATOM     22  C   UNL     1       0.111  11.586  19.082  0.00  0.00    +0.000 C 
ATOM     23  C   UNL     1       1.103   9.388  19.769  0.00  0.00    +0.000 A 
ENDBRANCH  14  16
ENDBRANCH   7  12
BRANCH   1  25
ATOM     24  C   UNL     1       1.238   3.388  21.219  0.00  0.00    +0.000 C 
ATOM     25  O   UNL     1       1.371   4.425  20.244  0.00  0.00    +0.000 OA
ENDBRANCH   1  25
TORSDOF 3
ENDMDL
MODEL 8
REMARK VINA RESULT:      -7.4      3.671      7.888
REMARK  Name = 
REMARK  5 active torsions:
REMARK  status: ('A' for Active; 'I' for Inactive)
REMARK    1  A    between atoms: C_1  and  O_2
REMARK    2  A    between atoms: O_2  and  C_3
REMARK    3  A    between atoms: C_9  and  C_10
REMARK    4  A    between atoms: N_12  and  C_13
REMARK    5  A    between atoms: C_18  and  C_19
REMARK                            x       y       z     vdW  Elec       q    Type
REMARK                         _______ _______ _______ _____ _____    ______ ____
ROOT
ATOM      1  C   UNL     1       0.142  10.837  20.820  0.00  0.00    +0.000 A 
ATOM      2  C   UNL     1      -0.830  11.695  21.164  0.00  0.00    +0.000 A 
ATOM      3  C   UNL     1      -1.946  11.993  20.250  0.00  0.00    +0.000 A 
ATOM      4  O   UNL     1      -2.813  12.782  20.618  0.00  0.00    +0.000 OA
ATOM      5  N   UNL     1      -1.936  11.337  19.022  0.00  0.00    +0.000 N 
ATOM      6  C   UNL     1      -0.937  10.411  18.666  0.00  0.00    +0.000 A 
ATOM      7  C   UNL     1       0.109  10.181  19.513  0.00  0.00    +0.000 A 
ATOM      8  C   UNL     1      -1.067   9.720  17.313  0.00  0.00    +0.000 C 
ATOM      9  C   UNL     1      -2.432   9.809  16.647  0.00  0.00    +0.000 C 
ATOM     10  C   UNL     1      -2.896  11.246  16.692  0.00  0.00    +0.000 C 
ATOM     11  C   UNL     1      -3.064  11.651  18.144  0.00  0.00    +0.000 C 
ENDROOT
BRANCH   7  12
ATOM     12  C   UNL     1       1.294   9.386  18.982  0.00  0.00    +0.000 C 
ATOM     13  O   UNL     1       2.059   9.918  18.179  0.00  0.00    +0.000 OA
ATOM     14  N   UNL     1       1.428   8.081  19.422  0.00  0.00    +0.000 N 
ATOM     15  H   UNL     1       0.733   7.745  20.081  0.00  0.00    +0.000 HD
BRANCH  14  16
ATOM     16  C   UNL     1       2.475   7.191  19.063  0.00  0.00    +0.000 A 
ATOM     17  C   UNL     1       2.897   6.141  19.883  0.00  0.00    +0.000 A 
ATOM     18  C   UNL     1       3.939   5.295  19.503  0.00  0.00    +0.000 A 
ATOM     19  C   UNL     1       4.593   5.489  18.290  0.00  0.00    +0.000 A 
ATOM     20 CL   UNL     1       5.869   4.391  17.901  0.00  0.00    +0.000 Cl
ATOM     21  C   UNL     1       4.203   6.534  17.441  0.00  0.00    +0.000 A 
ATOM     22  C   UNL     1       4.898   6.834  16.141  0.00  0.00    +0.000 C 
ATOM     23  C   UNL     1       3.124   7.366  17.832  0.00  0.00    +0.000 A 
ENDBRANCH  14  16
ENDBRANCH   7  12
BRANCH   1  25
ATOM     24  C   UNL     1       0.978   9.486  22.624  0.00  0.00    +0.000 C 
ATOM     25  O   UNL     1       1.209  10.490  21.633  0.00  0.00    +0.000 OA
ENDBRANCH   1  25
TORSDOF 3
ENDMDL
MODEL 9
REMARK VINA RESULT:      -7.3      2.230      3.831
REMARK  Name = 
REMARK  5 active torsions:
REMARK  status: ('A' for Active; 'I' for Inactive)
REMARK    1  A    between atoms: C_1  and  O_2
REMARK    2  A    between atoms: O_2  and  C_3
REMARK    3  A    between atoms: C_9  and  C_10
REMARK    4  A    between atoms: N_12  and  C_13
REMARK    5  A    between atoms: C_18  and  C_19
REMARK                            x       y       z     vdW  Elec       q    Type
REMARK                         _______ _______ _______ _____ _____    ______ ____
ROOT
ATOM      1  C   UNL     1       2.950   4.091  17.411  0.00  0.00    +0.000 A 
ATOM      2  C   UNL     1       3.665   3.513  16.435  0.00  0.00    +0.000 A 
ATOM      3  C   UNL     1       5.124   3.697  16.344  0.00  0.00    +0.000 A 
ATOM      4  O   UNL     1       5.731   3.139  15.432  0.00  0.00    +0.000 OA
ATOM      5  N   UNL     1       5.712   4.495  17.322  0.00  0.00    +0.000 N 
ATOM      6  C   UNL     1       4.973   5.080  18.368  0.00  0.00    +0.000 A 
ATOM      7  C   UNL     1       3.617   4.928  18.409  0.00  0.00    +0.000 A 
ATOM      8  C   UNL     1       5.742   5.889  19.406  0.00  0.00    +0.000 C 
ATOM      9  C   UNL     1       7.249   5.683  19.429  0.00  0.00    +0.000 C 
ATOM     10  C   UNL     1       7.769   5.777  18.014  0.00  0.00    +0.000 C 
ATOM     11  C   UNL     1       7.163   4.648  17.203  0.00  0.00    +0.000 C 
ENDROOT
BRANCH   7  12
ATOM     12  C   UNL     1       2.833   5.788  19.391  0.00  0.00    +0.000 C 
ATOM     13  O   UNL     1       2.521   5.314  20.483  0.00  0.00    +0.000 OA
ATOM     14  N   UNL     1       2.490   7.063  18.980  0.00  0.00    +0.000 N 
ATOM     15  H   UNL     1       2.797   7.346  18.054  0.00  0.00    +0.000 HD
BRANCH  14  16
ATOM     16  C   UNL     1       1.786   8.021  19.757  0.00  0.00    +0.000 A 
ATOM     17  C   UNL     1       1.539   7.862  21.123  0.00  0.00    +0.000 A 
ATOM     18  C   UNL     1       0.831   8.819  21.851  0.00  0.00    +0.000 A 
ATOM     19  C   UNL     1       0.342   9.959  21.221  0.00  0.00    +0.000 A 
ATOM     20 CL   UNL     1      -0.521  11.090  22.201  0.00  0.00    +0.000 Cl
ATOM     21  C   UNL     1       0.564  10.154  19.850  0.00  0.00    +0.000 A 
ATOM     22  C   UNL     1       0.020  11.335  19.094  0.00  0.00    +0.000 C 
ATOM     23  C   UNL     1       1.309   9.184  19.134  0.00  0.00    +0.000 A 
ENDBRANCH  14  16
ENDBRANCH   7  12
BRANCH   1  25
ATOM     24  C   UNL     1       1.130   2.861  18.388  0.00  0.00    +0.000 C 
ATOM     25  O   UNL     1       1.582   3.946  17.575  0.00  0.00    +0.000 OA
ENDBRANCH   1  25
TORSDOF 3
ENDMDL
